REMARK  Name = ZINC03595745
REMARK  3 active torsions:
REMARK  status: ('A' for Active; 'I' for Inactive)
REMARK    1  A    between atoms: C_1  and  C_2
REMARK    2  A    between atoms: N_11  and  C_15
REMARK    3  A    between atoms: C_15  and  C_16
REMARK                            x       y       z     vdW  Elec       q    Type
REMARK                         _______ _______ _______ _____ _____    ______ ____
ROOT
ATOM      1  C   UNL     1      -0.712   3.293   2.520  0.00  0.00    +0.010 C 
ATOM      2  C   UNL     1      -1.213   4.053   1.290  0.00  0.00    +0.018 C 
ATOM      3  C   UNL     1      -2.743   4.086   1.300  0.00  0.00    +0.006 C 
ATOM      4  C   UNL     1      -3.244   4.828   0.059  0.00  0.00    +0.000 C 
ATOM      5  C   UNL     1      -2.767   4.099  -1.199  0.00  0.00    +0.003 C 
ATOM      6  C   UNL     1      -1.237   4.066  -1.219  0.00  0.00    +0.035 C 
ATOM      7  C   UNL     1      -0.725   3.352   0.027  0.00  0.00    +0.115 C 
ATOM      8  C   UNL     1       0.785   3.285   0.012  0.00  0.00    +0.247 C 
ATOM      9  O   UNL     1       1.561   4.217   0.010  0.00  0.00    -0.273 OA
ATOM     10  N   UNL     1       1.088   1.971   0.002  0.00  0.00    -0.215 N 
ATOM     11  C   UNL     1      -0.014   1.211   0.009  0.00  0.00    +0.310 C 
ATOM     12  O   UNL     1       0.002  -0.004   0.002  0.00  0.00    -0.252 OA
ATOM     13  N   UNL     1      -1.144   1.945   0.018  0.00  0.00    -0.285 N 
ATOM     14  H   UNL     1      -2.054   1.610   0.019  0.00  0.00    +0.151 HD
ENDROOT
BRANCH  10  15
ATOM     15  C   UNL     1       2.453   1.440  -0.014  0.00  0.00    +0.214 C 
BRANCH  15  16
ATOM     16  C   UNL     1       2.907   1.266  -1.441  0.00  0.00    +0.238 C 
ATOM     17  O   UNL     1       2.164   1.556  -2.353  0.00  0.00    -0.274 OA
ATOM     18  N   UNL     1       4.140   0.787  -1.702  0.00  0.00    -0.239 N 
ATOM     19  C   UNL     1       4.546   0.632  -2.978  0.00  0.00    +0.303 C 
ATOM     20  O   UNL     1       3.800   0.923  -3.893  0.00  0.00    -0.253 OA
ATOM     21  N   UNL     1       5.778   0.153  -3.239  0.00  0.00    -0.313 N 
ATOM     22  H   UNL     1       4.735   0.555  -0.972  0.00  0.00    +0.159 HD
ATOM     23  H   UNL     1       6.373  -0.079  -2.509  0.00  0.00    +0.146 HD
ATOM     24  H   UNL     1       6.070   0.041  -4.157  0.00  0.00    +0.146 HD
ENDBRANCH  15  16
ENDBRANCH  10  15
TORSDOF 2
