REMARK  Name = ZINC01048191
REMARK  11 active torsions:
REMARK  status: ('A' for Active; 'I' for Inactive)
REMARK    1  A    between atoms: C_1  and  O_2
REMARK    2  A    between atoms: O_2  and  C_3
REMARK    3  A    between atoms: C_5  and  N_12
REMARK    4  A    between atoms: C_6  and  O_10
REMARK    5  A    between atoms: O_10  and  C_11
REMARK    6  A    between atoms: N_12  and  C_13
REMARK    7  A    between atoms: C_13  and  N_15
REMARK    8  A    between atoms: N_15  and  N_16
REMARK    9  A    between atoms: C_17  and  C_18
REMARK   10  A    between atoms: C_21  and  O_25
REMARK   11  A    between atoms: C_23  and  O_24
REMARK                            x       y       z     vdW  Elec       q    Type
REMARK                         _______ _______ _______ _____ _____    ______ ____
ROOT
ATOM      1  C   UNL     1       5.936   3.333   0.353  0.00  0.00    +0.154 C 
ATOM      2  S   UNL     1       7.385   4.101   0.842  0.00  0.00    -0.017 S 
ENDROOT
BRANCH   1   3
ATOM      3  N   UNL     1       5.956   2.045  -0.042  0.00  0.00    -0.293 N 
ATOM      4  H   UNL     1       5.126   1.585  -0.243  0.00  0.00    +0.154 HD
BRANCH   3   7
ATOM      5  C   UNL     1       9.464   1.316  -0.892  0.00  0.00    +0.140 A 
ATOM      6  C   UNL     1       8.257   1.987  -0.774  0.00  0.00    +0.074 A 
ATOM      7  C   UNL     1       7.177   1.368  -0.163  0.00  0.00    +0.078 A 
ATOM      8  C   UNL     1       7.311   0.074   0.337  0.00  0.00    +0.143 A 
ATOM      9  C   UNL     1       8.517  -0.594   0.212  0.00  0.00    +0.071 A 
ATOM     10  C   UNL     1       9.593   0.025  -0.399  0.00  0.00    +0.086 A 
ATOM     11 CL   UNL     1      11.105  -0.813  -0.547  0.00  0.00    -0.080 Cl
BRANCH   5  13
ATOM     12  C   UNL     1      10.321   3.251  -1.977  0.00  0.00    +0.277 C 
ATOM     13  O   UNL     1      10.523   1.923  -1.492  0.00  0.00    -0.494 OA
ENDBRANCH   5  13
BRANCH   8  14
ATOM     14  O   UNL     1       6.255  -0.534   0.942  0.00  0.00    -0.493 OA
ATOM     15  C   UNL     1       6.463  -1.860   1.431  0.00  0.00    +0.277 C 
ENDBRANCH   8  14
ENDBRANCH   3   7
ENDBRANCH   1   3
BRANCH   1  16
ATOM     16  N   UNL     1       4.774   4.016   0.363  0.00  0.00    -0.218 N 
ATOM     17  H   UNL     1       4.759   4.944   0.647  0.00  0.00    +0.176 HD
BRANCH  16  18
ATOM     18  N   UNL     1       3.588   3.387  -0.037  0.00  0.00    -0.188 NA
ATOM     19  C   UNL     1       2.469   4.045  -0.027  0.00  0.00    +0.141 C 
BRANCH  19  20
ATOM     20  C   UNL     1       1.221   3.384  -0.448  0.00  0.00    +0.036 A 
ATOM     21  C   UNL     1       0.016   4.090  -0.438  0.00  0.00    +0.016 A 
ATOM     22  C   UNL     1      -1.149   3.467  -0.831  0.00  0.00    +0.046 A 
ATOM     23  C   UNL     1      -1.128   2.140  -1.244  0.00  0.00    +0.120 A 
ATOM     24  C   UNL     1       0.063   1.429  -1.252  0.00  0.00    +0.091 A 
ATOM     25  C   UNL     1       1.240   2.044  -0.859  0.00  0.00    +0.129 A 
BRANCH  25  26
ATOM     26  O   UNL     1       2.407   1.351  -0.871  0.00  0.00    -0.506 OA
ATOM     27  H   UNL     1       2.889   1.407  -1.707  0.00  0.00    +0.292 HD
ENDBRANCH  25  26
BRANCH  23  28
ATOM     28  O   UNL     1      -2.279   1.535  -1.636  0.00  0.00    -0.507 OA
ATOM     29  H   UNL     1      -2.761   1.103  -0.917  0.00  0.00    +0.292 HD
ENDBRANCH  23  28
ENDBRANCH  19  20
ENDBRANCH  16  18
ENDBRANCH   1  16
TORSDOF 9
