REMARK  Name = ZINC36378012
REMARK  8 active torsions:
REMARK  status: ('A' for Active; 'I' for Inactive)
REMARK    1  A    between atoms: C_1  and  N_2
REMARK    2  A    between atoms: C_9  and  C_21
REMARK    3  A    between atoms: C_11  and  C_17
REMARK    4  A    between atoms: C_11  and  C_19
REMARK    5  A    between atoms: C_12  and  N_16
REMARK    6  A    between atoms: C_13  and  C_14
REMARK    7  A    between atoms: C_24  and  O_28
REMARK    8  A    between atoms: C_25  and  O_27
REMARK                            x       y       z     vdW  Elec       q    Type
REMARK                         _______ _______ _______ _____ _____    ______ ____
ROOT
ATOM      1  C   UNL     1      -0.775   1.497   0.081  0.00  0.00    +0.105 C 
ATOM      2  N   UNL     1      -0.543   0.047   0.038  0.00  0.00    -0.301 NA
ATOM      3  C   UNL     1       0.050  -0.355  -1.249  0.00  0.00    +0.111 C 
ATOM      4  C   UNL     1       0.093  -1.863  -1.280  0.00  0.00    -0.007 C 
ATOM      5  C   UNL     1       0.283  -2.540  -0.163  0.00  0.00    -0.026 C 
ATOM      6  C   UNL     1       0.517  -1.877   1.165  0.00  0.00    +0.044 C 
ATOM      7  C   UNL     1       0.316  -0.380   1.147  0.00  0.00    +0.093 C 
ATOM      8  C   UNL     1      -0.369  -2.566   2.203  0.00  0.00    +0.068 C 
ATOM      9  C   UNL     1       0.059  -4.029   2.328  0.00  0.00    +0.188 C 
ATOM     10  C   UNL     1       0.148  -4.699   0.990  0.00  0.00    +0.054 C 
ATOM     11  C   UNL     1       0.265  -4.024  -0.182  0.00  0.00    +0.074 C 
ENDROOT
BRANCH   8  12
ATOM     12  C   UNL     1      -0.215  -1.877   3.535  0.00  0.00    -0.037 A 
ATOM     13  C   UNL     1      -1.333  -1.597   4.299  0.00  0.00    +0.008 A 
ATOM     14  C   UNL     1      -1.197  -0.965   5.521  0.00  0.00    +0.049 A 
ATOM     15  C   UNL     1       0.061  -0.612   5.983  0.00  0.00    +0.158 A 
ATOM     16  C   UNL     1       1.186  -0.895   5.213  0.00  0.00    +0.158 A 
ATOM     17  C   UNL     1       1.043  -1.533   3.992  0.00  0.00    +0.053 A 
BRANCH  16  18
ATOM     18  O   UNL     1       2.423  -0.551   5.662  0.00  0.00    -0.503 OA
ATOM     19  H   UNL     1       2.855  -1.237   6.189  0.00  0.00    +0.292 HD
ENDBRANCH  16  18
BRANCH  15  20
ATOM     20  O   UNL     1       0.197   0.010   7.185  0.00  0.00    -0.503 OA
ATOM     21  H   UNL     1       0.310  -0.596   7.930  0.00  0.00    +0.292 HD
ENDBRANCH  15  20
ENDBRANCH   8  12
BRANCH  10  22
ATOM     22  N   UNL     1       0.110  -6.065   0.948  0.00  0.00    -0.358 N 
ATOM     23  H   UNL     1       0.028  -6.573   1.770  0.00  0.00    +0.142 HD
ATOM     24  H   UNL     1       0.166  -6.526   0.097  0.00  0.00    +0.142 HD
ENDBRANCH  10  22
BRANCH  11  25
ATOM     25  C   UNL     1       0.370  -4.735  -1.421  0.00  0.00    +0.101 C 
ATOM     26  N   UNL     1       0.453  -5.298  -2.403  0.00  0.00    -0.191 NA
ENDBRANCH  11  25
BRANCH   9  27
ATOM     27  C   UNL     1       1.376  -4.088   2.982  0.00  0.00    +0.091 C 
ATOM     28  N   UNL     1       2.393  -4.134   3.488  0.00  0.00    -0.194 NA
ENDBRANCH   9  27
BRANCH   9  29
ATOM     29  C   UNL     1      -0.920  -4.746   3.160  0.00  0.00    +0.091 C 
ATOM     30  N   UNL     1      -1.677  -5.300   3.802  0.00  0.00    -0.194 NA
ENDBRANCH   9  29
TORSDOF 7
