REMARK  Name = ZINC63929537
REMARK  7 active torsions:
REMARK  status: ('A' for Active; 'I' for Inactive)
REMARK    1  A    between atoms: C_1  and  C_2
REMARK    2  A    between atoms: C_2  and  C_3
REMARK    3  A    between atoms: C_2  and  N_4
REMARK    4  A    between atoms: C_5  and  C_7
REMARK    5  A    between atoms: C_12  and  N_13
REMARK    6  A    between atoms: C_14  and  C_16
REMARK    7  A    between atoms: C_19  and  C_24
REMARK                            x       y       z     vdW  Elec       q    Type
REMARK                         _______ _______ _______ _____ _____    ______ ____
ROOT
ATOM      1  N   UNL     1      -1.216  -0.767   4.900  0.00  0.00    -0.281 N 
ATOM      2  C   UNL     1      -1.642  -0.154   6.022  0.00  0.00    +0.254 C 
ATOM      3  O   UNL     1      -0.848   0.124   6.902  0.00  0.00    -0.270 OA
ATOM      4  H   UNL     1      -1.832  -0.920   4.167  0.00  0.00    +0.155 HD
ENDROOT
BRANCH   2   5
ATOM      5  C   UNL     1      -3.062   0.178   6.183  0.00  0.00    +0.101 A 
ATOM      6  C   UNL     1      -3.962  -0.042   5.134  0.00  0.00    +0.020 A 
ATOM      7  C   UNL     1      -5.297   0.280   5.312  0.00  0.00    +0.028 A 
ATOM      8  C   UNL     1      -5.725   0.814   6.521  0.00  0.00    +0.056 A 
ATOM      9  N   UNL     1      -4.840   1.027   7.542  0.00  0.00    -0.321 N 
ATOM     10  H   UNL     1      -5.156   1.401   8.380  0.00  0.00    +0.169 HD
ATOM     11  C   UNL     1      -3.536   0.719   7.403  0.00  0.00    +0.261 A 
ATOM     12  O   UNL     1      -2.763   0.911   8.325  0.00  0.00    -0.267 OA
BRANCH   8  13
ATOM     13  C   UNL     1      -7.137   1.153   6.703  0.00  0.00    +0.036 A 
ATOM     14  C   UNL     1      -7.770   1.696   7.813  0.00  0.00    +0.017 A 
ATOM     15  C   UNL     1      -9.123   1.906   7.684  0.00  0.00    +0.008 A 
ATOM     16  C   UNL     1      -9.732   1.580   6.518  0.00  0.00    +0.046 A 
ATOM     17  S   UNL     1      -8.491   0.984   5.556  0.00  0.00    -0.095 S 
ENDBRANCH   8  13
ENDBRANCH   2   5
BRANCH   1  23
ATOM     18  C   UNL     1       0.765  -1.131   3.554  0.00  0.00    +0.058 A 
ATOM     19  C   UNL     1       2.097  -1.544   3.462  0.00  0.00    +0.015 A 
ATOM     20  C   UNL     1       2.754  -2.002   4.583  0.00  0.00    +0.001 A 
ATOM     21  C   UNL     1       2.101  -2.054   5.804  0.00  0.00    +0.002 A 
ATOM     22  C   UNL     1       0.786  -1.650   5.912  0.00  0.00    +0.024 A 
ATOM     23  C   UNL     1       0.109  -1.181   4.793  0.00  0.00    +0.046 A 
BRANCH  18  25
ATOM     24  N   UNL     1       0.718  -0.499   1.193  0.00  0.00    -0.309 N 
ATOM     25  C   UNL     1       0.056  -0.640   2.358  0.00  0.00    +0.246 C 
ATOM     26  O   UNL     1      -1.126  -0.362   2.423  0.00  0.00    -0.270 OA
ATOM     27  H   UNL     1       1.661  -0.720   1.141  0.00  0.00    +0.149 HD
BRANCH  24  29
ATOM     28  C   UNL     1      -0.001   1.519   0.012  0.00  0.00    +0.027 C 
ATOM     29  C   UNL     1       0.014  -0.011   0.004  0.00  0.00    +0.067 C 
ATOM     30  C   UNL     1       0.730  -0.508  -1.253  0.00  0.00    +0.027 C 
ENDBRANCH  24  29
ENDBRANCH  18  25
ENDBRANCH   1  23
TORSDOF 5
