REMARK  Name = ZINC62403330
REMARK  13 active torsions:
REMARK  status: ('A' for Active; 'I' for Inactive)
REMARK    1  A    between atoms: C_1  and  C_2
REMARK    2  A    between atoms: C_2  and  C_3
REMARK    3  A    between atoms: C_3  and  C_4
REMARK    4  A    between atoms: C_3  and  N_5
REMARK    5  A    between atoms: C_6  and  C_8
REMARK    6  A    between atoms: C_8  and  C_9
REMARK    7  A    between atoms: C_8  and  N_10
REMARK    8  A    between atoms: N_13  and  C_14
REMARK    9  A    between atoms: C_17  and  C_21
REMARK   10  A    between atoms: N_23  and  C_24
REMARK   11  A    between atoms: C_24  and  C_25
REMARK   12  A    between atoms: C_25  and  C_26
REMARK   13  A    between atoms: C_25  and  C_27
REMARK                            x       y       z     vdW  Elec       q    Type
REMARK                         _______ _______ _______ _____ _____    ______ ____
ROOT
ATOM      1  N   UNL     1       0.657   0.515  -6.008  0.00  0.00    -0.288 N 
ATOM      2  C   UNL     1       0.166   0.343  -7.251  0.00  0.00    +0.304 C 
ATOM      3  O   UNL     1      -1.018   0.113  -7.410  0.00  0.00    -0.252 OA
ATOM      4  N   UNL     1       0.986   0.425  -8.317  0.00  0.00    -0.269 N 
ATOM      5  H   UNL     1       1.601   0.698  -5.881  0.00  0.00    +0.151 HD
ATOM      6  H   UNL     1       1.915   0.674  -8.196  0.00  0.00    +0.156 HD
ENDROOT
BRANCH   4   7
ATOM      7  C   UNL     1       0.498   0.152  -9.595  0.00  0.00    +0.036 A 
ATOM      8  C   UNL     1      -0.805   0.510  -9.931  0.00  0.00    +0.024 A 
ATOM      9  C   UNL     1      -1.291   0.242 -11.190  0.00  0.00    +0.016 A 
ATOM     10  C   UNL     1      -0.474  -0.389 -12.134  0.00  0.00    +0.055 A 
ATOM     11  C   UNL     1       0.834  -0.747 -11.793  0.00  0.00    +0.055 A 
ATOM     12  C   UNL     1       1.315  -0.470 -10.531  0.00  0.00    +0.044 A 
ATOM     13 CL   UNL     1       1.853  -1.531 -12.960  0.00  0.00    -0.083 Cl
BRANCH  10  14
ATOM     14  C   UNL     1      -0.992  -0.677 -13.485  0.00  0.00    +0.245 C 
ATOM     15  O   UNL     1      -0.281  -1.226 -14.304  0.00  0.00    -0.270 OA
ATOM     16  N   UNL     1      -2.253  -0.332 -13.811  0.00  0.00    -0.311 N 
ATOM     17  H   UNL     1      -2.821   0.106 -13.157  0.00  0.00    +0.149 HD
BRANCH  16  18
ATOM     18  C   UNL     1      -2.767  -0.618 -15.152  0.00  0.00    +0.107 C 
BRANCH  18  19
ATOM     19  C   UNL     1      -4.213  -0.128 -15.260  0.00  0.00    -0.000 C 
ATOM     20  C   UNL     1      -4.246   1.396 -15.131  0.00  0.00    +0.009 C 
ATOM     21  C   UNL     1      -4.790  -0.538 -16.616  0.00  0.00    +0.009 C 
ENDBRANCH  18  19
ENDBRANCH  16  18
ENDBRANCH  10  14
ENDBRANCH   4   7
BRANCH   1  22
ATOM     22  C   UNL     1      -0.234   0.425  -4.849  0.00  0.00    +0.157 C 
ATOM     23  C   UNL     1      -0.903   1.781  -4.614  0.00  0.00    +0.038 C 
BRANCH  22  25
ATOM     24  N   UNL     1      -0.051  -0.101  -2.439  0.00  0.00    -0.311 N 
ATOM     25  C   UNL     1       0.564   0.041  -3.630  0.00  0.00    +0.233 C 
ATOM     26  O   UNL     1       1.760  -0.140  -3.720  0.00  0.00    -0.274 OA
ATOM     27  H   UNL     1      -1.007   0.044  -2.366  0.00  0.00    +0.149 HD
BRANCH  24  28
ATOM     28  C   UNL     1       0.725  -0.475  -1.254  0.00  0.00    +0.070 C 
ATOM     29  C   UNL     1       0.868  -1.997  -1.196  0.00  0.00    +0.028 C 
BRANCH  28  31
ATOM     30  C   UNL     1      -0.027   1.547   0.006  0.00  0.00    +0.005 C 
ATOM     31  C   UNL     1       0.005   0.018   0.004  0.00  0.00    +0.018 C 
ENDBRANCH  28  31
ENDBRANCH  24  28
ENDBRANCH  22  25
ENDBRANCH   1  22
TORSDOF 8
