REMARK  Name = ZINC01248778
REMARK  7 active torsions:
REMARK  status: ('A' for Active; 'I' for Inactive)
REMARK    1  A    between atoms: C_1  and  C_2
REMARK    2  A    between atoms: C_2  and  C_3
REMARK    3  A    between atoms: C_3  and  C_4
REMARK    4  A    between atoms: N_7  and  C_9
REMARK    5  A    between atoms: C_16  and  N_29
REMARK    6  A    between atoms: C_17  and  C_27
REMARK    7  A    between atoms: C_18  and  C_20
REMARK                            x       y       z     vdW  Elec       q    Type
REMARK                         _______ _______ _______ _____ _____    ______ ____
ROOT
ATOM      1  C   UNL     1       1.906   4.636   0.637  0.00  0.00    +0.071 A 
ATOM      2  C   UNL     1       1.017   3.620   0.314  0.00  0.00    +0.050 A 
ATOM      3  C   UNL     1      -0.246   4.144   0.315  0.00  0.00    +0.230 A 
ATOM      4  N   UNL     1      -0.141   5.454   0.630  0.00  0.00    -0.200 N 
ATOM      5  N   UNL     1       1.219   5.738   0.828  0.00  0.00    -0.168 NA
ATOM      6  O   UNL     1      -1.347   3.404   0.038  0.00  0.00    -0.423 OA
ATOM      7  C   UNL     1      -1.211   2.062   0.019  0.00  0.00    +0.200 C 
ATOM      8  C   UNL     1      -0.017   1.428   0.010  0.00  0.00    +0.098 C 
ATOM      9  C   UNL     1       1.295   2.172   0.001  0.00  0.00    +0.104 C 
ENDROOT
BRANCH   9  10
ATOM     10  C   UNL     1       1.935   2.059  -1.358  0.00  0.00    +0.001 A 
ATOM     11  C   UNL     1       1.273   2.534  -2.475  0.00  0.00    +0.007 A 
ATOM     12  C   UNL     1       1.862   2.435  -3.722  0.00  0.00    +0.000 A 
ATOM     13  C   UNL     1       3.108   1.851  -3.855  0.00  0.00    +0.003 A 
ATOM     14  C   UNL     1       3.769   1.371  -2.740  0.00  0.00    +0.038 A 
ATOM     15  C   UNL     1       3.182   1.474  -1.490  0.00  0.00    +0.127 A 
ATOM     16  F   UNL     1       3.827   1.004  -0.400  0.00  0.00    -0.205 F 
ENDBRANCH   9  10
BRANCH   4  17
ATOM     17  C   UNL     1      -1.200   6.365   0.739  0.00  0.00    +0.069 A 
ATOM     18  C   UNL     1      -2.296   6.262  -0.107  0.00  0.00    +0.028 A 
ATOM     19  C   UNL     1      -3.341   7.158   0.006  0.00  0.00    +0.002 A 
ATOM     20  C   UNL     1      -3.292   8.164   0.954  0.00  0.00    +0.000 A 
ATOM     21  C   UNL     1      -2.199   8.272   1.794  0.00  0.00    +0.002 A 
ATOM     22  C   UNL     1      -1.153   7.376   1.689  0.00  0.00    +0.028 A 
ENDBRANCH   4  17
BRANCH   7  23
ATOM     23  N   UNL     1      -2.350   1.296   0.016  0.00  0.00    -0.328 N 
ATOM     24  H   UNL     1      -2.284   0.329   0.007  0.00  0.00    +0.145 HD
ATOM     25  H   UNL     1      -3.221   1.723   0.022  0.00  0.00    +0.145 HD
ENDBRANCH   7  23
BRANCH   8  26
ATOM     26  C   UNL     1       0.002  -0.004   0.002  0.00  0.00    +0.101 C 
ATOM     27  N   UNL     1       0.018  -1.140  -0.004  0.00  0.00    -0.191 NA
ENDBRANCH   8  26
BRANCH   1  28
ATOM     28  C   UNL     1       3.402   4.497   0.749  0.00  0.00    +0.057 C 
BRANCH  28  30
ATOM     29  C   UNL     1       5.563   4.636  -0.497  0.00  0.00    +0.004 C 
ATOM     30  C   UNL     1       4.044   4.777  -0.611  0.00  0.00    +0.003 C 
ENDBRANCH  28  30
ENDBRANCH   1  28
TORSDOF 6
