REMARK  Name = ZINC05315753
REMARK  10 active torsions:
REMARK  status: ('A' for Active; 'I' for Inactive)
REMARK    1  A    between atoms: C_1  and  C_2
REMARK    2  A    between atoms: C_2  and  C_3
REMARK    3  A    between atoms: C_2  and  C_4
REMARK    4  A    between atoms: C_2  and  N_5
REMARK    5  A    between atoms: N_5  and  N_6
REMARK    6  A    between atoms: C_7  and  C_8
REMARK    7  A    between atoms: C_7  and  C_20
REMARK    8  A    between atoms: C_20  and  C_22
REMARK    9  A    between atoms: C_20  and  O_29
REMARK   10  A    between atoms: C_27  and  O_28
REMARK                            x       y       z     vdW  Elec       q    Type
REMARK                         _______ _______ _______ _____ _____    ______ ____
ROOT
ATOM      1  N   UNL     1       2.114  -0.049  -1.491  0.00  0.00    -0.186 NA
ATOM      2  C   UNL     1       2.710  -0.598  -2.509  0.00  0.00    +0.122 C 
ENDROOT
BRANCH   2   3
ATOM      3  C   UNL     1       4.138  -0.352  -2.743  0.00  0.00    +0.154 A 
ATOM      4  C   UNL     1       4.899   0.514  -1.821  0.00  0.00    +0.277 A 
ATOM      5  N   UNL     1       6.212   0.727  -2.054  0.00  0.00    -0.319 N 
ATOM      6  C   UNL     1       6.807   0.128  -3.149  0.00  0.00    +0.069 A 
ATOM      7  C   UNL     1       8.158   0.333  -3.410  0.00  0.00    +0.047 A 
ATOM      8  C   UNL     1       8.745  -0.268  -4.504  0.00  0.00    +0.043 A 
ATOM      9  C   UNL     1       7.996  -1.078  -5.351  0.00  0.00    +0.022 A 
ATOM     10  C   UNL     1       6.670  -1.292  -5.114  0.00  0.00    +0.031 A 
ATOM     11  C   UNL     1       6.049  -0.692  -4.006  0.00  0.00    +0.088 A 
ATOM     12  N   UNL     1       4.742  -0.908  -3.772  0.00  0.00    -0.238 NA
ATOM     13 CL   UNL     1      10.431  -0.010  -4.827  0.00  0.00    -0.083 Cl
ATOM     14  O   UNL     1       4.351   1.029  -0.864  0.00  0.00    -0.266 OA
ATOM     15  H   UNL     1       6.731   1.293  -1.461  0.00  0.00    +0.169 HD
ENDBRANCH   2   3
BRANCH   1  16
ATOM     16  N   UNL     1       0.785  -0.380  -1.196  0.00  0.00    -0.263 N 
ATOM     17  H   UNL     1       0.287  -0.964  -1.790  0.00  0.00    +0.169 HD
BRANCH  16  19
ATOM     18  C   UNL     1       0.142   1.685  -0.053  0.00  0.00    +0.032 C 
ATOM     19  C   UNL     1       0.147   0.156   0.009  0.00  0.00    +0.041 C 
ATOM     20  C   UNL     1       0.925  -0.302   1.244  0.00  0.00    +0.032 C 
ATOM     21  C   UNL     1      -1.293  -0.356   0.094  0.00  0.00    +0.032 C 
ENDBRANCH  16  19
ENDBRANCH   1  16
BRANCH   2  22
ATOM     22  C   UNL     1       1.935  -1.488  -3.447  0.00  0.00    +0.200 C 
BRANCH  22  23
ATOM     23  C   UNL     1       2.499  -2.884  -3.396  0.00  0.00    +0.028 A 
ATOM     24  C   UNL     1       3.416  -3.295  -4.345  0.00  0.00    +0.010 A 
ATOM     25  C   UNL     1       3.933  -4.576  -4.300  0.00  0.00    +0.001 A 
ATOM     26  C   UNL     1       3.536  -5.449  -3.304  0.00  0.00    +0.004 A 
ATOM     27  C   UNL     1       2.620  -5.044  -2.353  0.00  0.00    +0.046 A 
ATOM     28  C   UNL     1       2.103  -3.757  -2.393  0.00  0.00    +0.123 A 
BRANCH  28  29
ATOM     29  O   UNL     1       1.207  -3.353  -1.455  0.00  0.00    -0.506 OA
ATOM     30  H   UNL     1       0.285  -3.522  -1.694  0.00  0.00    +0.292 HD
ENDBRANCH  28  29
ENDBRANCH  22  23
BRANCH  22  31
ATOM     31  O   UNL     1       2.039  -0.980  -4.779  0.00  0.00    -0.381 OA
ATOM     32  H   UNL     1       2.945  -0.934  -5.113  0.00  0.00    +0.211 HD
ENDBRANCH  22  31
ENDBRANCH   2  22
TORSDOF 7
