REMARK  Name = ZINC06527004
REMARK  9 active torsions:
REMARK  status: ('A' for Active; 'I' for Inactive)
REMARK    1  A    between atoms: C_1  and  C_2
REMARK    2  A    between atoms: C_3  and  C_21
REMARK    3  A    between atoms: C_4  and  N_10
REMARK    4  A    between atoms: C_6  and  C_7
REMARK    5  A    between atoms: N_13  and  C_14
REMARK    6  A    between atoms: C_21  and  O_23
REMARK    7  A    between atoms: O_23  and  C_24
REMARK    8  A    between atoms: C_24  and  C_25
REMARK    9  A    between atoms: C_24  and  C_26
REMARK                            x       y       z     vdW  Elec       q    Type
REMARK                         _______ _______ _______ _____ _____    ______ ____
ROOT
ATOM      1  C   UNL     1       1.195   3.572  -2.512  0.00  0.00    +0.046 C 
ATOM      2  C   UNL     1       1.242   4.265  -1.174  0.00  0.00    -0.015 A 
ATOM      3  C   UNL     1       1.221   3.542   0.009  0.00  0.00    +0.091 A 
ATOM      4  C   UNL     1       1.262   4.259   1.210  0.00  0.00    +0.088 A 
ATOM      5  S   UNL     1       1.338   5.906   0.676  0.00  0.00    -0.068 S 
ATOM      6  C   UNL     1       1.306   5.629  -1.085  0.00  0.00    +0.079 A 
ENDROOT
BRANCH   4   7
ATOM      7  N   UNL     1       1.247   3.773   2.503  0.00  0.00    -0.263 N 
ATOM      8  C   UNL     1       1.293   4.628   3.544  0.00  0.00    +0.308 C 
ATOM      9  O   UNL     1       1.348   5.826   3.345  0.00  0.00    -0.252 OA
ATOM     10  N   UNL     1       1.279   4.154   4.806  0.00  0.00    -0.269 N 
ATOM     11  H   UNL     1       1.204   2.817   2.662  0.00  0.00    +0.157 HD
ATOM     12  H   UNL     1       1.169   3.204   4.966  0.00  0.00    +0.156 HD
BRANCH  10  13
ATOM     13  C   UNL     1       1.424   5.034   5.885  0.00  0.00    +0.035 A 
ATOM     14  C   UNL     1       2.106   4.629   7.025  0.00  0.00    +0.025 A 
ATOM     15  C   UNL     1       2.253   5.500   8.086  0.00  0.00    +0.022 A 
ATOM     16  C   UNL     1       1.711   6.772   8.019  0.00  0.00    +0.041 A 
ATOM     17  C   UNL     1       1.026   7.176   6.887  0.00  0.00    +0.022 A 
ATOM     18  C   UNL     1       0.882   6.310   5.820  0.00  0.00    +0.025 A 
ATOM     19 CL   UNL     1       1.891   7.862   9.358  0.00  0.00    -0.084 Cl
ENDBRANCH  10  13
ENDBRANCH   4   7
BRANCH   6  20
ATOM     20  C   UNL     1       1.339   6.615  -2.166  0.00  0.00    +0.248 C 
ATOM     21  O   UNL     1       1.308   6.248  -3.326  0.00  0.00    -0.270 OA
ATOM     22  N   UNL     1       1.403   7.930  -1.877  0.00  0.00    -0.325 N 
ATOM     23  H   UNL     1       1.427   8.223  -0.953  0.00  0.00    +0.145 HD
ATOM     24  H   UNL     1       1.425   8.583  -2.594  0.00  0.00    +0.145 HD
ENDBRANCH   6  20
BRANCH   3  25
ATOM     25  C   UNL     1       1.153   2.077   0.002  0.00  0.00    +0.342 C 
ATOM     26  O   UNL     1       2.177   1.421  -0.012  0.00  0.00    -0.245 OA
BRANCH  25  27
ATOM     27  O   UNL     1      -0.044   1.457   0.012  0.00  0.00    -0.458 OA
BRANCH  27  28
ATOM     28  C   UNL     1      -0.035   0.005   0.004  0.00  0.00    +0.171 C 
ATOM     29  C   UNL     1      -1.273  -0.516   0.736  0.00  0.00    +0.052 C 
ATOM     30  C   UNL     1      -0.048  -0.497  -1.441  0.00  0.00    +0.052 C 
ENDBRANCH  27  28
ENDBRANCH  25  27
ENDBRANCH   3  25
TORSDOF 6
