REMARK  Name = ZINC17448548
REMARK  4 active torsions:
REMARK  status: ('A' for Active; 'I' for Inactive)
REMARK    1  A    between atoms: C_1  and  C_2
REMARK    2  A    between atoms: C_10  and  C_11
REMARK    3  A    between atoms: N_13  and  N_14
REMARK    4  A    between atoms: C_15  and  C_17
REMARK                            x       y       z     vdW  Elec       q    Type
REMARK                         _______ _______ _______ _____ _____    ______ ____
ROOT
ATOM      1  C   UNL     1       7.054   1.173  -0.060  0.00  0.00    +0.296 C 
ATOM      2  O   UNL     1       6.769   2.356  -0.050  0.00  0.00    -0.265 OA
ATOM      3  N   UNL     1       6.077   0.245  -0.055  0.00  0.00    -0.228 N 
ATOM      4  H   UNL     1       6.304  -0.698  -0.063  0.00  0.00    +0.173 HD
ENDROOT
BRANCH   1  14
ATOM      5  C   UNL     1       9.489   3.108  -0.085  0.00  0.00    +0.048 C 
ATOM      6  C   UNL     1       9.527   1.601  -0.087  0.00  0.00    +0.008 A 
ATOM      7  C   UNL     1      10.718   0.752  -0.098  0.00  0.00    +0.024 A 
ATOM      8  C   UNL     1      12.092   1.002  -0.109  0.00  0.00    +0.012 A 
ATOM      9  C   UNL     1      12.970  -0.045  -0.123  0.00  0.00    +0.001 A 
ATOM     10  C   UNL     1      12.506  -1.353  -0.126  0.00  0.00    +0.004 A 
ATOM     11  C   UNL     1      11.154  -1.621  -0.115  0.00  0.00    +0.047 A 
ATOM     12  C   UNL     1      10.241  -0.573  -0.101  0.00  0.00    +0.136 A 
ATOM     13  O   UNL     1       8.895  -0.521  -0.088  0.00  0.00    -0.450 OA
ATOM     14  C   UNL     1       8.463   0.757  -0.076  0.00  0.00    +0.195 A 
ENDBRANCH   1  14
BRANCH   3  15
ATOM     15  N   UNL     1       4.733   0.642  -0.040  0.00  0.00    -0.230 N 
ATOM     16  C   UNL     1       3.756  -0.287  -0.036  0.00  0.00    +0.267 C 
ATOM     17  O   UNL     1       4.041  -1.470  -0.045  0.00  0.00    -0.268 OA
ATOM     18  H   UNL     1       4.506   1.585  -0.033  0.00  0.00    +0.173 HD
BRANCH  16  19
ATOM     19  C   UNL     1       2.352   0.128  -0.020  0.00  0.00    +0.077 A 
ATOM     20  C   UNL     1       1.209  -0.657  -0.013  0.00  0.00    +0.022 A 
ATOM     21  C   UNL     1       0.002  -0.004   0.002  0.00  0.00    +0.028 A 
ATOM     22  C   UNL     1      -0.016   1.357   0.009  0.00  0.00    +0.079 A 
ATOM     23  S   UNL     1       1.666   1.775  -0.004  0.00  0.00    -0.072 S 
ATOM     24 CL   UNL     1      -1.391   2.416   0.022  0.00  0.00    -0.076 Cl
ENDBRANCH  16  19
ENDBRANCH   3  15
TORSDOF 3
