REMARK  Name = ZINC38009012
REMARK  5 active torsions:
REMARK  status: ('A' for Active; 'I' for Inactive)
REMARK    1  A    between atoms: C_4  and  N_20
REMARK    2  A    between atoms: C_6  and  S_7
REMARK    3  A    between atoms: S_7  and  N_10
REMARK    4  A    between atoms: N_10  and  C_11
REMARK    5  A    between atoms: N_20  and  N_21
REMARK                            x       y       z     vdW  Elec       q    Type
REMARK                         _______ _______ _______ _____ _____    ______ ____
ROOT
ATOM      1  S   UNL     1      -1.491  -0.937   0.011  0.00  0.00    +0.092 S 
ATOM      2  O   UNL     1      -1.192  -2.220   0.545  0.00  0.00    -0.148 OA
ATOM      3  O   UNL     1      -2.471  -0.083   0.584  0.00  0.00    -0.148 OA
ENDROOT
BRANCH   1   9
ATOM      4  C   UNL     1       0.017   1.356   0.014  0.00  0.00    +0.046 A 
ATOM      5  C   UNL     1       1.219   2.035   0.004  0.00  0.00    +0.086 A 
ATOM      6  N   UNL     1       2.365   1.382  -0.018  0.00  0.00    -0.349 N 
ATOM      7  C   UNL     1       2.411   0.059  -0.032  0.00  0.00    +0.112 A 
ATOM      8  C   UNL     1       1.238  -0.689  -0.024  0.00  0.00    +0.071 A 
ATOM      9  C   UNL     1       0.021  -0.033  -0.000  0.00  0.00    +0.115 A 
ATOM     10  H   UNL     1       3.196   1.884  -0.024  0.00  0.00    +0.167 HD
BRANCH   7  11
ATOM     11  N   UNL     1       3.641  -0.588  -0.055  0.00  0.00    -0.269 N 
ATOM     12  H   UNL     1       3.679  -1.557  -0.066  0.00  0.00    +0.167 HD
BRANCH  11  13
ATOM     13  N   UNL     1       4.796   0.141  -0.063  0.00  0.00    -0.255 NA
ATOM     14  H   UNL     1       5.604  -0.463  -0.081  0.00  0.00    +0.140 HD
ATOM     15  H   UNL     1       4.810   0.787  -0.838  0.00  0.00    +0.140 HD
ENDBRANCH  11  13
ENDBRANCH   7  11
ENDBRANCH   1   9
BRANCH   1  16
ATOM     16  N   UNL     1      -1.933  -1.173  -1.567  0.00  0.00    -0.095 NA
BRANCH  16  17
ATOM     17  C   UNL     1      -3.040  -1.972  -1.872  0.00  0.00    +0.111 A 
ATOM     18  C   UNL     1      -4.315  -1.569  -1.494  0.00  0.00    +0.068 A 
ATOM     19  C   UNL     1      -5.406  -2.361  -1.796  0.00  0.00    +0.037 A 
ATOM     20  C   UNL     1      -5.230  -3.554  -2.475  0.00  0.00    +0.021 A 
ATOM     21  C   UNL     1      -3.962  -3.958  -2.852  0.00  0.00    +0.037 A 
ATOM     22  C   UNL     1      -2.867  -3.168  -2.558  0.00  0.00    +0.068 A 
ATOM     23 CL   UNL     1      -1.277  -3.672  -3.040  0.00  0.00    -0.081 Cl
ATOM     24 BR   UNL     1      -6.727  -4.635  -2.886  0.00  0.00    -0.050 Br
ATOM     25 CL   UNL     1      -4.536  -0.073  -0.641  0.00  0.00    -0.081 Cl
ENDBRANCH  16  17
ENDBRANCH   1  16
TORSDOF 5
