REMARK  Name = ZINC57531393
REMARK  10 active torsions:
REMARK  status: ('A' for Active; 'I' for Inactive)
REMARK    1  A    between atoms: C_1  and  C_2
REMARK    2  A    between atoms: C_2  and  N_3
REMARK    3  A    between atoms: N_3  and  C_4
REMARK    4  A    between atoms: N_3  and  C_6
REMARK    5  A    between atoms: C_4  and  C_5
REMARK    6  A    between atoms: C_9  and  C_12
REMARK    7  A    between atoms: C_14  and  C_26
REMARK    8  A    between atoms: C_16  and  C_21
REMARK    9  A    between atoms: C_16  and  O_25
REMARK   10  A    between atoms: C_26  and  C_28
REMARK                            x       y       z     vdW  Elec       q    Type
REMARK                         _______ _______ _______ _____ _____    ______ ____
ROOT
ATOM      1  C   UNL     1      -3.395  -1.721   4.726  0.00  0.00    +0.117 C 
ATOM      2  C   UNL     1      -4.041  -3.030   5.194  0.00  0.00    +0.144 C 
ATOM      3  C   UNL     1      -5.087  -2.703   6.265  0.00  0.00    +0.241 C 
ATOM      4  N   UNL     1      -6.042  -1.734   5.723  0.00  0.00    -0.291 N 
ATOM      5  C   UNL     1      -5.681  -0.852   4.780  0.00  0.00    +0.133 C 
ATOM      6  S   UNL     1      -6.849   0.261   4.205  0.00  0.00    -0.019 S 
ATOM      7  N   UNL     1      -4.441  -0.804   4.269  0.00  0.00    -0.319 N 
ATOM      8  H   UNL     1      -6.954  -1.730   6.054  0.00  0.00    +0.151 HD
ATOM      9  H   UNL     1      -4.234  -0.151   3.583  0.00  0.00    +0.148 HD
ENDROOT
BRANCH   1  13
ATOM     10  C   UNL     1      -0.697  -2.526   1.511  0.00  0.00    +0.030 A 
ATOM     11  C   UNL     1      -2.042  -2.301   1.251  0.00  0.00    +0.023 A 
ATOM     12  C   UNL     1      -2.912  -2.042   2.292  0.00  0.00    +0.007 A 
ATOM     13  C   UNL     1      -2.444  -2.005   3.593  0.00  0.00    -0.026 A 
ATOM     14  C   UNL     1      -1.105  -2.228   3.856  0.00  0.00    +0.007 A 
ATOM     15  C   UNL     1      -0.231  -2.494   2.820  0.00  0.00    +0.023 A 
BRANCH  10  16
ATOM     16  N   UNL     1       0.185  -2.789   0.461  0.00  0.00    -0.330 N 
BRANCH  16  18
ATOM     17  C   UNL     1      -0.746  -4.245  -1.269  0.00  0.00    +0.024 C 
ATOM     18  C   UNL     1      -0.307  -2.822  -0.918  0.00  0.00    +0.102 C 
ENDBRANCH  16  18
BRANCH  16  19
ATOM     19  C   UNL     1       1.603  -3.031   0.738  0.00  0.00    +0.102 C 
ATOM     20  C   UNL     1       2.364  -1.704   0.705  0.00  0.00    +0.024 C 
ENDBRANCH  16  19
ENDBRANCH  10  16
ENDBRANCH   1  13
BRANCH   3  21
ATOM     21  C   UNL     1      -5.826  -3.981   6.665  0.00  0.00    +0.436 C 
ATOM     22  F   UNL     1      -4.912  -4.909   7.175  0.00  0.00    -0.166 F 
ATOM     23  F   UNL     1      -6.781  -3.681   7.642  0.00  0.00    -0.166 F 
ATOM     24  F   UNL     1      -6.463  -4.522   5.542  0.00  0.00    -0.166 F 
ENDBRANCH   3  21
BRANCH   3  25
ATOM     25  O   UNL     1      -4.439  -2.146   7.410  0.00  0.00    -0.364 OA
ATOM     26  H   UNL     1      -5.043  -1.914   8.130  0.00  0.00    +0.212 HD
ENDBRANCH   3  25
BRANCH   2  27
ATOM     27  C   UNL     1      -4.704  -3.712   4.025  0.00  0.00    +0.179 C 
ATOM     28  O   UNL     1      -5.408  -3.074   3.269  0.00  0.00    -0.291 OA
BRANCH  27  29
ATOM     29  C   UNL     1      -4.506  -5.094   3.809  0.00  0.00    +0.055 A 
ATOM     30  C   UNL     1      -5.015  -5.906   2.800  0.00  0.00    +0.019 A 
ATOM     31  C   UNL     1      -4.642  -7.225   2.854  0.00  0.00    +0.008 A 
ATOM     32  C   UNL     1      -3.826  -7.641   3.856  0.00  0.00    +0.046 A 
ATOM     33  S   UNL     1      -3.533  -6.251   4.754  0.00  0.00    -0.094 S 
ENDBRANCH  27  29
ENDBRANCH   2  27
TORSDOF 8
