REMARK  Name = ZINC05343294
REMARK  4 active torsions:
REMARK  status: ('A' for Active; 'I' for Inactive)
REMARK    1  A    between atoms: C_1  and  C_2
REMARK    2  A    between atoms: C_13  and  C_24
REMARK    3  A    between atoms: C_19  and  N_23
REMARK    4  A    between atoms: C_20  and  C_21
REMARK                            x       y       z     vdW  Elec       q    Type
REMARK                         _______ _______ _______ _____ _____    ______ ____
ROOT
ATOM      1  C   UNL     1      -0.018   1.503   0.010  0.00  0.00    +0.045 C 
ATOM      2  C   UNL     1       0.002  -0.004   0.002  0.00  0.00    -0.029 A 
ATOM      3  C   UNL     1       0.006  -0.720  -1.185  0.00  0.00    +0.005 A 
ATOM      4  C   UNL     1       0.026  -2.099  -1.207  0.00  0.00    +0.001 A 
ATOM      5  C   UNL     1       0.041  -2.841  -0.031  0.00  0.00    +0.007 A 
ATOM      6  C   UNL     1       0.037  -2.138   1.153  0.00  0.00    -0.001 A 
ATOM      7  C   UNL     1       0.023  -0.737   1.189  0.00  0.00    +0.041 A 
ATOM      8  N   UNL     1       0.029  -0.289   2.498  0.00  0.00    -0.284 N 
ATOM      9  C   UNL     1       0.048  -1.309   3.382  0.00  0.00    +0.238 C 
ATOM     10  O   UNL     1       0.055  -1.216   4.591  0.00  0.00    -0.274 OA
ATOM     11  C   UNL     1       0.046  -2.591   2.578  0.00  0.00    +0.144 C 
ATOM     12  C   UNL     1       1.278  -3.391   2.893  0.00  0.00    +0.061 A 
ATOM     13  C   UNL     1       2.603  -2.985   2.974  0.00  0.00    +0.068 A 
ATOM     14  N   UNL     1       3.333  -4.032   3.279  0.00  0.00    -0.176 NA
ATOM     15  N   UNL     1       2.484  -5.144   3.401  0.00  0.00    -0.246 N 
ATOM     16  H   UNL     1       2.756  -6.049   3.619  0.00  0.00    +0.192 HD
ATOM     17  C   UNL     1       1.229  -4.732   3.161  0.00  0.00    +0.223 A 
ATOM     18  O   UNL     1       0.069  -5.435   3.163  0.00  0.00    -0.423 OA
ATOM     19  C   UNL     1      -1.088  -4.743   3.158  0.00  0.00    +0.201 C 
ATOM     20  C   UNL     1      -1.169  -3.418   2.895  0.00  0.00    +0.110 C 
ATOM     21  C   UNL     1       3.115  -1.585   2.751  0.00  0.00    +0.068 C 
ATOM     22  H   UNL     1       0.021   0.647   2.751  0.00  0.00    +0.155 HD
ENDROOT
BRANCH  19  23
ATOM     23  N   UNL     1      -2.249  -5.421   3.434  0.00  0.00    -0.328 N 
ATOM     24  H   UNL     1      -2.222  -6.372   3.625  0.00  0.00    +0.145 HD
ATOM     25  H   UNL     1      -3.097  -4.950   3.437  0.00  0.00    +0.145 HD
ENDBRANCH  19  23
BRANCH  20  26
ATOM     26  C   UNL     1      -2.453  -2.783   2.920  0.00  0.00    +0.102 C 
ATOM     27  N   UNL     1      -3.471  -2.280   2.939  0.00  0.00    -0.191 NA
ENDBRANCH  20  26
TORSDOF 2
