REMARK  Name = ZINC41006681
REMARK  8 active torsions:
REMARK  status: ('A' for Active; 'I' for Inactive)
REMARK    1  A    between atoms: C_1  and  C_2
REMARK    2  A    between atoms: C_2  and  O_37
REMARK    3  A    between atoms: C_6  and  C_28
REMARK    4  A    between atoms: C_8  and  C_21
REMARK    5  A    between atoms: C_10  and  C_12
REMARK    6  A    between atoms: N_14  and  C_15
REMARK    7  A    between atoms: C_25  and  O_27
REMARK    8  A    between atoms: N_30  and  C_31
REMARK                            x       y       z     vdW  Elec       q    Type
REMARK                         _______ _______ _______ _____ _____    ______ ____
ROOT
ATOM      1  C   UNL     1       1.065   1.937  -0.450  0.00  0.00    +0.042 C 
ATOM      2  C   UNL     1       0.586   0.485  -0.428  0.00  0.00    +0.082 C 
ATOM      3  C   UNL     1      -0.944   0.453  -0.347  0.00  0.00    +0.110 C 
ATOM      4  C   UNL     1      -1.388  -0.985  -0.192  0.00  0.00    +0.148 C 
ATOM      5  O   UNL     1      -2.228  -1.456  -0.920  0.00  0.00    -0.296 OA
ATOM      6  C   UNL     1      -0.751  -1.819   0.898  0.00  0.00    +0.149 C 
ATOM      7  C   UNL     1       0.772  -1.704   0.772  0.00  0.00    +0.053 C 
ATOM      8  C   UNL     1       1.174  -0.229   0.790  0.00  0.00    +0.115 C 
ENDROOT
BRANCH   7   9
ATOM      9  C   UNL     1       1.427  -2.419   1.926  0.00  0.00    -0.039 A 
ATOM     10  C   UNL     1       0.867  -2.350   3.188  0.00  0.00    +0.004 A 
ATOM     11  C   UNL     1       1.466  -3.004   4.249  0.00  0.00    +0.004 A 
ATOM     12  C   UNL     1       2.625  -3.728   4.050  0.00  0.00    +0.045 A 
ATOM     13  C   UNL     1       3.189  -3.799   2.784  0.00  0.00    +0.117 A 
ATOM     14  C   UNL     1       2.583  -3.146   1.720  0.00  0.00    +0.049 A 
BRANCH  13  15
ATOM     15  O   UNL     1       4.330  -4.511   2.586  0.00  0.00    -0.507 OA
ATOM     16  H   UNL     1       4.179  -5.438   2.355  0.00  0.00    +0.292 HD
ENDBRANCH  13  15
ENDBRANCH   7   9
BRANCH   8  17
ATOM     17  C   UNL     1       0.653   0.417   2.049  0.00  0.00    +0.224 C 
ATOM     18  O   UNL     1      -0.542   0.513   2.231  0.00  0.00    -0.275 OA
ATOM     19  N   UNL     1       1.516   0.887   2.972  0.00  0.00    -0.285 N 
ATOM     20  H   UNL     1       2.466   0.718   2.878  0.00  0.00    +0.155 HD
BRANCH  19  21
ATOM     21  C   UNL     1       1.040   1.620   4.065  0.00  0.00    +0.033 A 
ATOM     22  C   UNL     1      -0.248   1.404   4.539  0.00  0.00    +0.023 A 
ATOM     23  C   UNL     1      -0.714   2.129   5.618  0.00  0.00    +0.002 A 
ATOM     24  C   UNL     1       0.099   3.068   6.226  0.00  0.00    +0.000 A 
ATOM     25  C   UNL     1       1.381   3.285   5.755  0.00  0.00    +0.002 A 
ATOM     26  C   UNL     1       1.855   2.559   4.681  0.00  0.00    +0.023 A 
ENDBRANCH  19  21
ENDBRANCH   8  17
BRANCH   6  27
ATOM     27  C   UNL     1      -1.169  -3.258   0.744  0.00  0.00    +0.228 C 
ATOM     28  O   UNL     1      -0.331  -4.117   0.567  0.00  0.00    -0.275 OA
ATOM     29  N   UNL     1      -2.474  -3.591   0.803  0.00  0.00    -0.285 N 
ATOM     30  H   UNL     1      -3.151  -2.897   0.831  0.00  0.00    +0.155 HD
BRANCH  29  31
ATOM     31  C   UNL     1      -2.852  -4.938   0.824  0.00  0.00    +0.033 A 
ATOM     32  C   UNL     1      -4.056  -5.332   0.256  0.00  0.00    +0.023 A 
ATOM     33  C   UNL     1      -4.426  -6.662   0.279  0.00  0.00    +0.002 A 
ATOM     34  C   UNL     1      -3.599  -7.602   0.867  0.00  0.00    +0.000 A 
ATOM     35  C   UNL     1      -2.400  -7.213   1.434  0.00  0.00    +0.002 A 
ATOM     36  C   UNL     1      -2.021  -5.885   1.409  0.00  0.00    +0.023 A 
ENDBRANCH  29  31
ENDBRANCH   6  27
BRANCH   2  37
ATOM     37  O   UNL     1       1.014  -0.177  -1.620  0.00  0.00    -0.388 OA
ATOM     38  H   UNL     1       0.677   0.223  -2.434  0.00  0.00    +0.210 HD
ENDBRANCH   2  37
TORSDOF 7
