REMARK  Name = ZINC66575124
REMARK  4 active torsions:
REMARK  status: ('A' for Active; 'I' for Inactive)
REMARK    1  A    between atoms: C_5  and  C_7
REMARK    2  A    between atoms: C_8  and  S_9
REMARK    3  A    between atoms: S_9  and  N_12
REMARK    4  A    between atoms: N_12  and  C_13
REMARK                            x       y       z     vdW  Elec       q    Type
REMARK                         _______ _______ _______ _____ _____    ______ ____
ROOT
ATOM      1  S   UNL     1       0.145  -4.606  -0.027  0.00  0.00    +0.085 S 
ATOM      2  O   UNL     1      -0.753  -5.022  -1.046  0.00  0.00    -0.149 OA
ATOM      3  O   UNL     1       1.514  -4.987  -0.016  0.00  0.00    -0.149 OA
ENDROOT
BRANCH   1   5
ATOM      4  C   UNL     1       1.249  -2.160  -0.023  0.00  0.00    +0.030 C 
ATOM      5  C   UNL     1       0.113  -2.844  -0.016  0.00  0.00    +0.159 C 
BRANCH   4  10
ATOM      6  C   UNL     1      -0.017   1.375   0.010  0.00  0.00    +0.001 A 
ATOM      7  C   UNL     1       1.170   2.087   0.002  0.00  0.00    +0.001 A 
ATOM      8  C   UNL     1       2.382   1.422  -0.013  0.00  0.00    +0.020 A 
ATOM      9  C   UNL     1       2.416   0.041  -0.021  0.00  0.00    +0.048 A 
ATOM     10  C   UNL     1       1.221  -0.682  -0.014  0.00  0.00    -0.005 A 
ATOM     11  C   UNL     1       0.002  -0.004   0.002  0.00  0.00    +0.009 A 
ATOM     12 CL   UNL     1       3.938  -0.793  -0.042  0.00  0.00    -0.083 Cl
ENDBRANCH   4  10
ENDBRANCH   1   5
BRANCH   1  13
ATOM     13  N   UNL     1      -0.500  -5.116   1.410  0.00  0.00    -0.095 NA
BRANCH  13  14
ATOM     14  C   UNL     1      -0.603  -6.485   1.684  0.00  0.00    +0.112 A 
ATOM     15  C   UNL     1      -0.159  -7.415   0.754  0.00  0.00    +0.032 A 
ATOM     16  C   UNL     1      -0.262  -8.767   1.025  0.00  0.00    +0.043 A 
ATOM     17  C   UNL     1      -0.807  -9.195   2.223  0.00  0.00    +0.161 A 
ATOM     18  C   UNL     1      -1.250  -8.270   3.155  0.00  0.00    +0.195 A 
ATOM     19  C   UNL     1      -1.144  -6.915   2.890  0.00  0.00    +0.186 A 
ATOM     20  F   UNL     1      -1.571  -6.012   3.800  0.00  0.00    -0.200 F 
ATOM     21  F   UNL     1      -1.782  -8.690   4.324  0.00  0.00    -0.199 F 
ATOM     22  F   UNL     1      -0.906 -10.517   2.485  0.00  0.00    -0.202 F 
ENDBRANCH  13  14
ENDBRANCH   1  13
TORSDOF 4
