REMARK  Name = ZINC08508873
REMARK  4 active torsions:
REMARK  status: ('A' for Active; 'I' for Inactive)
REMARK    1  A    between atoms: C_1  and  C_2
REMARK    2  A    between atoms: C_5  and  C_7
REMARK    3  A    between atoms: C_22  and  C_24
REMARK    4  A    between atoms: C_22  and  C_25
REMARK                            x       y       z     vdW  Elec       q    Type
REMARK                         _______ _______ _______ _____ _____    ______ ____
ROOT
ATOM      1  C   UNL     1       1.593  -3.751   0.162  0.00  0.00    +0.126 C 
ATOM      2  C   UNL     1       2.574  -3.381   1.235  0.00  0.00    +0.045 A 
ATOM      3  C   UNL     1       2.136  -2.737   2.402  0.00  0.00    +0.126 A 
ATOM      4  N   UNL     1       3.015  -2.418   3.346  0.00  0.00    -0.208 NA
ATOM      5  C   UNL     1       4.307  -2.699   3.204  0.00  0.00    +0.180 A 
ATOM      6  S   UNL     1       5.403  -2.271   4.447  0.00  0.00    -0.011 S 
ATOM      7  N   UNL     1       4.767  -3.316   2.099  0.00  0.00    -0.322 N 
ATOM      8  C   UNL     1       3.902  -3.662   1.097  0.00  0.00    +0.110 A 
ATOM      9  N   UNL     1       4.362  -4.283  -0.038  0.00  0.00    -0.304 N 
ATOM     10  C   UNL     1       3.617  -4.279  -1.186  0.00  0.00    +0.017 C 
ATOM     11  C   UNL     1       2.293  -4.023  -1.146  0.00  0.00    +0.027 C 
ATOM     12  C   UNL     1       1.524  -4.001  -2.323  0.00  0.00    +0.162 C 
ATOM     13  O   UNL     1       0.333  -3.773  -2.252  0.00  0.00    -0.292 OA
ATOM     14  C   UNL     1       2.149  -4.254  -3.668  0.00  0.00    +0.086 C 
ATOM     15  C   UNL     1       3.617  -3.818  -3.626  0.00  0.00    -0.023 C 
ATOM     16  C   UNL     1       4.313  -4.573  -2.493  0.00  0.00    +0.058 C 
ATOM     17  C   UNL     1       4.292  -4.155  -4.957  0.00  0.00    +0.011 C 
ATOM     18  C   UNL     1       3.700  -2.312  -3.370  0.00  0.00    +0.011 C 
ATOM     19  N   UNL     1       0.801  -2.438   2.568  0.00  0.00    -0.343 N 
ATOM     20  H   UNL     1       5.224  -4.728  -0.026  0.00  0.00    +0.153 HD
ATOM     21  H   UNL     1       0.534  -1.732   3.179  0.00  0.00    +0.144 HD
ATOM     22  H   UNL     1       0.128  -2.932   2.075  0.00  0.00    +0.144 HD
ATOM     23  H   UNL     1       5.713  -3.514   2.013  0.00  0.00    +0.169 HD
ENDROOT
BRANCH   1  28
ATOM     24  C   UNL     1      -0.251   0.867  -0.680  0.00  0.00    +0.086 C 
ATOM     25  C   UNL     1      -0.185  -0.610  -0.393  0.00  0.00    +0.102 A 
ATOM     26  C   UNL     1      -1.240  -1.421  -0.196  0.00  0.00    +0.044 A 
ATOM     27  C   UNL     1      -0.723  -2.716   0.040  0.00  0.00    +0.046 A 
ATOM     28  C   UNL     1       0.617  -2.619  -0.027  0.00  0.00    +0.117 A 
ATOM     29  O   UNL     1       0.937  -1.342  -0.295  0.00  0.00    -0.464 OA
ENDBRANCH   1  28
TORSDOF 1
