REMARK  Name = ZINC45190909
REMARK  8 active torsions:
REMARK  status: ('A' for Active; 'I' for Inactive)
REMARK    1  A    between atoms: C_1  and  O_2
REMARK    2  A    between atoms: O_2  and  C_3
REMARK    3  A    between atoms: C_5  and  C_10
REMARK    4  A    between atoms: C_8  and  O_9
REMARK    5  A    between atoms: C_12  and  C_17
REMARK    6  A    between atoms: C_15  and  N_16
REMARK    7  A    between atoms: C_20  and  S_23
REMARK    8  A    between atoms: S_23  and  C_26
REMARK                            x       y       z     vdW  Elec       q    Type
REMARK                         _______ _______ _______ _____ _____    ______ ____
ROOT
ATOM      1  C   UNL     1       2.458   0.310   4.194  0.00  0.00    +0.022 A 
ATOM      2  C   UNL     1       2.187   0.026   5.530  0.00  0.00    +0.022 A 
ATOM      3  C   UNL     1       2.794   0.816   6.511  0.00  0.00    +0.001 A 
ATOM      4  C   UNL     1       3.642   1.850   6.122  0.00  0.00    +0.121 A 
ATOM      5  N   UNL     1       3.876   2.091   4.848  0.00  0.00    -0.240 NA
ATOM      6  C   UNL     1       3.328   1.366   3.886  0.00  0.00    +0.124 A 
ENDROOT
BRANCH   1   9
ATOM      7  C   UNL     1       0.626  -0.619   1.042  0.00  0.00    +0.162 A 
ATOM      8  C   UNL     1       1.201   0.137   2.049  0.00  0.00    +0.058 A 
ATOM      9  C   UNL     1       1.840  -0.496   3.113  0.00  0.00    -0.011 A 
ATOM     10  C   UNL     1       1.898  -1.888   3.160  0.00  0.00    +0.012 A 
ATOM     11  C   UNL     1       1.324  -2.638   2.154  0.00  0.00    +0.050 A 
ATOM     12  C   UNL     1       0.682  -2.009   1.098  0.00  0.00    +0.158 A 
BRANCH   7  14
ATOM     13  C   UNL     1      -0.017   1.425   0.010  0.00  0.00    +0.277 C 
ATOM     14  O   UNL     1       0.002  -0.004   0.002  0.00  0.00    -0.491 OA
ENDBRANCH   7  14
BRANCH  12  15
ATOM     15  O   UNL     1       0.112  -2.751   0.111  0.00  0.00    -0.503 OA
ATOM     16  H   UNL     1       0.708  -2.953  -0.624  0.00  0.00    +0.292 HD
ENDBRANCH  12  15
ENDBRANCH   1   9
BRANCH   3  17
ATOM     17  C   UNL     1       2.538   0.555   7.949  0.00  0.00    -0.016 A 
ATOM     18  C   UNL     1       1.693  -0.485   8.332  0.00  0.00    +0.010 A 
ATOM     19  C   UNL     1       1.458  -0.723   9.671  0.00  0.00    +0.027 A 
ATOM     20  C   UNL     1       2.061   0.069  10.632  0.00  0.00    +0.088 A 
ATOM     21  C   UNL     1       2.900   1.102  10.258  0.00  0.00    +0.027 A 
ATOM     22  C   UNL     1       3.146   1.346   8.922  0.00  0.00    +0.010 A 
BRANCH  20  23
ATOM     23  S   UNL     1       1.757  -0.241  12.340  0.00  0.00    -0.006 S 
ATOM     24  O   UNL     1       1.966   1.012  12.978  0.00  0.00    -0.170 OA
ATOM     25  O   UNL     1       0.482  -0.867  12.374  0.00  0.00    -0.170 OA
ATOM     26  C   UNL     1       3.044  -1.418  12.837  0.00  0.00    +0.200 C 
ENDBRANCH  20  23
ENDBRANCH   3  17
BRANCH   6  27
ATOM     27  N   UNL     1       3.612   1.657   2.559  0.00  0.00    -0.343 N 
ATOM     28  H   UNL     1       3.210   1.131   1.851  0.00  0.00    +0.144 HD
ATOM     29  H   UNL     1       4.213   2.386   2.341  0.00  0.00    +0.144 HD
ENDBRANCH   6  27
TORSDOF 6
