REMARK  Name = ZINC13942923
REMARK  10 active torsions:
REMARK  status: ('A' for Active; 'I' for Inactive)
REMARK    1  A    between atoms: C_1  and  C_2
REMARK    2  A    between atoms: C_3  and  C_22
REMARK    3  A    between atoms: C_4  and  C_10
REMARK    4  A    between atoms: C_13  and  O_18
REMARK    5  A    between atoms: C_14  and  O_16
REMARK    6  A    between atoms: O_16  and  C_17
REMARK    7  A    between atoms: O_18  and  C_19
REMARK    8  A    between atoms: C_19  and  C_20
REMARK    9  A    between atoms: C_19  and  C_21
REMARK   10  A    between atoms: N_24  and  C_25
REMARK                            x       y       z     vdW  Elec       q    Type
REMARK                         _______ _______ _______ _____ _____    ______ ____
ROOT
ATOM      1  C   UNL     1      -0.921   1.935   1.474  0.00  0.00    +0.061 C 
ATOM      2  C   UNL     1      -0.769   0.559   0.879  0.00  0.00    +0.017 C 
ATOM      3  C   UNL     1      -1.730   0.079   0.062  0.00  0.00    +0.056 C 
ATOM      4  C   UNL     1      -1.536  -1.310  -0.514  0.00  0.00    +0.139 C 
ATOM      5  N   UNL     1      -0.307  -2.025  -0.132  0.00  0.00    -0.315 N 
ATOM      6  C   UNL     1       0.561  -1.412   0.696  0.00  0.00    +0.135 C 
ATOM      7  S   UNL     1       1.994  -2.232   1.149  0.00  0.00    -0.019 S 
ATOM      8  N   UNL     1       0.342  -0.180   1.172  0.00  0.00    -0.300 N 
ATOM      9  H   UNL     1      -0.127  -2.917  -0.468  0.00  0.00    +0.149 HD
ATOM     10  H   UNL     1       1.008   0.209   1.761  0.00  0.00    +0.154 HD
ENDROOT
BRANCH   4  11
ATOM     11  C   UNL     1      -1.559  -1.196  -2.017  0.00  0.00    -0.019 A 
ATOM     12  C   UNL     1      -2.607  -1.744  -2.734  0.00  0.00    +0.009 A 
ATOM     13  C   UNL     1      -2.632  -1.642  -4.112  0.00  0.00    +0.050 A 
ATOM     14  C   UNL     1      -1.607  -0.990  -4.778  0.00  0.00    +0.162 A 
ATOM     15  C   UNL     1      -0.552  -0.439  -4.056  0.00  0.00    +0.162 A 
ATOM     16  C   UNL     1      -0.535  -0.540  -2.674  0.00  0.00    +0.055 A 
BRANCH  15  17
ATOM     17  O   UNL     1       0.456   0.202  -4.705  0.00  0.00    -0.491 OA
ATOM     18  C   UNL     1       1.440   0.850  -3.896  0.00  0.00    +0.277 C 
ENDBRANCH  15  17
BRANCH  14  19
ATOM     19  O   UNL     1      -1.630  -0.890  -6.134  0.00  0.00    -0.486 OA
BRANCH  19  20
ATOM     20  C   UNL     1      -2.706  -1.539  -6.814  0.00  0.00    +0.167 C 
ATOM     21  C   UNL     1      -3.941  -0.636  -6.792  0.00  0.00    +0.051 C 
ATOM     22  C   UNL     1      -2.301  -1.814  -8.264  0.00  0.00    +0.051 C 
ENDBRANCH  19  20
ENDBRANCH  14  19
ENDBRANCH   4  11
BRANCH   3  23
ATOM     23  C   UNL     1      -2.880   0.846  -0.246  0.00  0.00    +0.248 C 
ATOM     24  O   UNL     1      -2.965   1.997   0.141  0.00  0.00    -0.270 OA
ATOM     25  N   UNL     1      -3.879   0.301  -0.968  0.00  0.00    -0.282 N 
ATOM     26  H   UNL     1      -3.861  -0.644  -1.186  0.00  0.00    +0.155 HD
BRANCH  25  27
ATOM     27  C   UNL     1      -4.943   1.099  -1.402  0.00  0.00    +0.034 A 
ATOM     28  C   UNL     1      -4.720   2.422  -1.759  0.00  0.00    +0.023 A 
ATOM     29  C   UNL     1      -5.773   3.207  -2.187  0.00  0.00    +0.002 A 
ATOM     30  C   UNL     1      -7.048   2.676  -2.261  0.00  0.00    +0.000 A 
ATOM     31  C   UNL     1      -7.273   1.359  -1.905  0.00  0.00    +0.002 A 
ATOM     32  C   UNL     1      -6.224   0.567  -1.482  0.00  0.00    +0.023 A 
ENDBRANCH  25  27
ENDBRANCH   3  23
TORSDOF 6
