REMARK  Name = ZINC10226993
REMARK  15 active torsions:
REMARK  status: ('A' for Active; 'I' for Inactive)
REMARK    1  A    between atoms: C_1  and  C_2
REMARK    2  A    between atoms: C_2  and  C_3
REMARK    3  A    between atoms: C_2  and  C_4
REMARK    4  A    between atoms: C_4  and  N_5
REMARK    5  A    between atoms: C_6  and  N_35
REMARK    6  A    between atoms: C_7  and  N_14
REMARK    7  A    between atoms: N_14  and  C_15
REMARK    8  A    between atoms: C_15  and  C_16
REMARK    9  A    between atoms: C_16  and  C_17
REMARK   10  A    between atoms: C_16  and  C_18
REMARK   11  A    between atoms: C_19  and  C_21
REMARK   12  A    between atoms: C_21  and  N_71
REMARK   13  A    between atoms: C_25  and  C_27
REMARK   14  A    between atoms: C_31  and  O_33
REMARK   15  A    between atoms: O_33  and  C_34
REMARK                            x       y       z     vdW  Elec       q    Type
REMARK                         _______ _______ _______ _____ _____    ______ ____
ROOT
ATOM      1  N   UNL     1      -2.929   1.380  -4.863  0.00  0.00    -0.266 N 
ATOM      2  C   UNL     1      -3.414   1.068  -3.643  0.00  0.00    +0.203 C 
ATOM      3  O   UNL     1      -4.461   0.463  -3.543  0.00  0.00    -0.277 OA
ENDROOT
BRANCH   1   6
ATOM      4  N   UNL     1      -4.371  -0.855  -7.398  0.00  0.00    -0.280 N 
ATOM      5  C   UNL     1      -3.725  -0.435  -6.259  0.00  0.00    +0.127 A 
ATOM      6  C   UNL     1      -3.587   0.918  -6.023  0.00  0.00    +0.140 A 
ATOM      7  C   UNL     1      -4.118   1.828  -6.956  0.00  0.00    +0.277 A 
ATOM      8  O   UNL     1      -4.014   3.029  -6.769  0.00  0.00    -0.266 OA
ATOM      9  N   UNL     1      -4.737   1.364  -8.059  0.00  0.00    -0.273 N 
ATOM     10  H   UNL     1      -5.108   2.009  -8.726  0.00  0.00    +0.173 HD
ATOM     11  C   UNL     1      -4.862   0.042  -8.272  0.00  0.00    +0.331 A 
ATOM     12  O   UNL     1      -5.430  -0.350  -9.274  0.00  0.00    -0.246 OA
BRANCH   5  13
ATOM     13  N   UNL     1      -3.223  -1.351  -5.366  0.00  0.00    -0.343 N 
ATOM     14  H   UNL     1      -2.701  -1.052  -4.606  0.00  0.00    +0.144 HD
ATOM     15  H   UNL     1      -3.391  -2.297  -5.496  0.00  0.00    +0.144 HD
ENDBRANCH   5  13
BRANCH   4  16
ATOM     16  C   UNL     1      -4.524  -2.288  -7.662  0.00  0.00    +0.131 C 
BRANCH  16  18
ATOM     17  C   UNL     1      -7.015  -2.114  -7.746  0.00  0.00    +0.009 C 
ATOM     18  C   UNL     1      -5.833  -2.783  -7.043  0.00  0.00    +0.003 C 
ATOM     19  C   UNL     1      -5.933  -4.301  -7.209  0.00  0.00    +0.009 C 
ENDBRANCH  16  18
ENDBRANCH   4  16
ENDBRANCH   1   6
BRANCH   1  20
ATOM     20  C   UNL     1      -1.721   2.200  -4.984  0.00  0.00    +0.117 C 
BRANCH  20  21
ATOM     21  C   UNL     1      -0.485   1.302  -4.899  0.00  0.00    +0.001 C 
ATOM     22  C   UNL     1      -0.443   0.377  -6.118  0.00  0.00    +0.009 C 
ATOM     23  C   UNL     1       0.775   2.169  -4.873  0.00  0.00    +0.009 C 
ENDBRANCH  20  21
ENDBRANCH   1  20
BRANCH   2  24
ATOM     24  C   UNL     1      -2.655   1.471  -2.405  0.00  0.00    +0.020 C 
BRANCH  24  29
ATOM     25  C   UNL     1      -4.580   1.867  -0.963  0.00  0.00    -0.077 C 
ATOM     26  C   UNL     1      -4.907   1.650   0.530  0.00  0.00    -0.020 C 
ATOM     27  C   UNL     1      -3.579   1.198   1.170  0.00  0.00    -0.013 C 
ATOM     28  C   UNL     1      -2.560   1.181   0.011  0.00  0.00    -0.037 C 
ATOM     29  N   UNL     1      -3.400   1.031  -1.183  0.00  0.00    +0.390 N 
ATOM     30  H   UNL     1      -3.682   0.050  -1.294  0.00  0.00    -0.080 HD
BRANCH  28  31
ATOM     31  C   UNL     1      -1.610   0.021   0.163  0.00  0.00    -0.057 A 
ATOM     32  C   UNL     1      -2.023  -1.258  -0.164  0.00  0.00    +0.002 A 
ATOM     33  C   UNL     1      -1.153  -2.324  -0.031  0.00  0.00    +0.004 A 
ATOM     34  C   UNL     1       0.132  -2.114   0.430  0.00  0.00    +0.045 A 
ATOM     35  C   UNL     1       0.550  -0.832   0.758  0.00  0.00    +0.120 A 
ATOM     36  C   UNL     1      -0.326   0.236   0.623  0.00  0.00    +0.047 A 
BRANCH  35  37
ATOM     37  O   UNL     1       1.813  -0.623   1.212  0.00  0.00    -0.495 OA
ATOM     38  C   UNL     1       2.659  -1.769   1.326  0.00  0.00    +0.277 C 
ENDBRANCH  35  37
ENDBRANCH  28  31
ENDBRANCH  24  29
ENDBRANCH   2  24
TORSDOF 10
