REMARK  Name = ZINC22740764
REMARK  9 active torsions:
REMARK  status: ('A' for Active; 'I' for Inactive)
REMARK    1  A    between atoms: C_1  and  C_2
REMARK    2  A    between atoms: C_4  and  N_18
REMARK    3  A    between atoms: C_6  and  C_9
REMARK    4  A    between atoms: C_7  and  O_8
REMARK    5  A    between atoms: N_18  and  C_19
REMARK    6  A    between atoms: C_19  and  N_21
REMARK    7  A    between atoms: C_22  and  C_24
REMARK    8  A    between atoms: C_33  and  O_34
REMARK    9  A    between atoms: O_34  and  C_35
REMARK                            x       y       z     vdW  Elec       q    Type
REMARK                         _______ _______ _______ _____ _____    ______ ____
ROOT
ATOM      1  N   UNL     1       0.028  -2.760  -2.438  0.00  0.00    -0.297 N 
ATOM      2  H   UNL     1       0.103  -3.728  -2.453  0.00  0.00    +0.154 HD
ENDROOT
BRANCH   1   6
ATOM      3  C   UNL     1      -1.557  -2.373   2.200  0.00  0.00    +0.047 C 
ATOM      4  C   UNL     1      -0.720  -1.866   1.054  0.00  0.00    -0.007 A 
ATOM      5  C   UNL     1      -0.727  -2.536  -0.154  0.00  0.00    +0.030 A 
ATOM      6  C   UNL     1       0.041  -2.075  -1.217  0.00  0.00    +0.034 A 
ATOM      7  C   UNL     1       0.821  -0.939  -1.070  0.00  0.00    +0.040 A 
ATOM      8  C   UNL     1       0.833  -0.258   0.148  0.00  0.00    +0.080 A 
ATOM      9  C   UNL     1       0.051  -0.726   1.213  0.00  0.00    +0.132 A 
BRANCH   8  10
ATOM     10  C   UNL     1       1.661   0.953   0.312  0.00  0.00    +0.232 A 
ATOM     11  N   UNL     1       1.748   1.660   1.411  0.00  0.00    -0.209 NA
ATOM     12  C   UNL     1       2.598   2.697   1.197  0.00  0.00    +0.110 A 
ATOM     13  C   UNL     1       3.057   3.748   1.994  0.00  0.00    +0.031 A 
ATOM     14  C   UNL     1       3.941   4.666   1.472  0.00  0.00    +0.002 A 
ATOM     15  C   UNL     1       4.377   4.553   0.160  0.00  0.00    +0.004 A 
ATOM     16  C   UNL     1       3.932   3.520  -0.639  0.00  0.00    +0.048 A 
ATOM     17  C   UNL     1       3.042   2.587  -0.131  0.00  0.00    +0.156 A 
ATOM     18  O   UNL     1       2.443   1.489  -0.644  0.00  0.00    -0.435 OA
ENDBRANCH   8  10
BRANCH   9  19
ATOM     19  O   UNL     1       0.053  -0.066   2.400  0.00  0.00    -0.506 OA
ATOM     20  H   UNL     1       0.731  -0.370   3.018  0.00  0.00    +0.292 HD
ENDBRANCH   9  19
ENDBRANCH   1   6
BRANCH   1  21
ATOM     21  C   UNL     1      -0.089  -2.077  -3.594  0.00  0.00    +0.141 C 
ATOM     22  S   UNL     1      -0.113  -0.365  -3.576  0.00  0.00    -0.018 S 
BRANCH  21  23
ATOM     23  N   UNL     1      -0.188  -2.740  -4.763  0.00  0.00    -0.263 N 
ATOM     24  C   UNL     1      -0.305  -2.056  -5.918  0.00  0.00    +0.253 C 
ATOM     25  O   UNL     1      -0.322  -0.841  -5.906  0.00  0.00    -0.270 OA
ATOM     26  H   UNL     1      -0.174  -3.710  -4.772  0.00  0.00    +0.157 HD
BRANCH  24  27
ATOM     27  C   UNL     1      -0.413  -2.783  -7.197  0.00  0.00    +0.079 A 
ATOM     28  C   UNL     1      -0.399  -4.168  -7.206  0.00  0.00    +0.025 A 
ATOM     29  C   UNL     1      -0.502  -4.853  -8.425  0.00  0.00    -0.017 A 
ATOM     30  C   UNL     1      -0.491  -6.259  -8.470  0.00  0.00    +0.008 A 
ATOM     31  C   UNL     1      -0.593  -6.895  -9.669  0.00  0.00    +0.001 A 
ATOM     32  C   UNL     1      -0.709  -6.174 -10.856  0.00  0.00    +0.001 A 
ATOM     33  C   UNL     1      -0.722  -4.813 -10.852  0.00  0.00    +0.008 A 
ATOM     34  C   UNL     1      -0.619  -4.119  -9.633  0.00  0.00    -0.014 A 
ATOM     35  C   UNL     1      -0.631  -2.715  -9.598  0.00  0.00    +0.055 A 
ATOM     36  C   UNL     1      -0.535  -2.062  -8.405  0.00  0.00    +0.133 A 
BRANCH  36  37
ATOM     37  O   UNL     1      -0.553  -0.705  -8.378  0.00  0.00    -0.494 OA
ATOM     38  C   UNL     1      -0.679  -0.033  -9.633  0.00  0.00    +0.277 C 
ENDBRANCH  36  37
ENDBRANCH  24  27
ENDBRANCH  21  23
ENDBRANCH   1  21
TORSDOF 7
