REMARK  Name = ZINC06960131
REMARK  10 active torsions:
REMARK  status: ('A' for Active; 'I' for Inactive)
REMARK    1  A    between atoms: C_1  and  C_2
REMARK    2  A    between atoms: C_2  and  O_3
REMARK    3  A    between atoms: O_3  and  C_4
REMARK    4  A    between atoms: C_6  and  C_11
REMARK    5  A    between atoms: C_9  and  O_10
REMARK    6  A    between atoms: C_13  and  C_20
REMARK    7  A    between atoms: C_14  and  C_19
REMARK    8  A    between atoms: N_22  and  C_23
REMARK    9  A    between atoms: C_27  and  O_29
REMARK   10  A    between atoms: O_29  and  C_30
REMARK                            x       y       z     vdW  Elec       q    Type
REMARK                         _______ _______ _______ _____ _____    ______ ____
ROOT
ATOM      1  C   UNL     1      -5.136  -3.913   0.155  0.00  0.00    +0.139 C 
ATOM      2  C   UNL     1      -3.917  -4.813   0.189  0.00  0.00    +0.056 C 
ATOM      3  C   UNL     1      -4.122  -6.146   0.257  0.00  0.00    +0.017 C 
ATOM      4  N   UNL     1      -5.386  -6.664   0.289  0.00  0.00    -0.300 N 
ATOM      5  C   UNL     1      -6.496  -5.916   0.256  0.00  0.00    +0.135 C 
ATOM      6  S   UNL     1      -8.020  -6.694   0.302  0.00  0.00    -0.019 S 
ATOM      7  N   UNL     1      -6.453  -4.571   0.188  0.00  0.00    -0.315 N 
ATOM      8  C   UNL     1      -2.938  -7.076   0.299  0.00  0.00    +0.061 C 
ATOM      9  H   UNL     1      -5.484  -7.627   0.339  0.00  0.00    +0.154 HD
ATOM     10  H   UNL     1      -7.270  -4.048   0.165  0.00  0.00    +0.149 HD
ENDROOT
BRANCH   1  13
ATOM     11  C   UNL     1      -4.636  -0.780   2.207  0.00  0.00    +0.162 A 
ATOM     12  C   UNL     1      -4.709  -1.648   1.129  0.00  0.00    +0.055 A 
ATOM     13  C   UNL     1      -5.051  -2.972   1.329  0.00  0.00    -0.019 A 
ATOM     14  C   UNL     1      -5.311  -3.437   2.605  0.00  0.00    +0.009 A 
ATOM     15  C   UNL     1      -5.234  -2.578   3.686  0.00  0.00    +0.049 A 
ATOM     16  C   UNL     1      -4.896  -1.248   3.491  0.00  0.00    +0.158 A 
BRANCH  16  17
ATOM     17  O   UNL     1      -4.820  -0.403   4.554  0.00  0.00    -0.503 OA
ATOM     18  H   UNL     1      -3.943  -0.360   4.960  0.00  0.00    +0.292 HD
ENDBRANCH  16  17
BRANCH  11  19
ATOM     19  O   UNL     1      -4.304   0.524   2.011  0.00  0.00    -0.489 OA
BRANCH  19  21
ATOM     20  C   UNL     1      -3.688   2.418   0.642  0.00  0.00    +0.048 C 
ATOM     21  C   UNL     1      -4.129   0.953   0.659  0.00  0.00    +0.226 C 
ENDBRANCH  19  21
ENDBRANCH  11  19
ENDBRANCH   1  13
BRANCH   2  22
ATOM     22  C   UNL     1      -2.608  -4.274   0.156  0.00  0.00    +0.248 C 
ATOM     23  O   UNL     1      -2.118  -3.929  -0.904  0.00  0.00    -0.270 OA
ATOM     24  N   UNL     1      -1.904  -4.144   1.298  0.00  0.00    -0.282 N 
ATOM     25  H   UNL     1      -2.240  -4.532   2.121  0.00  0.00    +0.155 HD
BRANCH  24  26
ATOM     26  C   UNL     1      -0.690  -3.451   1.296  0.00  0.00    +0.037 A 
ATOM     27  C   UNL     1       0.116  -3.463   0.164  0.00  0.00    +0.023 A 
ATOM     28  C   UNL     1       1.315  -2.777   0.162  0.00  0.00    +0.005 A 
ATOM     29  C   UNL     1       1.714  -2.073   1.282  0.00  0.00    +0.046 A 
ATOM     30  C   UNL     1       0.915  -2.062   2.417  0.00  0.00    +0.122 A 
ATOM     31  C   UNL     1      -0.289  -2.748   2.424  0.00  0.00    +0.069 A 
BRANCH  30  32
ATOM     32  O   UNL     1       1.311  -1.373   3.520  0.00  0.00    -0.495 OA
ATOM     33  C   UNL     1       2.563  -0.688   3.442  0.00  0.00    +0.277 C 
ENDBRANCH  30  32
ENDBRANCH  24  26
ENDBRANCH   2  22
TORSDOF 7
