REMARK  Name = ZINC39953073
REMARK  5 active torsions:
REMARK  status: ('A' for Active; 'I' for Inactive)
REMARK    1  A    between atoms: C_3  and  S_8
REMARK    2  A    between atoms: S_8  and  N_11
REMARK    3  A    between atoms: N_11  and  C_12
REMARK    4  A    between atoms: C_18  and  C_19
REMARK    5  A    between atoms: N_21  and  C_22
REMARK                            x       y       z     vdW  Elec       q    Type
REMARK                         _______ _______ _______ _____ _____    ______ ____
ROOT
ATOM      1  C   UNL     1       5.002   2.472   2.659  0.00  0.00    +0.220 C 
ATOM      2  N   UNL     1       4.780   2.486   4.122  0.00  0.00    -0.322 N 
ATOM      3  C   UNL     1       5.407   1.533   4.842  0.00  0.00    +0.021 C 
ATOM      4  C   UNL     1       6.656   0.919   4.231  0.00  0.00    +0.122 C 
ATOM      5  S   UNL     1       6.698   1.750   2.584  0.00  0.00    -0.116 S 
ATOM      6  C   UNL     1       4.947   1.144   6.050  0.00  0.00    +0.087 C 
ATOM      7  H   UNL     1       4.211   3.149   4.542  0.00  0.00    +0.148 HD
ENDROOT
BRANCH   6   8
ATOM      8  C   UNL     1       3.706   1.628   6.523  0.00  0.00    +0.243 C 
ATOM      9  O   UNL     1       3.010   2.323   5.805  0.00  0.00    -0.270 OA
ATOM     10  N   UNL     1       3.293   1.320   7.768  0.00  0.00    -0.282 N 
ATOM     11  H   UNL     1       3.877   0.826   8.364  0.00  0.00    +0.155 HD
BRANCH  10  12
ATOM     12  C   UNL     1       2.034   1.710   8.197  0.00  0.00    +0.034 C 
ATOM     13  C   UNL     1       1.901   2.559   9.287  0.00  0.00    +0.029 C 
ATOM     14  C   UNL     1       0.587   2.929   9.593  0.00  0.00    -0.016 C 
ATOM     15  C   UNL     1      -0.030   3.245  10.749  0.00  0.00    +0.025 C 
ATOM     16  C   UNL     1      -1.423   3.264  10.545  0.00  0.00    +0.106 C 
ATOM     17  N   UNL     1      -1.741   3.071   9.294  0.00  0.00    -0.279 NA
ATOM     18  C   UNL     1      -0.501   2.996   8.534  0.00  0.00    +0.158 C 
ATOM     19  C   UNL     1      -0.364   1.789   7.657  0.00  0.00    +0.006 C 
ATOM     20  C   UNL     1       0.837   1.232   7.498  0.00  0.00    +0.021 C 
ENDBRANCH  10  12
ENDBRANCH   6   8
BRANCH   1  21
ATOM     21  N   UNL     1       4.978   3.828   2.105  0.00  0.00    -0.161 NA
ATOM     22  H   UNL     1       5.211   4.585   2.666  0.00  0.00    +0.151 HD
BRANCH  21  23
ATOM     23  S   UNL     1       4.555   4.069   0.523  0.00  0.00    +0.061 S 
ATOM     24  O   UNL     1       5.318   3.150  -0.247  0.00  0.00    -0.153 OA
ATOM     25  O   UNL     1       4.601   5.472   0.299  0.00  0.00    -0.153 OA
BRANCH  23  28
ATOM     26  C   UNL     1       0.539   4.139   0.421  0.00  0.00    +0.040 A 
ATOM     27  C   UNL     1       1.862   4.515   0.552  0.00  0.00    +0.031 A 
ATOM     28  C   UNL     1       2.868   3.588   0.355  0.00  0.00    +0.106 A 
ATOM     29  C   UNL     1       2.552   2.283   0.027  0.00  0.00    +0.031 A 
ATOM     30  C   UNL     1       1.230   1.904  -0.105  0.00  0.00    +0.040 A 
ATOM     31  C   UNL     1       0.221   2.832   0.093  0.00  0.00    +0.124 A 
ATOM     32  F   UNL     1      -1.072   2.462  -0.035  0.00  0.00    -0.205 F 
ENDBRANCH  23  28
ENDBRANCH  21  23
ENDBRANCH   1  21
TORSDOF 5
