REMARK  Name = ZINC61749255
REMARK  9 active torsions:
REMARK  status: ('A' for Active; 'I' for Inactive)
REMARK    1  A    between atoms: C_1  and  C_2
REMARK    2  A    between atoms: C_2  and  C_3
REMARK    3  A    between atoms: C_2  and  C_4
REMARK    4  A    between atoms: C_4  and  C_5
REMARK    5  A    between atoms: N_7  and  C_8
REMARK    6  A    between atoms: C_11  and  N_14
REMARK    7  A    between atoms: N_17  and  C_18
REMARK    8  A    between atoms: N_21  and  C_24
REMARK    9  A    between atoms: C_24  and  C_25
REMARK                            x       y       z     vdW  Elec       q    Type
REMARK                         _______ _______ _______ _____ _____    ______ ____
ROOT
ATOM      1  N   UNL     1      -1.927  -8.427  -0.668  0.00  0.00    -0.269 N 
ATOM      2  C   UNL     1      -3.045  -9.161  -0.834  0.00  0.00    +0.304 C 
ATOM      3  O   UNL     1      -4.123  -8.610  -0.945  0.00  0.00    -0.253 OA
ATOM      4  N   UNL     1      -2.967 -10.506  -0.877  0.00  0.00    -0.296 N 
ATOM      5  H   UNL     1      -1.076  -8.866  -0.511  0.00  0.00    +0.156 HD
ATOM      6  H   UNL     1      -2.107 -10.945  -0.789  0.00  0.00    +0.151 HD
ENDROOT
BRANCH   4   7
ATOM      7  C   UNL     1      -4.182 -11.304  -1.059  0.00  0.00    +0.071 C 
ATOM      8  C   UNL     1      -4.846 -11.542   0.301  0.00  0.00    +0.004 C 
ATOM      9  C   UNL     1      -6.069 -12.442   0.115  0.00  0.00    -0.077 C 
ATOM     10  N   UNL     1      -5.653 -13.727  -0.460  0.00  0.00    +0.383 N 
ATOM     11  C   UNL     1      -5.081 -13.514  -1.795  0.00  0.00    -0.077 C 
ATOM     12  C   UNL     1      -3.819 -12.655  -1.682  0.00  0.00    +0.004 C 
ATOM     13  H   UNL     1      -4.960 -14.153   0.137  0.00  0.00    -0.082 HD
BRANCH  10  14
ATOM     14  C   UNL     1      -6.818 -14.616  -0.565  0.00  0.00    -0.006 C 
BRANCH  14  15
ATOM     15  C   UNL     1      -7.299 -14.993   0.838  0.00  0.00    +0.325 C 
ATOM     16  F   UNL     1      -6.229 -15.516   1.572  0.00  0.00    -0.211 F 
ATOM     17  F   UNL     1      -7.795 -13.855   1.483  0.00  0.00    -0.211 F 
ENDBRANCH  14  15
ENDBRANCH  10  14
ENDBRANCH   4   7
BRANCH   1  21
ATOM     18  C   UNL     1      -2.124  -4.264  -0.824  0.00  0.00    +0.033 A 
ATOM     19  C   UNL     1      -1.009  -4.925  -1.321  0.00  0.00    +0.025 A 
ATOM     20  C   UNL     1      -0.944  -6.303  -1.270  0.00  0.00    +0.025 A 
ATOM     21  C   UNL     1      -1.993  -7.028  -0.720  0.00  0.00    +0.035 A 
ATOM     22  C   UNL     1      -3.108  -6.367  -0.223  0.00  0.00    +0.025 A 
ATOM     23  C   UNL     1      -3.171  -4.988  -0.269  0.00  0.00    +0.025 A 
BRANCH  18  26
ATOM     24  C   UNL     1      -2.783  -2.181   0.122  0.00  0.00    +0.217 C 
ATOM     25  O   UNL     1      -3.332  -2.778   1.024  0.00  0.00    -0.275 OA
ATOM     26  N   UNL     1      -2.191  -2.866  -0.877  0.00  0.00    -0.285 N 
ATOM     27  H   UNL     1      -1.811  -2.390  -1.632  0.00  0.00    +0.155 HD
BRANCH  24  28
ATOM     28  C   UNL     1      -2.762  -0.674   0.118  0.00  0.00    +0.099 C 
BRANCH  28  30
ATOM     29  C   UNL     1      -3.371   1.373   1.415  0.00  0.00    +0.008 C 
ATOM     30  C   UNL     1      -3.498  -0.151   1.353  0.00  0.00    -0.008 C 
ATOM     31  C   UNL     1      -4.976  -0.536   1.267  0.00  0.00    +0.008 C 
ENDBRANCH  28  30
ENDBRANCH  24  28
ENDBRANCH  18  26
ENDBRANCH   1  21
TORSDOF 7
