REMARK  Name = ZINC01257985
REMARK  4 active torsions:
REMARK  status: ('A' for Active; 'I' for Inactive)
REMARK    1  A    between atoms: C_1  and  C_2
REMARK    2  A    between atoms: C_2  and  C_26
REMARK    3  A    between atoms: C_6  and  C_16
REMARK    4  A    between atoms: C_20  and  O_22
REMARK                            x       y       z     vdW  Elec       q    Type
REMARK                         _______ _______ _______ _____ _____    ______ ____
ROOT
ATOM      1  C   UNL     1       6.523   1.017  -0.669  0.00  0.00    +0.011 C 
ATOM      2  C   UNL     1       5.852   0.430  -1.913  0.00  0.00    -0.023 C 
ATOM      3  C   UNL     1       4.412   0.035  -1.588  0.00  0.00    +0.058 C 
ATOM      4  C   UNL     1       3.636   1.256  -1.119  0.00  0.00    +0.017 C 
ATOM      5  C   UNL     1       3.913   2.469  -1.623  0.00  0.00    +0.036 C 
ATOM      6  C   UNL     1       3.200   3.756  -1.279  0.00  0.00    +0.136 C 
ATOM      7  N   UNL     1       2.322   3.663  -0.132  0.00  0.00    -0.331 N 
ATOM      8  C   UNL     1       1.194   2.845  -0.153  0.00  0.00    +0.049 A 
ATOM      9  C   UNL     1      -0.086   3.376  -0.115  0.00  0.00    +0.025 A 
ATOM     10  C   UNL     1      -1.177   2.531  -0.214  0.00  0.00    +0.002 A 
ATOM     11  C   UNL     1      -0.996   1.166  -0.347  0.00  0.00    +0.002 A 
ATOM     12  C   UNL     1       0.280   0.629  -0.354  0.00  0.00    +0.025 A 
ATOM     13  C   UNL     1       1.372   1.473  -0.251  0.00  0.00    +0.052 A 
ATOM     14  N   UNL     1       2.677   0.996  -0.194  0.00  0.00    -0.316 N 
ATOM     15  C   UNL     1       4.956   2.629  -2.566  0.00  0.00    +0.163 C 
ATOM     16  O   UNL     1       5.170   3.736  -3.020  0.00  0.00    -0.292 OA
ATOM     17  C   UNL     1       5.807   1.484  -3.026  0.00  0.00    +0.086 C 
ATOM     18  C   UNL     1       6.630  -0.797  -2.393  0.00  0.00    +0.011 C 
ATOM     19  H   UNL     1       2.540   4.245   0.776  0.00  0.00    +0.147 HD
ATOM     20  H   UNL     1       2.910   0.367   0.677  0.00  0.00    +0.152 HD
ENDROOT
BRANCH   6  21
ATOM     21  C   UNL     1       2.382   4.184  -2.470  0.00  0.00    -0.019 A 
ATOM     22  C   UNL     1       2.672   5.371  -3.116  0.00  0.00    +0.006 A 
ATOM     23  C   UNL     1       1.924   5.766  -4.210  0.00  0.00    +0.004 A 
ATOM     24  C   UNL     1       0.885   4.974  -4.660  0.00  0.00    +0.045 A 
ATOM     25  C   UNL     1       0.592   3.783  -4.013  0.00  0.00    +0.117 A 
ATOM     26  C   UNL     1       1.347   3.386  -2.918  0.00  0.00    +0.051 A 
BRANCH  25  27
ATOM     27  O   UNL     1      -0.430   3.003  -4.453  0.00  0.00    -0.507 OA
ATOM     28  H   UNL     1      -0.661   2.058  -3.940  0.00  0.00    +0.292 HD
ENDBRANCH  25  27
ENDBRANCH   6  21
TORSDOF 2
