REMARK  Name = ZINC62164724
REMARK  4 active torsions:
REMARK  status: ('A' for Active; 'I' for Inactive)
REMARK    1  A    between atoms: C_3  and  S_28
REMARK    2  A    between atoms: C_6  and  N_7
REMARK    3  A    between atoms: C_8  and  C_10
REMARK    4  A    between atoms: S_28  and  N_31
REMARK                            x       y       z     vdW  Elec       q    Type
REMARK                         _______ _______ _______ _____ _____    ______ ____
ROOT
ATOM      1  C   UNL     1      -2.474  -2.822  -0.194  0.00  0.00    +0.093 C 
ATOM      2  C   UNL     1      -2.177  -4.319  -0.314  0.00  0.00    +0.016 C 
ATOM      3  C   UNL     1      -3.490  -5.090  -0.462  0.00  0.00    +0.020 C 
ATOM      4  C   UNL     1      -4.353  -4.867   0.784  0.00  0.00    +0.106 C 
ATOM      5  N   UNL     1      -4.522  -3.422   0.989  0.00  0.00    -0.313 N 
ATOM      6  C   UNL     1      -3.325  -2.572   1.055  0.00  0.00    +0.119 C 
ATOM      7  C   UNL     1      -5.793  -2.868   1.118  0.00  0.00    +0.144 A 
ATOM      8  C   UNL     1      -6.905  -3.696   1.271  0.00  0.00    +0.049 A 
ATOM      9  C   UNL     1      -8.147  -3.098   1.395  0.00  0.00    +0.052 A 
ATOM     10  C   UNL     1      -8.209  -1.706   1.359  0.00  0.00    +0.161 A 
ATOM     11  N   UNL     1      -7.101  -1.000   1.210  0.00  0.00    -0.129 NA
ATOM     12  N   UNL     1      -5.948  -1.553   1.100  0.00  0.00    -0.132 NA
ATOM     13  N   UNL     1      -9.444  -1.056   1.480  0.00  0.00    -0.289 N 
ATOM     14  C   UNL     1      -9.671   0.292   1.363  0.00  0.00    +0.114 A 
ATOM     15  C   UNL     1     -10.990   0.483   1.549  0.00  0.00    +0.130 A 
ATOM     16  N   UNL     1     -11.559  -0.711   1.775  0.00  0.00    -0.244 NA
ATOM     17  C   UNL     1     -10.644  -1.641   1.731  0.00  0.00    +0.205 A 
ENDROOT
BRANCH   1  19
ATOM     18  N   UNL     1      -1.195  -0.718   0.037  0.00  0.00    -0.285 N 
ATOM     19  C   UNL     1      -1.179  -2.060  -0.081  0.00  0.00    +0.222 C 
ATOM     20  O   UNL     1      -0.122  -2.655  -0.096  0.00  0.00    -0.275 OA
ATOM     21  H   UNL     1      -2.039  -0.248   0.124  0.00  0.00    +0.155 HD
BRANCH  18  27
ATOM     22  C   UNL     1       1.083  -0.448  -0.722  0.00  0.00    +0.025 A 
ATOM     23  C   UNL     1       2.267   0.262  -0.723  0.00  0.00    +0.030 A 
ATOM     24  C   UNL     1       2.383   1.417   0.029  0.00  0.00    +0.105 A 
ATOM     25  C   UNL     1       1.314   1.866   0.782  0.00  0.00    +0.030 A 
ATOM     26  C   UNL     1       0.126   1.160   0.787  0.00  0.00    +0.025 A 
ATOM     27  C   UNL     1       0.007  -0.001   0.034  0.00  0.00    +0.034 A 
BRANCH  24  28
ATOM     28  S   UNL     1       3.896   2.320   0.026  0.00  0.00    +0.056 S 
ATOM     29  O   UNL     1       3.927   3.065   1.235  0.00  0.00    -0.153 OA
ATOM     30  O   UNL     1       4.918   1.398  -0.328  0.00  0.00    -0.153 OA
BRANCH  28  31
ATOM     31  N   UNL     1       3.806   3.423  -1.207  0.00  0.00    -0.204 NA
ATOM     32  H   UNL     1       4.279   4.267  -1.138  0.00  0.00    +0.144 HD
ATOM     33  H   UNL     1       3.281   3.224  -1.998  0.00  0.00    +0.144 HD
ENDBRANCH  28  31
ENDBRANCH  24  28
ENDBRANCH  18  27
ENDBRANCH   1  19
TORSDOF 4
