REMARK  Name = ZINC20466438
REMARK  13 active torsions:
REMARK  status: ('A' for Active; 'I' for Inactive)
REMARK    1  A    between atoms: C_1  and  C_2
REMARK    2  A    between atoms: C_4  and  N_29
REMARK    3  A    between atoms: C_8  and  C_28
REMARK    4  A    between atoms: C_11  and  O_27
REMARK    5  A    between atoms: C_13  and  C_17
REMARK    6  A    between atoms: C_17  and  C_19
REMARK    7  A    between atoms: C_17  and  C_20
REMARK    8  A    between atoms: N_22  and  C_23
REMARK    9  A    between atoms: C_23  and  C_24
REMARK   10  A    between atoms: C_23  and  C_25
REMARK   11  A    between atoms: C_23  and  C_26
REMARK   12  A    between atoms: C_30  and  C_32
REMARK   13  A    between atoms: C_35  and  C_38
REMARK                            x       y       z     vdW  Elec       q    Type
REMARK                         _______ _______ _______ _____ _____    ______ ____
ROOT
ATOM      1  C   UNL     1       3.554   5.118   2.856  0.00  0.00    +0.010 C 
ATOM      2  C   UNL     1       4.834   4.283   2.774  0.00  0.00    +0.012 C 
ATOM      3  C   UNL     1       6.032   5.207   2.542  0.00  0.00    +0.076 C 
ATOM      4  C   UNL     1       7.311   4.372   2.461  0.00  0.00    +0.023 C 
ATOM      5  C   UNL     1       7.200   3.379   1.302  0.00  0.00    +0.009 C 
ATOM      6  C   UNL     1       6.002   2.456   1.534  0.00  0.00    -0.027 C 
ATOM      7  C   UNL     1       4.723   3.291   1.615  0.00  0.00    +0.028 C 
ATOM      8  C   UNL     1       3.525   2.368   1.848  0.00  0.00    +0.122 C 
ATOM      9  C   UNL     1       3.414   1.375   0.689  0.00  0.00    +0.029 C 
ATOM     10  C   UNL     1       4.693   0.540   0.607  0.00  0.00    +0.007 C 
ATOM     11  C   UNL     1       5.891   1.463   0.375  0.00  0.00    +0.007 C 
ATOM     12  C   UNL     1       6.195   1.690   2.845  0.00  0.00    +0.011 C 
ENDROOT
BRANCH   3  13
ATOM     13  N   UNL     1       6.138   6.157   3.652  0.00  0.00    -0.308 N 
ATOM     14  C   UNL     1       6.748   7.345   3.466  0.00  0.00    +0.244 C 
ATOM     15  O   UNL     1       7.209   7.627   2.378  0.00  0.00    -0.270 OA
ATOM     16  H   UNL     1       5.721   5.901   4.637  0.00  0.00    +0.149 HD
BRANCH  14  17
ATOM     17  C   UNL     1       6.855   8.304   4.587  0.00  0.00    +0.037 A 
ATOM     18  C   UNL     1       6.320   7.981   5.835  0.00  0.00    +0.014 A 
ATOM     19  C   UNL     1       6.425   8.873   6.880  0.00  0.00    +0.019 A 
ATOM     20  C   UNL     1       7.057  10.103   6.688  0.00  0.00    +0.052 A 
ATOM     21  C   UNL     1       7.587  10.428   5.437  0.00  0.00    +0.019 A 
ATOM     22  C   UNL     1       7.487   9.534   4.394  0.00  0.00    +0.014 A 
BRANCH  20  23
ATOM     23  C   UNL     1       7.160  11.032   7.773  0.00  0.00    +0.099 C 
ATOM     24  N   UNL     1       7.243  11.769   8.633  0.00  0.00    -0.191 NA
ENDBRANCH  20  23
ENDBRANCH  14  17
ENDBRANCH   3  13
BRANCH   9  25
ATOM     25  C   UNL     1       2.216   0.452   0.921  0.00  0.00    +0.077 C 
ATOM     26  C   UNL     1       2.479  -0.427   2.146  0.00  0.00    +0.017 C 
BRANCH  25  27
ATOM     27  C   UNL     1       2.013  -0.422  -0.290  0.00  0.00    +0.217 C 
ATOM     28  O   UNL     1       2.725  -0.286  -1.262  0.00  0.00    -0.275 OA
ATOM     29  N   UNL     1       1.040  -1.354  -0.293  0.00  0.00    -0.310 N 
ATOM     30  H   UNL     1       0.391  -1.474   0.587  0.00  0.00    +0.149 HD
BRANCH  29  31
ATOM     31  C   UNL     1       0.846  -2.208  -1.468  0.00  0.00    +0.026 C 
ATOM     32  C   UNL     1       2.126  -3.002  -1.738  0.00  0.00    +0.031 C 
ATOM     33  C   UNL     1      -0.309  -3.177  -1.209  0.00  0.00    +0.031 C 
ATOM     34  C   UNL     1       0.520  -1.337  -2.683  0.00  0.00    +0.031 C 
ENDBRANCH  29  31
ENDBRANCH  25  27
ENDBRANCH   9  25
BRANCH   8  35
ATOM     35  O   UNL     1       2.330   3.147   1.923  0.00  0.00    -0.391 OA
ATOM     36  H   UNL     1       1.361   2.654   2.088  0.00  0.00    +0.210 HD
ENDBRANCH   8  35
TORSDOF 7
