REMARK  Name = ZINC36606161
REMARK  17 active torsions:
REMARK  status: ('A' for Active; 'I' for Inactive)
REMARK    1  A    between atoms: C_1  and  C_2
REMARK    2  A    between atoms: C_2  and  C_3
REMARK    3  A    between atoms: C_3  and  C_4
REMARK    4  A    between atoms: C_4  and  C_5
REMARK    5  A    between atoms: C_5  and  C_6
REMARK    6  A    between atoms: C_7  and  C_8
REMARK    7  A    between atoms: N_10  and  C_11
REMARK    8  A    between atoms: N_10  and  C_17
REMARK    9  A    between atoms: C_17  and  C_19
REMARK   10  A    between atoms: C_17  and  C_28
REMARK   11  A    between atoms: C_20  and  O_27
REMARK   12  A    between atoms: C_22  and  O_26
REMARK   13  A    between atoms: C_24  and  O_25
REMARK   14  A    between atoms: N_30  and  C_31
REMARK   15  A    between atoms: C_31  and  C_32
REMARK   16  A    between atoms: C_31  and  C_33
REMARK   17  A    between atoms: C_31  and  C_34
REMARK                            x       y       z     vdW  Elec       q    Type
REMARK                         _______ _______ _______ _____ _____    ______ ____
ROOT
ATOM      1  C   UNL     1       3.787  -8.267   2.271  0.00  0.00    +0.204 C 
ENDROOT
BRANCH   1   2
ATOM      2  C   UNL     1       3.388  -8.066   3.711  0.00  0.00    +0.065 A 
ATOM      3  C   UNL     1       3.673  -6.869   4.349  0.00  0.00    +0.129 A 
ATOM      4  C   UNL     1       3.306  -6.684   5.673  0.00  0.00    +0.091 A 
ATOM      5  C   UNL     1       2.653  -7.697   6.359  0.00  0.00    +0.124 A 
ATOM      6  C   UNL     1       2.366  -8.895   5.721  0.00  0.00    +0.091 A 
ATOM      7  C   UNL     1       2.730  -9.077   4.395  0.00  0.00    +0.129 A 
BRANCH   7   8
ATOM      8  O   UNL     1       2.445 -10.249   3.768  0.00  0.00    -0.506 OA
ATOM      9  H   UNL     1       3.140 -10.916   3.848  0.00  0.00    +0.292 HD
ENDBRANCH   7   8
BRANCH   5  10
ATOM     10  O   UNL     1       2.294  -7.517   7.658  0.00  0.00    -0.507 OA
ATOM     11  H   UNL     1       1.411  -7.139   7.773  0.00  0.00    +0.292 HD
ENDBRANCH   5  10
BRANCH   3  12
ATOM     12  O   UNL     1       4.313  -5.876   3.677  0.00  0.00    -0.506 OA
ATOM     13  H   UNL     1       3.720  -5.219   3.287  0.00  0.00    +0.292 HD
ENDBRANCH   3  12
ENDBRANCH   1   2
BRANCH   1  14
ATOM     14  C   UNL     1       5.279  -8.461   2.186  0.00  0.00    +0.239 C 
ATOM     15  O   UNL     1       6.018  -7.501   2.222  0.00  0.00    -0.273 OA
ATOM     16  N   UNL     1       5.790  -9.703   2.070  0.00  0.00    -0.309 N 
ATOM     17  H   UNL     1       5.199 -10.471   2.041  0.00  0.00    +0.149 HD
BRANCH  16  18
ATOM     18  C   UNL     1       7.241  -9.892   1.987  0.00  0.00    +0.026 C 
ATOM     19  C   UNL     1       7.901  -9.337   3.251  0.00  0.00    +0.031 C 
ATOM     20  C   UNL     1       7.554 -11.384   1.861  0.00  0.00    +0.031 C 
ATOM     21  C   UNL     1       7.782  -9.153   0.762  0.00  0.00    +0.031 C 
ENDBRANCH  16  18
ENDBRANCH   1  14
BRANCH   1  24
ATOM     22  C   UNL     1       2.166  -6.567   1.620  0.00  0.00    +0.244 C 
ATOM     23  O   UNL     1       1.403  -7.013   2.455  0.00  0.00    -0.270 OA
ATOM     24  N   UNL     1       3.402  -7.089   1.490  0.00  0.00    -0.252 N 
BRANCH  24  25
ATOM     25  C   UNL     1       4.318  -6.506   0.608  0.00  0.00    +0.038 A 
ATOM     26  C   UNL     1       4.729  -7.195  -0.526  0.00  0.00    +0.023 A 
ATOM     27  C   UNL     1       5.633  -6.616  -1.394  0.00  0.00    +0.002 A 
ATOM     28  C   UNL     1       6.130  -5.351  -1.136  0.00  0.00    +0.000 A 
ATOM     29  C   UNL     1       5.724  -4.663  -0.007  0.00  0.00    +0.002 A 
ATOM     30  C   UNL     1       4.815  -5.234   0.862  0.00  0.00    +0.023 A 
ENDBRANCH  24  25
BRANCH  22  32
ATOM     31  C   UNL     1       0.492  -5.005   0.818  0.00  0.00    -0.022 C 
ATOM     32  C   UNL     1       1.740  -5.460   0.751  0.00  0.00    +0.063 C 
BRANCH  31  33
ATOM     33  C   UNL     1       0.056  -3.870  -0.072  0.00  0.00    +0.027 C 
BRANCH  33  34
ATOM     34  C   UNL     1      -1.177  -4.295  -0.873  0.00  0.00    +0.004 C 
BRANCH  34  35
ATOM     35  C   UNL     1      -1.620  -3.142  -1.777  0.00  0.00    +0.000 C 
BRANCH  35  37
ATOM     36  C   UNL     1      -3.296  -2.414  -3.481  0.00  0.00    +0.004 C 
ATOM     37  C   UNL     1      -2.853  -3.567  -2.577  0.00  0.00    -0.003 C 
ENDBRANCH  35  37
ENDBRANCH  34  35
ENDBRANCH  33  34
ENDBRANCH  31  33
ENDBRANCH  22  32
ENDBRANCH   1  24
TORSDOF 13
