REMARK  Name = ZINC20132937
REMARK  4 active torsions:
REMARK  status: ('A' for Active; 'I' for Inactive)
REMARK    1  A    between atoms: C_1  and  O_2
REMARK    2  A    between atoms: O_2  and  C_3
REMARK    3  A    between atoms: C_8  and  C_9
REMARK    4  A    between atoms: C_23  and  O_24
REMARK                            x       y       z     vdW  Elec       q    Type
REMARK                         _______ _______ _______ _____ _____    ______ ____
ROOT
ATOM      1  C   UNL     1      -1.948   2.433   3.494  0.00  0.00    +0.146 A 
ATOM      2  N   UNL     1      -1.065   1.397   3.587  0.00  0.00    -0.333 N 
ATOM      3  H   UNL     1      -0.868   0.928   4.563  0.00  0.00    +0.168 HD
ATOM      4  C   UNL     1      -0.433   0.949   2.482  0.00  0.00    +0.094 A 
ATOM      5  S   UNL     1       0.677  -0.350   2.579  0.00  0.00    -0.032 S 
ATOM      6  C   UNL     1      -0.708   1.566   1.250  0.00  0.00    +0.050 A 
ATOM      7  C   UNL     1      -1.605   2.610   1.211  0.00  0.00    +0.229 A 
ATOM      8  N   UNL     1      -2.203   3.013   2.341  0.00  0.00    -0.194 NA
ATOM      9  O   UNL     1      -1.894   3.234   0.050  0.00  0.00    -0.434 OA
ATOM     10  C   UNL     1      -1.634   2.627  -1.133  0.00  0.00    +0.175 A 
ATOM     11  C   UNL     1      -0.733   1.580  -1.218  0.00  0.00    +0.003 A 
ATOM     12  C   UNL     1      -0.485   0.978  -2.439  0.00  0.00    +0.008 A 
ATOM     13  C   UNL     1      -1.132   1.419  -3.578  0.00  0.00    +0.004 A 
ATOM     14  C   UNL     1      -2.035   2.462  -3.502  0.00  0.00    +0.049 A 
ATOM     15  C   UNL     1      -2.290   3.068  -2.283  0.00  0.00    +0.159 A 
ATOM     16  C   UNL     1      -0.013   1.086   0.008  0.00  0.00    +0.082 C 
ENDROOT
BRANCH   1  22
ATOM     17  C   UNL     1      -3.537   3.978   4.636  0.00  0.00    +0.131 A 
ATOM     18  C   UNL     1      -4.178   4.416   5.785  0.00  0.00    +0.046 A 
ATOM     19  C   UNL     1      -3.915   3.812   6.998  0.00  0.00    +0.004 A 
ATOM     20  C   UNL     1      -3.015   2.761   7.077  0.00  0.00    +0.001 A 
ATOM     21  C   UNL     1      -2.374   2.308   5.944  0.00  0.00    +0.015 A 
ATOM     22  C   UNL     1      -2.631   2.912   4.710  0.00  0.00    +0.059 A 
BRANCH  17  24
ATOM     23  C   UNL     1      -4.726   5.655   3.446  0.00  0.00    +0.277 C 
ATOM     24  O   UNL     1      -3.791   4.575   3.444  0.00  0.00    -0.494 OA
ENDBRANCH  17  24
ENDBRANCH   1  22
BRANCH  15  25
ATOM     25  O   UNL     1      -3.179   4.094  -2.206  0.00  0.00    -0.503 OA
ATOM     26  H   UNL     1      -3.696   4.442  -3.112  0.00  0.00    +0.292 HD
ENDBRANCH  15  25
TORSDOF 3
