REMARK  Name = ZINC00062514
REMARK  4 active torsions:
REMARK  status: ('A' for Active; 'I' for Inactive)
REMARK    1  A    between atoms: C_3  and  N_22
REMARK    2  A    between atoms: C_6  and  C_7
REMARK    3  A    between atoms: C_9  and  C_20
REMARK    4  A    between atoms: C_10  and  N_19
REMARK                            x       y       z     vdW  Elec       q    Type
REMARK                         _______ _______ _______ _____ _____    ______ ____
ROOT
ATOM      1  C   UNL     1       2.490   1.044  -0.016  0.00  0.00    +0.101 C 
ATOM      2  C   UNL     1       3.285   1.415   1.205  0.00  0.00    +0.098 C 
ATOM      3  C   UNL     1       4.303   2.305   1.115  0.00  0.00    +0.198 C 
ATOM      4  O   UNL     1       4.627   2.881  -0.053  0.00  0.00    -0.445 OA
ATOM      5  C   UNL     1       4.266   2.298  -1.212  0.00  0.00    +0.115 C 
ATOM      6  C   UNL     1       3.255   1.411  -1.264  0.00  0.00    +0.046 C 
ATOM      7  C   UNL     1       2.880   0.799  -2.475  0.00  0.00    +0.163 C 
ATOM      8  O   UNL     1       1.949   0.019  -2.487  0.00  0.00    -0.292 OA
ATOM      9  C   UNL     1       3.612   1.094  -3.756  0.00  0.00    +0.080 C 
ATOM     10  C   UNL     1       5.057   1.481  -3.422  0.00  0.00    +0.016 C 
ATOM     11  C   UNL     1       5.030   2.670  -2.461  0.00  0.00    +0.075 C 
ENDROOT
BRANCH   1  17
ATOM     12  C   UNL     1      -0.012   1.076   0.024  0.00  0.00    +0.006 A 
ATOM     13  C   UNL     1      -1.218   1.749   0.034  0.00  0.00    +0.023 A 
ATOM     14  C   UNL     1      -1.236   3.138   0.031  0.00  0.00    +0.030 A 
ATOM     15  C   UNL     1      -0.041   3.845   0.007  0.00  0.00    +0.023 A 
ATOM     16  C   UNL     1       1.161   3.166  -0.009  0.00  0.00    +0.006 A 
ATOM     17  C   UNL     1       1.176   1.783   0.000  0.00  0.00    -0.034 A 
BRANCH  14  18
ATOM     18  N   UNL     1      -2.454   3.822   0.046  0.00  0.00    -0.330 N 
ATOM     19  C   UNL     1      -2.591   4.636   1.281  0.00  0.00    +0.105 C 
ATOM     20  C   UNL     1      -3.670   5.681   0.899  0.00  0.00    +0.020 C 
ATOM     21  C   UNL     1      -3.339   5.995  -0.577  0.00  0.00    +0.020 C 
ATOM     22  C   UNL     1      -2.539   4.779  -1.078  0.00  0.00    +0.105 C 
ENDBRANCH  14  18
ENDBRANCH   1  17
BRANCH   3  23
ATOM     23  N   UNL     1       5.019   2.624   2.242  0.00  0.00    -0.328 N 
ATOM     24  H   UNL     1       5.750   3.259   2.189  0.00  0.00    +0.145 HD
ATOM     25  H   UNL     1       4.793   2.213   3.092  0.00  0.00    +0.145 HD
ENDBRANCH   3  23
BRANCH   2  26
ATOM     26  C   UNL     1       2.965   0.826   2.470  0.00  0.00    +0.101 C 
ATOM     27  N   UNL     1       2.711   0.357   3.473  0.00  0.00    -0.191 NA
ENDBRANCH   2  26
TORSDOF 4
