REMARK  Name = ZINC29481008
REMARK  7 active torsions:
REMARK  status: ('A' for Active; 'I' for Inactive)
REMARK    1  A    between atoms: C_3  and  C_6
REMARK    2  A    between atoms: C_6  and  N_7
REMARK    3  A    between atoms: N_7  and  S_8
REMARK    4  A    between atoms: S_8  and  C_11
REMARK    5  A    between atoms: C_14  and  C_17
REMARK    6  A    between atoms: C_18  and  C_19
REMARK    7  A    between atoms: N_21  and  C_22
REMARK                            x       y       z     vdW  Elec       q    Type
REMARK                         _______ _______ _______ _____ _____    ______ ____
ROOT
ATOM      1  C   UNL     1      -1.065  -4.917   0.298  0.00  0.00    +0.013 C 
ATOM      2  C   UNL     1       0.091  -4.232   0.189  0.00  0.00    +0.068 C 
ENDROOT
BRANCH   1   6
ATOM      3  C   UNL     1      -1.004  -9.148   0.592  0.00  0.00    +0.105 A 
ATOM      4  C   UNL     1      -2.213  -8.475   0.608  0.00  0.00    +0.029 A 
ATOM      5  C   UNL     1      -2.241  -7.099   0.513  0.00  0.00    +0.010 A 
ATOM      6  C   UNL     1      -1.044  -6.385   0.400  0.00  0.00    -0.025 A 
ATOM      7  C   UNL     1       0.173  -7.074   0.379  0.00  0.00    +0.010 A 
ATOM      8  C   UNL     1       0.185  -8.449   0.480  0.00  0.00    +0.029 A 
BRANCH   3   9
ATOM      9  S   UNL     1      -0.979 -10.906   0.714  0.00  0.00    +0.059 S 
ATOM     10  O   UNL     1       0.299 -11.259   1.224  0.00  0.00    -0.153 OA
ATOM     11  O   UNL     1      -2.188 -11.286   1.357  0.00  0.00    -0.153 OA
BRANCH   9  12
ATOM     12  N   UNL     1      -1.055 -11.505  -0.829  0.00  0.00    -0.183 NA
ATOM     13  H   UNL     1      -1.997 -11.942  -1.190  0.00  0.00    +0.148 HD
BRANCH  12  14
ATOM     14  C   UNL     1       0.044 -11.258  -1.765  0.00  0.00    +0.180 C 
BRANCH  14  17
ATOM     15  C   UNL     1      -0.610 -13.072  -4.905  0.00  0.00    +0.041 A 
ATOM     16  C   UNL     1      -0.756 -11.934  -4.079  0.00  0.00    +0.046 A 
ATOM     17  C   UNL     1      -0.081 -12.189  -2.943  0.00  0.00    +0.120 A 
ATOM     18  O   UNL     1       0.468 -13.411  -3.041  0.00  0.00    -0.466 OA
ATOM     19  C   UNL     1       0.145 -13.953  -4.226  0.00  0.00    +0.195 A 
ENDBRANCH  14  17
ENDBRANCH  12  14
ENDBRANCH   9  12
ENDBRANCH   3   9
ENDBRANCH   1   6
BRANCH   2  20
ATOM     20  C   UNL     1       0.070  -2.772   0.087  0.00  0.00    +0.241 C 
ATOM     21  O   UNL     1      -0.992  -2.176   0.101  0.00  0.00    -0.270 OA
ATOM     22  N   UNL     1       1.226  -2.087  -0.021  0.00  0.00    -0.282 N 
ATOM     23  H   UNL     1       2.179  -2.628  -0.110  0.00  0.00    +0.155 HD
BRANCH  22  24
ATOM     24  C   UNL     1       1.212  -0.687  -0.022  0.00  0.00    +0.036 A 
ATOM     25  C   UNL     1       2.252   0.017   0.577  0.00  0.00    +0.025 A 
ATOM     26  C   UNL     1       2.244   1.397   0.580  0.00  0.00    +0.029 A 
ATOM     27  C   UNL     1       1.197   2.085  -0.015  0.00  0.00    +0.067 A 
ATOM     28  C   UNL     1       0.152   1.381  -0.617  0.00  0.00    +0.069 A 
ATOM     29  C   UNL     1       0.162  -0.005  -0.618  0.00  0.00    +0.051 A 
ATOM     30  N   UNL     1      -0.736   2.330  -1.119  0.00  0.00    -0.306 N 
ATOM     31  H   UNL     1      -1.648   2.007  -1.642  0.00  0.00    +0.170 HD
ATOM     32  C   UNL     1      -0.254   3.554  -0.836  0.00  0.00    +0.325 A 
ATOM     33  O   UNL     1      -0.789   4.605  -1.136  0.00  0.00    -0.247 OA
ATOM     34  N   UNL     1       0.911   3.441  -0.170  0.00  0.00    -0.306 N 
ATOM     35  H   UNL     1       1.602   4.198   0.229  0.00  0.00    +0.170 HD
ENDBRANCH  22  24
ENDBRANCH   2  20
TORSDOF 7
