REMARK  Name = ZINC01295793
REMARK  4 active torsions:
REMARK  status: ('A' for Active; 'I' for Inactive)
REMARK    1  A    between atoms: C_4  and  S_7
REMARK    2  A    between atoms: S_7  and  N_10
REMARK    3  A    between atoms: N_10  and  P_11
REMARK    4  A    between atoms: P_11  and  N_13
REMARK                            x       y       z     vdW  Elec       q    Type
REMARK                         _______ _______ _______ _____ _____    ______ ____
ROOT
ATOM      1  S   UNL     1       3.934  -0.832  -0.042  0.00  0.00    +0.067 S 
ATOM      2  O   UNL     1       4.902   0.054   0.504  0.00  0.00    -0.153 OA
ATOM      3  O   UNL     1       3.686  -2.120   0.505  0.00  0.00    -0.153 OA
ENDROOT
BRANCH   1   7
ATOM      4  C   UNL     1      -0.017   1.378   0.010  0.00  0.00    +0.000 A 
ATOM      5  C   UNL     1       1.171   2.086   0.002  0.00  0.00    +0.002 A 
ATOM      6  C   UNL     1       2.377   1.411  -0.014  0.00  0.00    +0.028 A 
ATOM      7  C   UNL     1       2.396   0.029  -0.022  0.00  0.00    +0.106 A 
ATOM      8  C   UNL     1       1.208  -0.679  -0.014  0.00  0.00    +0.028 A 
ATOM      9  C   UNL     1       0.002  -0.004   0.002  0.00  0.00    +0.002 A 
ENDBRANCH   1   7
BRANCH   1  10
ATOM     10  N   UNL     1       4.345  -1.062  -1.629  0.00  0.00    -0.100 NA
ATOM     11  H   UNL     1       4.235  -2.062  -2.073  0.00  0.00    +0.159 HD
BRANCH  10  12
ATOM     12  P   UNL     1       4.675   0.228  -2.586  0.00  0.00    +0.386 P 
ATOM     13  O   UNL     1       3.490   1.112  -2.649  0.00  0.00    -0.251 OA
ATOM     14  O   UNL     1       5.042  -0.283  -4.068  0.00  0.00    -0.136 OA
BRANCH  12  15
ATOM     15  N   UNL     1       5.978   1.081  -1.948  0.00  0.00    -0.244 NA
ATOM     16  H   UNL     1       5.750   1.468  -1.045  0.00  0.00    +0.129 HD
ATOM     17  H   UNL     1       6.800   0.499  -1.895  0.00  0.00    +0.129 HD
ENDBRANCH  12  15
ENDBRANCH  10  12
ENDBRANCH   1  10
TORSDOF 4
