REMARK  Name = ZINC63271759
REMARK  7 active torsions:
REMARK  status: ('A' for Active; 'I' for Inactive)
REMARK    1  A    between atoms: C_6  and  C_11
REMARK    2  A    between atoms: C_11  and  C_12
REMARK    3  A    between atoms: C_12  and  N_13
REMARK    4  A    between atoms: C_14  and  C_16
REMARK    5  A    between atoms: C_16  and  C_17
REMARK    6  A    between atoms: C_17  and  N_18
REMARK    7  A    between atoms: N_18  and  C_19
REMARK                            x       y       z     vdW  Elec       q    Type
REMARK                         _______ _______ _______ _____ _____    ______ ____
ROOT
ATOM      1  N   UNL     1       5.000  -3.595  -1.503  0.00  0.00    -0.315 N 
ATOM      2  C   UNL     1       5.312  -4.189  -2.672  0.00  0.00    +0.215 C 
ATOM      3  O   UNL     1       5.184  -3.581  -3.714  0.00  0.00    -0.276 OA
ATOM      4  H   UNL     1       5.102  -4.081  -0.670  0.00  0.00    +0.149 HD
ENDROOT
BRANCH   1   5
ATOM      5  C   UNL     1       4.508  -2.215  -1.491  0.00  0.00    +0.108 C 
BRANCH   5   6
ATOM      6  C   UNL     1       4.231  -1.785  -0.049  0.00  0.00    +0.052 C 
BRANCH   6  12
ATOM      7  C   UNL     1      -0.017   1.399   0.010  0.00  0.00    +0.022 A 
ATOM      8  C   UNL     1       1.109   2.143   0.003  0.00  0.00    +0.027 A 
ATOM      9  C   UNL     1       2.385   1.516  -0.013  0.00  0.00    +0.043 A 
ATOM     10  N   UNL     1       3.600   2.009  -0.022  0.00  0.00    -0.380 N 
ATOM     11  C   UNL     1       4.557   0.897  -0.038  0.00  0.00    +0.144 C 
ATOM     12  C   UNL     1       3.724  -0.366  -0.036  0.00  0.00    -0.040 C 
ATOM     13  C   UNL     1       2.433   0.036  -0.021  0.00  0.00    +0.000 A 
ATOM     14  C   UNL     1       1.163  -0.699  -0.013  0.00  0.00    +0.030 A 
ATOM     15  C   UNL     1       0.002  -0.004   0.002  0.00  0.00    +0.042 A 
ATOM     16 CL   UNL     1      -1.502  -0.870   0.012  0.00  0.00    -0.084 Cl
ATOM     17  H   UNL     1       3.828   2.952  -0.020  0.00  0.00    +0.160 HD
ENDBRANCH   6  12
ENDBRANCH   5   6
ENDBRANCH   1   5
BRANCH   2  18
ATOM     18  C   UNL     1       5.819  -5.608  -2.685  0.00  0.00    +0.114 C 
BRANCH  18  19
ATOM     19  C   UNL     1       6.095  -6.038  -4.127  0.00  0.00    +0.112 C 
BRANCH  19  20
ATOM     20  N   UNL     1       6.588  -7.418  -4.139  0.00  0.00    -0.327 N 
ATOM     21  H   UNL     1       6.690  -7.904  -3.306  0.00  0.00    +0.148 HD
BRANCH  20  22
ATOM     22  C   UNL     1       6.907  -8.028  -5.339  0.00  0.00    +0.151 A 
ATOM     23  C   UNL     1       7.381  -9.350  -5.370  0.00  0.00    +0.147 A 
ATOM     24  N   UNL     1       7.637 -10.292  -4.430  0.00  0.00    -0.231 NA
ATOM     25  C   UNL     1       8.072 -11.374  -5.008  0.00  0.00    +0.198 A 
ATOM     26  N   UNL     1       8.122 -11.192  -6.358  0.00  0.00    -0.329 N 
ATOM     27  C   UNL     1       7.689  -9.916  -6.618  0.00  0.00    +0.164 A 
ATOM     28  N   UNL     1       7.523  -9.188  -7.717  0.00  0.00    -0.198 NA
ATOM     29  C   UNL     1       7.075  -7.951  -7.641  0.00  0.00    +0.226 A 
ATOM     30  N   UNL     1       6.768  -7.378  -6.490  0.00  0.00    -0.200 NA
ATOM     31  H   UNL     1       8.412 -11.845  -7.015  0.00  0.00    +0.168 HD
ATOM     32 CL   UNL     1       6.877  -7.042  -9.107  0.00  0.00    -0.041 Cl
ENDBRANCH  20  22
ENDBRANCH  19  20
ENDBRANCH  18  19
ENDBRANCH   2  18
TORSDOF 7
