REMARK  Name = ZINC00089285
REMARK  2 active torsions:
REMARK  status: ('A' for Active; 'I' for Inactive)
REMARK    1  A    between atoms: C_10  and  C_13
REMARK    2  A    between atoms: C_13  and  C_14
REMARK                            x       y       z     vdW  Elec       q    Type
REMARK                         _______ _______ _______ _____ _____    ______ ____
ROOT
ATOM      1  C   UNL     1      -1.220   1.746   0.017  0.00  0.00    +0.002 A 
ATOM      2  C   UNL     1      -1.253   3.129   0.030  0.00  0.00    +0.001 A 
ATOM      3  C   UNL     1      -0.071   3.846   0.019  0.00  0.00    +0.016 A 
ATOM      4  C   UNL     1       1.142   3.179   0.001  0.00  0.00    +0.030 A 
ATOM      5  C   UNL     1       1.184   1.784   0.000  0.00  0.00    +0.047 A 
ATOM      6  C   UNL     1      -0.013   1.076   0.008  0.00  0.00    +0.024 A 
ATOM      7  N   UNL     1       2.389   1.087  -0.024  0.00  0.00    -0.284 N 
ATOM      8  C   UNL     1       3.591   1.570   0.272  0.00  0.00    +0.231 C 
ATOM      9  O   UNL     1       4.558   0.858   0.102  0.00  0.00    -0.274 OA
ATOM     10  C   UNL     1       3.809   2.961   0.811  0.00  0.00    +0.146 C 
ATOM     11  S   UNL     1       2.655   4.089  -0.028  0.00  0.00    -0.110 S 
ATOM     12  H   UNL     1       2.347   0.154  -0.285  0.00  0.00    +0.155 HD
ENDROOT
BRANCH  10  13
ATOM     13  C   UNL     1       3.542   2.977   2.318  0.00  0.00    +0.120 C 
BRANCH  13  14
ATOM     14  C   UNL     1       3.855   4.345   2.868  0.00  0.00    +0.222 C 
ATOM     15  O   UNL     1       4.251   5.220   2.129  0.00  0.00    -0.275 OA
ATOM     16  N   UNL     1       3.693   4.595   4.183  0.00  0.00    -0.240 N 
ATOM     17  C   UNL     1       3.972   5.818   4.675  0.00  0.00    +0.303 C 
ATOM     18  O   UNL     1       4.370   6.695   3.934  0.00  0.00    -0.253 OA
ATOM     19  N   UNL     1       3.811   6.069   5.989  0.00  0.00    -0.313 N 
ATOM     20  H   UNL     1       3.376   3.895   4.774  0.00  0.00    +0.159 HD
ATOM     21  H   UNL     1       3.493   5.368   6.581  0.00  0.00    +0.146 HD
ATOM     22  H   UNL     1       4.012   6.949   6.344  0.00  0.00    +0.146 HD
ENDBRANCH  13  14
ENDBRANCH  10  13
TORSDOF 2
