REMARK  Name = ZINC15969144
REMARK  7 active torsions:
REMARK  status: ('A' for Active; 'I' for Inactive)
REMARK    1  A    between atoms: C_1  and  C_2
REMARK    2  A    between atoms: C_16  and  C_19
REMARK    3  A    between atoms: C_19  and  C_20
REMARK    4  A    between atoms: C_23  and  O_26
REMARK    5  A    between atoms: N_29  and  C_32
REMARK    6  A    between atoms: C_32  and  C_33
REMARK    7  A    between atoms: C_33  and  C_34
REMARK                            x       y       z     vdW  Elec       q    Type
REMARK                         _______ _______ _______ _____ _____    ______ ____
ROOT
ATOM      1  C   UNL     1      -0.018   1.503   0.010  0.00  0.00    +0.046 C 
ATOM      2  C   UNL     1       0.002  -0.004   0.002  0.00  0.00    -0.028 A 
ATOM      3  C   UNL     1       0.006  -0.685  -1.198  0.00  0.00    +0.025 A 
ATOM      4  C   UNL     1       0.024  -2.068  -1.216  0.00  0.00    +0.042 A 
ATOM      5  C   UNL     1       0.039  -2.772  -0.023  0.00  0.00    +0.027 A 
ATOM      6  C   UNL     1       0.035  -2.096   1.176  0.00  0.00    +0.005 A 
ATOM      7  C   UNL     1       0.023  -0.704   1.205  0.00  0.00    +0.042 A 
ATOM      8  N   UNL     1       0.031  -0.249   2.526  0.00  0.00    -0.283 N 
ATOM      9  C   UNL     1       0.053  -1.263   3.413  0.00  0.00    +0.243 C 
ATOM     10  O   UNL     1       0.065  -1.168   4.622  0.00  0.00    -0.273 OA
ATOM     11  C   UNL     1       0.046  -2.537   2.612  0.00  0.00    +0.136 C 
ATOM     12  C   UNL     1       1.279  -3.390   2.931  0.00  0.00    +0.122 C 
ATOM     13  C   UNL     1       0.771  -4.447   3.951  0.00  0.00    +0.107 C 
ATOM     14  C   UNL     1      -0.725  -4.121   4.147  0.00  0.00    +0.072 C 
ATOM     15  N   UNL     1      -1.122  -3.380   2.928  0.00  0.00    -0.295 NA
ATOM     16  C   UNL     1       1.536  -4.111   5.211  0.00  0.00    +0.227 C 
ATOM     17  O   UNL     1       1.441  -4.700   6.267  0.00  0.00    -0.275 OA
ATOM     18  N   UNL     1       2.334  -3.062   4.981  0.00  0.00    -0.241 N 
ATOM     19  C   UNL     1       2.276  -2.573   3.721  0.00  0.00    +0.228 C 
ATOM     20  O   UNL     1       2.912  -1.635   3.289  0.00  0.00    -0.275 OA
ATOM     21 CL   UNL     1       0.029  -2.919  -2.729  0.00  0.00    -0.084 Cl
ATOM     22  H   UNL     1       0.022   0.688   2.776  0.00  0.00    +0.155 HD
ATOM     23  H   UNL     1      -1.942  -2.815   3.094  0.00  0.00    +0.124 HD
ENDROOT
BRANCH  14  24
ATOM     24  C   UNL     1      -1.536  -5.409   4.297  0.00  0.00    +0.054 C 
BRANCH  24  25
ATOM     25  C   UNL     1      -2.970  -5.067   4.609  0.00  0.00    -0.046 A 
ATOM     26  C   UNL     1      -3.376  -4.926   5.923  0.00  0.00    +0.007 A 
ATOM     27  C   UNL     1      -4.690  -4.612   6.212  0.00  0.00    +0.045 A 
ATOM     28  C   UNL     1      -5.603  -4.439   5.181  0.00  0.00    +0.117 A 
ATOM     29  C   UNL     1      -5.193  -4.581   3.863  0.00  0.00    +0.045 A 
ATOM     30  C   UNL     1      -3.877  -4.889   3.580  0.00  0.00    +0.007 A 
BRANCH  28  31
ATOM     31  O   UNL     1      -6.896  -4.131   5.462  0.00  0.00    -0.507 OA
ATOM     32  H   UNL     1      -7.072  -3.182   5.513  0.00  0.00    +0.292 HD
ENDBRANCH  28  31
ENDBRANCH  24  25
ENDBRANCH  14  24
BRANCH  18  33
ATOM     33  C   UNL     1       3.208  -2.490   6.008  0.00  0.00    +0.121 C 
BRANCH  33  34
ATOM     34  C   UNL     1       4.571  -3.185   5.963  0.00  0.00    +0.054 C 
BRANCH  34  35
ATOM     35  C   UNL     1       5.470  -2.596   7.019  0.00  0.00    -0.046 A 
ATOM     36  C   UNL     1       6.267  -1.508   6.721  0.00  0.00    +0.004 A 
ATOM     37  C   UNL     1       7.092  -0.968   7.690  0.00  0.00    +0.000 A 
ATOM     38  C   UNL     1       7.119  -1.517   8.959  0.00  0.00    +0.000 A 
ATOM     39  C   UNL     1       6.320  -2.605   9.258  0.00  0.00    +0.000 A 
ATOM     40  C   UNL     1       5.492  -3.142   8.289  0.00  0.00    +0.004 A 
ENDBRANCH  34  35
ENDBRANCH  33  34
ENDBRANCH  18  33
TORSDOF 6
