REMARK  Name = ZINC63079739
REMARK  5 active torsions:
REMARK  status: ('A' for Active; 'I' for Inactive)
REMARK    1  A    between atoms: C_1  and  C_2
REMARK    2  A    between atoms: C_5  and  O_9
REMARK    3  A    between atoms: O_9  and  C_10
REMARK    4  A    between atoms: C_10  and  C_11
REMARK    5  A    between atoms: N_17  and  C_20
REMARK                            x       y       z     vdW  Elec       q    Type
REMARK                         _______ _______ _______ _____ _____    ______ ____
ROOT
ATOM      1  C   UNL     1       0.079  -6.266  -1.111  0.00  0.00    +0.171 A 
ATOM      2  N   UNL     1       1.247  -6.879  -1.032  0.00  0.00    -0.213 NA
ATOM      3  C   UNL     1       1.323  -8.195  -0.866  0.00  0.00    +0.131 A 
ATOM      4  C   UNL     1       0.124  -8.929  -0.775  0.00  0.00    +0.078 A 
ATOM      5  C   UNL     1      -0.195 -10.293  -0.603  0.00  0.00    +0.148 A 
ATOM      6  N   UNL     1      -1.491 -10.416  -0.590  0.00  0.00    -0.177 NA
ATOM      7  N   UNL     1      -2.086  -9.158  -0.749  0.00  0.00    -0.249 N 
ATOM      8  C   UNL     1      -1.095  -8.229  -0.865  0.00  0.00    +0.163 A 
ATOM      9  N   UNL     1      -1.066  -6.907  -1.026  0.00  0.00    -0.209 NA
ATOM     10  C   UNL     1      -3.525  -8.887  -0.785  0.00  0.00    +0.174 C 
ATOM     11  N   UNL     1       2.547  -8.828  -0.785  0.00  0.00    -0.342 N 
ATOM     12  H   UNL     1       3.366  -8.312  -0.850  0.00  0.00    +0.144 HD
ATOM     13  H   UNL     1       2.589  -9.790  -0.664  0.00  0.00    +0.144 HD
ENDROOT
BRANCH   1  14
ATOM     14  C   UNL     1       0.058  -4.771  -1.300  0.00  0.00    +0.305 C 
BRANCH  14  15
ATOM     15  O   UNL     1       0.057  -4.130  -0.022  0.00  0.00    -0.483 OA
BRANCH  15  20
ATOM     16  C   UNL     1      -0.018   1.503   0.010  0.00  0.00    +0.044 C 
ATOM     17  C   UNL     1       0.002  -0.004   0.002  0.00  0.00    -0.049 A 
ATOM     18  C   UNL     1       0.006  -0.688  -1.200  0.00  0.00    +0.007 A 
ATOM     19  C   UNL     1       0.024  -2.069  -1.211  0.00  0.00    +0.047 A 
ATOM     20  C   UNL     1       0.039  -2.771  -0.014  0.00  0.00    +0.135 A 
ATOM     21  C   UNL     1       0.036  -2.083   1.191  0.00  0.00    +0.060 A 
ATOM     22  C   UNL     1       0.023  -0.700   1.196  0.00  0.00    +0.022 A 
ATOM     23 BR   UNL     1       0.056  -3.035   2.825  0.00  0.00    -0.047 Br
ENDBRANCH  15  20
ENDBRANCH  14  15
ENDBRANCH   1  14
TORSDOF 3
