REMARK  Name = ZINC28051157
REMARK  5 active torsions:
REMARK  status: ('A' for Active; 'I' for Inactive)
REMARK    1  A    between atoms: C_4  and  O_7
REMARK    2  A    between atoms: O_7  and  C_8
REMARK    3  A    between atoms: C_13  and  N_14
REMARK    4  A    between atoms: C_15  and  C_17
REMARK    5  A    between atoms: C_17  and  C_18
REMARK                            x       y       z     vdW  Elec       q    Type
REMARK                         _______ _______ _______ _____ _____    ______ ____
ROOT
ATOM      1  N   UNL     1      -3.710   5.142  -3.703  0.00  0.00    -0.283 N 
ATOM      2  C   UNL     1      -3.726   4.774  -2.407  0.00  0.00    +0.220 C 
ATOM      3  O   UNL     1      -3.861   5.612  -1.540  0.00  0.00    -0.275 OA
ATOM      4  H   UNL     1      -3.494   4.397  -4.484  0.00  0.00    +0.155 HD
ENDROOT
BRANCH   1  10
ATOM      5  C   UNL     1      -3.479   6.984  -5.257  0.00  0.00    +0.150 A 
ATOM      6  C   UNL     1      -3.738   8.301  -5.602  0.00  0.00    +0.048 A 
ATOM      7  C   UNL     1      -4.481   9.104  -4.757  0.00  0.00    +0.004 A 
ATOM      8  C   UNL     1      -4.968   8.596  -3.566  0.00  0.00    +0.002 A 
ATOM      9  C   UNL     1      -4.718   7.283  -3.217  0.00  0.00    +0.027 A 
ATOM     10  C   UNL     1      -3.969   6.473  -4.058  0.00  0.00    +0.076 A 
BRANCH   5  11
ATOM     11  O   UNL     1      -2.749   6.193  -6.088  0.00  0.00    -0.454 OA
BRANCH  11  15
ATOM     12  C   UNL     1      -1.082   7.923  -9.441  0.00  0.00    +0.000 A 
ATOM     13  C   UNL     1      -0.655   8.305  -8.183  0.00  0.00    +0.004 A 
ATOM     14  C   UNL     1      -1.212   7.728  -7.059  0.00  0.00    +0.046 A 
ATOM     15  C   UNL     1      -2.200   6.763  -7.192  0.00  0.00    +0.129 A 
ATOM     16  C   UNL     1      -2.623   6.378  -8.456  0.00  0.00    +0.046 A 
ATOM     17  C   UNL     1      -2.067   6.962  -9.578  0.00  0.00    +0.004 A 
ENDBRANCH  11  15
ENDBRANCH   5  11
ENDBRANCH   1  10
BRANCH   2  18
ATOM     18  C   UNL     1      -3.576   3.322  -2.034  0.00  0.00    +0.127 C 
BRANCH  18  19
ATOM     19  C   UNL     1      -3.628   3.179  -0.511  0.00  0.00    +0.166 C 
ATOM     20  C   UNL     1      -3.602   1.717  -0.141  0.00  0.00    +0.238 C 
ATOM     21  O   UNL     1      -4.645   1.111  -0.015  0.00  0.00    -0.273 OA
ATOM     22  N   UNL     1      -2.433   1.079   0.053  0.00  0.00    -0.282 N 
ATOM     23  C   UNL     1      -1.222   1.780   0.048  0.00  0.00    +0.055 A 
ATOM     24  C   UNL     1      -0.013   1.102   0.045  0.00  0.00    +0.025 A 
ATOM     25  C   UNL     1       1.174   1.811   0.037  0.00  0.00    +0.002 A 
ATOM     26  C   UNL     1       1.163   3.194   0.036  0.00  0.00    +0.002 A 
ATOM     27  C   UNL     1      -0.039   3.879   0.049  0.00  0.00    +0.025 A 
ATOM     28  C   UNL     1      -1.231   3.175   0.062  0.00  0.00    +0.049 A 
ATOM     29  N   UNL     1      -2.462   3.845   0.098  0.00  0.00    -0.331 N 
ATOM     30  H   UNL     1      -2.422  -0.009   0.217  0.00  0.00    +0.155 HD
ATOM     31  H   UNL     1      -2.575   4.837   0.561  0.00  0.00    +0.147 HD
ENDBRANCH  18  19
ENDBRANCH   2  18
TORSDOF 5
