REMARK  Name = ZINC44830159
REMARK  5 active torsions:
REMARK  status: ('A' for Active; 'I' for Inactive)
REMARK    1  A    between atoms: C_3  and  O_13
REMARK    2  A    between atoms: C_4  and  N_12
REMARK    3  A    between atoms: C_6  and  N_7
REMARK    4  A    between atoms: N_7  and  S_8
REMARK    5  A    between atoms: S_8  and  N_11
REMARK                            x       y       z     vdW  Elec       q    Type
REMARK                         _______ _______ _______ _____ _____    ______ ____
ROOT
ATOM      1  C   UNL     1      -0.017   1.384   0.010  0.00  0.00    +0.028 A 
ATOM      2  C   UNL     1       1.170   2.094   0.002  0.00  0.00    +0.049 A 
ATOM      3  C   UNL     1       2.380   1.422  -0.013  0.00  0.00    +0.138 A 
ATOM      4  C   UNL     1       2.404   0.029  -0.021  0.00  0.00    +0.068 A 
ATOM      5  C   UNL     1       1.214  -0.682  -0.013  0.00  0.00    +0.051 A 
ATOM      6  C   UNL     1       0.002  -0.004   0.002  0.00  0.00    +0.051 A 
ENDROOT
BRANCH   4   7
ATOM      7  N   UNL     1       3.627  -0.651  -0.037  0.00  0.00    -0.355 N 
ATOM      8  H   UNL     1       4.459  -0.153  -0.043  0.00  0.00    +0.142 HD
ATOM      9  H   UNL     1       3.642  -1.621  -0.043  0.00  0.00    +0.142 HD
ENDBRANCH   4   7
BRANCH   6  10
ATOM     10  N   UNL     1      -1.200  -0.720   0.010  0.00  0.00    -0.207 N 
ATOM     11  H   UNL     1      -1.307  -1.482   0.601  0.00  0.00    +0.175 HD
BRANCH  10  12
ATOM     12  S   UNL     1      -2.440  -0.267  -0.989  0.00  0.00    +0.107 S 
ATOM     13  O   UNL     1      -3.497  -1.192  -0.770  0.00  0.00    -0.138 OA
ATOM     14  O   UNL     1      -2.607   1.134  -0.820  0.00  0.00    -0.138 OA
BRANCH  12  15
ATOM     15  N   UNL     1      -1.924  -0.498  -2.546  0.00  0.00    -0.191 NA
ATOM     16  H   UNL     1      -1.034  -0.843  -2.715  0.00  0.00    +0.146 HD
ATOM     17  H   UNL     1      -2.513  -0.289  -3.288  0.00  0.00    +0.146 HD
ENDBRANCH  12  15
ENDBRANCH  10  12
ENDBRANCH   6  10
BRANCH   3  18
ATOM     18  O   UNL     1       3.547   2.123  -0.022  0.00  0.00    -0.505 OA
ATOM     19  H   UNL     1       3.894   2.320   0.859  0.00  0.00    +0.292 HD
ENDBRANCH   3  18
TORSDOF 5
