REMARK  Name = ZINC40782344
REMARK  5 active torsions:
REMARK  status: ('A' for Active; 'I' for Inactive)
REMARK    1  A    between atoms: C_1  and  C_2
REMARK    2  A    between atoms: C_4  and  C_22
REMARK    3  A    between atoms: C_8  and  N_21
REMARK    4  A    between atoms: C_9  and  N_13
REMARK    5  A    between atoms: N_13  and  C_14
REMARK                            x       y       z     vdW  Elec       q    Type
REMARK                         _______ _______ _______ _____ _____    ______ ____
ROOT
ATOM      1  C   UNL     1       1.155   1.059  -0.578  0.00  0.00    +0.067 C 
ATOM      2  C   UNL     1       0.392  -0.197  -0.244  0.00  0.00    +0.061 A 
ATOM      3  C   UNL     1      -0.804  -0.611  -0.839  0.00  0.00    +0.048 A 
ATOM      4  C   UNL     1      -1.171  -1.782  -0.270  0.00  0.00    +0.044 A 
ATOM      5  N   UNL     1      -0.232  -2.099   0.659  0.00  0.00    -0.217 N 
ATOM      6  N   UNL     1       0.739  -1.089   0.649  0.00  0.00    -0.170 NA
ATOM      7  C   UNL     1      -0.231  -3.233   1.477  0.00  0.00    +0.180 A 
ATOM      8  C   UNL     1       0.005  -3.118   2.846  0.00  0.00    +0.110 A 
ATOM      9  C   UNL     1      -0.006  -4.285   3.618  0.00  0.00    +0.149 A 
ATOM     10  N   UNL     1      -0.239  -5.449   3.020  0.00  0.00    -0.219 NA
ATOM     11  C   UNL     1      -0.457  -5.512   1.722  0.00  0.00    +0.225 A 
ATOM     12  N   UNL     1      -0.461  -4.437   0.961  0.00  0.00    -0.215 NA
ATOM     13  C   UNL     1      -2.398  -2.589  -0.605  0.00  0.00    +0.066 C 
ENDROOT
BRANCH   8  14
ATOM     14  N   UNL     1       0.247  -1.869   3.433  0.00  0.00    -0.352 N 
ATOM     15  H   UNL     1       0.164  -1.060   2.904  0.00  0.00    +0.143 HD
ATOM     16  H   UNL     1       0.497  -1.812   4.369  0.00  0.00    +0.143 HD
ENDBRANCH   8  14
BRANCH   9  17
ATOM     17  N   UNL     1       0.224  -4.227   4.987  0.00  0.00    -0.298 N 
ATOM     18  H   UNL     1       0.319  -3.368   5.428  0.00  0.00    +0.154 HD
BRANCH  17  19
ATOM     19  C   UNL     1       0.319  -5.408   5.730  0.00  0.00    +0.032 A 
ATOM     20  C   UNL     1      -0.118  -5.438   7.048  0.00  0.00    +0.024 A 
ATOM     21  C   UNL     1      -0.023  -6.606   7.779  0.00  0.00    +0.017 A 
ATOM     22  C   UNL     1       0.506  -7.745   7.200  0.00  0.00    +0.018 A 
ATOM     23  C   UNL     1       0.943  -7.718   5.887  0.00  0.00    +0.017 A 
ATOM     24  C   UNL     1       0.846  -6.555   5.149  0.00  0.00    +0.024 A 
ATOM     25 BR   UNL     1       0.635  -9.342   8.204  0.00  0.00    -0.050 Br
ENDBRANCH  17  19
ENDBRANCH   9  17
TORSDOF 3
