REMARK  Name = ZINC59233703
REMARK  6 active torsions:
REMARK  status: ('A' for Active; 'I' for Inactive)
REMARK    1  A    between atoms: C_9  and  C_11
REMARK    2  A    between atoms: C_11  and  C_12
REMARK    3  A    between atoms: C_12  and  C_13
REMARK    4  A    between atoms: C_12  and  C_24
REMARK    5  A    between atoms: C_12  and  O_34
REMARK    6  A    between atoms: C_13  and  C_14
REMARK                            x       y       z     vdW  Elec       q    Type
REMARK                         _______ _______ _______ _____ _____    ______ ____
ROOT
ATOM      1  C   UNL     1       4.718  -3.296  -1.241  0.00  0.00    +0.137 C 
ENDROOT
BRANCH   1   2
ATOM      2  C   UNL     1       3.937  -3.072  -2.511  0.00  0.00    +0.141 A 
ATOM      3  N   UNL     1       4.115  -2.023  -3.359  0.00  0.00    -0.339 N 
ATOM      4  H   UNL     1       4.755  -1.302  -3.256  0.00  0.00    +0.167 HD
ATOM      5  C   UNL     1       3.215  -2.177  -4.396  0.00  0.00    +0.066 A 
ATOM      6  C   UNL     1       2.924  -1.446  -5.539  0.00  0.00    +0.028 A 
ATOM      7  C   UNL     1       1.938  -1.885  -6.397  0.00  0.00    +0.002 A 
ATOM      8  C   UNL     1       1.235  -3.050  -6.124  0.00  0.00    +0.002 A 
ATOM      9  C   UNL     1       1.508  -3.782  -5.003  0.00  0.00    +0.030 A 
ATOM     10  C   UNL     1       2.504  -3.357  -4.120  0.00  0.00    +0.089 A 
ATOM     11  N   UNL     1       2.999  -3.855  -2.958  0.00  0.00    -0.229 NA
ENDBRANCH   1   2
BRANCH   1  12
ATOM     12  O   UNL     1       5.662  -2.237  -1.069  0.00  0.00    -0.380 OA
ATOM     13  H   UNL     1       6.200  -2.317  -0.270  0.00  0.00    +0.211 HD
ENDBRANCH   1  12
BRANCH   1  14
ATOM     14  C   UNL     1       3.757  -3.322  -0.050  0.00  0.00    +0.117 C 
BRANCH  14  23
ATOM     15  C   UNL     1      -0.017   1.374   0.010  0.00  0.00    +0.002 A 
ATOM     16  C   UNL     1       1.170   2.094   0.002  0.00  0.00    +0.002 A 
ATOM     17  C   UNL     1       2.375   1.450  -0.013  0.00  0.00    +0.030 A 
ATOM     18  C   UNL     1       2.418   0.054  -0.021  0.00  0.00    +0.089 A 
ATOM     19  C   UNL     1       1.217  -0.675  -0.013  0.00  0.00    +0.066 A 
ATOM     20  C   UNL     1       0.002  -0.004   0.002  0.00  0.00    +0.028 A 
ATOM     21  N   UNL     1       1.580  -2.007  -0.023  0.00  0.00    -0.342 N 
ATOM     22  H   UNL     1       0.977  -2.767  -0.022  0.00  0.00    +0.167 HD
ATOM     23  C   UNL     1       2.939  -2.056  -0.037  0.00  0.00    +0.111 A 
ATOM     24  N   UNL     1       3.430  -0.852  -0.035  0.00  0.00    -0.232 NA
ENDBRANCH  14  23
ENDBRANCH   1  14
BRANCH   1  25
ATOM     25  C   UNL     1       5.459  -4.632  -1.328  0.00  0.00    +0.117 C 
BRANCH  25  26
ATOM     26  C   UNL     1       6.404  -4.606  -2.501  0.00  0.00    +0.111 A 
ATOM     27  N   UNL     1       7.739  -4.863  -2.432  0.00  0.00    -0.342 N 
ATOM     28  H   UNL     1       8.240  -5.091  -1.633  0.00  0.00    +0.167 HD
ATOM     29  C   UNL     1       8.247  -4.740  -3.710  0.00  0.00    +0.066 A 
ATOM     30  C   UNL     1       9.512  -4.879  -4.264  0.00  0.00    +0.028 A 
ATOM     31  C   UNL     1       9.690  -4.682  -5.617  0.00  0.00    +0.002 A 
ATOM     32  C   UNL     1       8.613  -4.347  -6.426  0.00  0.00    +0.002 A 
ATOM     33  C   UNL     1       7.361  -4.206  -5.898  0.00  0.00    +0.030 A 
ATOM     34  C   UNL     1       7.157  -4.401  -4.529  0.00  0.00    +0.089 A 
ATOM     35  N   UNL     1       6.063  -4.341  -3.728  0.00  0.00    -0.232 NA
ENDBRANCH  25  26
ENDBRANCH   1  25
TORSDOF 6
