REMARK  Name = ZINC55154979
REMARK  10 active torsions:
REMARK  status: ('A' for Active; 'I' for Inactive)
REMARK    1  A    between atoms: C_1  and  C_2
REMARK    2  A    between atoms: C_2  and  O_3
REMARK    3  A    between atoms: O_3  and  C_4
REMARK    4  A    between atoms: C_9  and  N_10
REMARK    5  A    between atoms: N_10  and  C_11
REMARK    6  A    between atoms: C_11  and  C_13
REMARK    7  A    between atoms: C_11  and  C_14
REMARK    8  A    between atoms: N_16  and  C_17
REMARK    9  A    between atoms: C_20  and  S_23
REMARK   10  A    between atoms: S_23  and  N_26
REMARK                            x       y       z     vdW  Elec       q    Type
REMARK                         _______ _______ _______ _____ _____    ______ ____
ROOT
ATOM      1  C   UNL     1      -6.224  -1.162  -0.542  0.00  0.00    +0.237 C 
ATOM      2  O   UNL     1      -5.838  -0.077  -0.922  0.00  0.00    -0.273 OA
ATOM      3  N   UNL     1      -7.530  -1.484  -0.637  0.00  0.00    -0.284 N 
ATOM      4  H   UNL     1      -7.829  -2.374  -0.397  0.00  0.00    +0.155 HD
ENDROOT
BRANCH   3   5
ATOM      5  C   UNL     1      -8.454  -0.532  -1.083  0.00  0.00    +0.034 A 
ATOM      6  C   UNL     1      -9.735  -0.503  -0.548  0.00  0.00    +0.025 A 
ATOM      7  C   UNL     1     -10.645   0.437  -0.990  0.00  0.00    +0.030 A 
ATOM      8  C   UNL     1     -10.281   1.349  -1.964  0.00  0.00    +0.105 A 
ATOM      9  C   UNL     1      -9.006   1.323  -2.498  0.00  0.00    +0.030 A 
ATOM     10  C   UNL     1      -8.090   0.389  -2.056  0.00  0.00    +0.025 A 
BRANCH   8  11
ATOM     11  S   UNL     1     -11.445   2.548  -2.525  0.00  0.00    +0.056 S 
ATOM     12  O   UNL     1     -11.032   2.936  -3.828  0.00  0.00    -0.153 OA
ATOM     13  O   UNL     1     -12.736   2.015  -2.261  0.00  0.00    -0.153 OA
BRANCH  11  14
ATOM     14  N   UNL     1     -11.278   3.882  -1.559  0.00  0.00    -0.204 NA
ATOM     15  H   UNL     1     -11.467   4.765  -1.914  0.00  0.00    +0.144 HD
ATOM     16  H   UNL     1     -10.991   3.781  -0.638  0.00  0.00    +0.144 HD
ENDBRANCH  11  14
ENDBRANCH   8  11
ENDBRANCH   3   5
BRANCH   1  17
ATOM     17  C   UNL     1      -5.245  -2.151   0.035  0.00  0.00    +0.154 C 
ATOM     18  C   UNL     1      -5.648  -2.488   1.472  0.00  0.00    +0.038 C 
BRANCH  17  19
ATOM     19  N   UNL     1      -3.901  -1.568   0.029  0.00  0.00    -0.330 N 
ATOM     20  H   UNL     1      -3.790  -0.604   0.040  0.00  0.00    +0.147 HD
BRANCH  19  26
ATOM     21  C   UNL     1      -1.498  -1.849   0.001  0.00  0.00    +0.141 A 
ATOM     22  C   UNL     1      -0.388  -2.677  -0.015  0.00  0.00    +0.049 A 
ATOM     23  C   UNL     1      -0.550  -4.051  -0.031  0.00  0.00    +0.024 A 
ATOM     24  C   UNL     1      -1.820  -4.601  -0.032  0.00  0.00    +0.043 A 
ATOM     25  C   UNL     1      -2.933  -3.780  -0.016  0.00  0.00    +0.046 A 
ATOM     26  C   UNL     1      -2.777  -2.401   0.007  0.00  0.00    +0.071 A 
ATOM     27 CL   UNL     1      -2.017  -6.325  -0.052  0.00  0.00    -0.083 Cl
BRANCH  21  28
ATOM     28  O   UNL     1      -1.339  -0.498   0.016  0.00  0.00    -0.490 OA
BRANCH  28  30
ATOM     29  C   UNL     1      -0.021   1.528   0.028  0.00  0.00    +0.048 C 
ATOM     30  C   UNL     1       0.001  -0.002   0.009  0.00  0.00    +0.226 C 
ENDBRANCH  28  30
ENDBRANCH  21  28
ENDBRANCH  19  26
ENDBRANCH  17  19
ENDBRANCH   1  17
TORSDOF 8
