REMARK  Name = ZINC09125700
REMARK  6 active torsions:
REMARK  status: ('A' for Active; 'I' for Inactive)
REMARK    1  A    between atoms: C_4  and  S_9
REMARK    2  A    between atoms: C_5  and  C_7
REMARK    3  A    between atoms: S_9  and  C_10
REMARK    4  A    between atoms: C_15  and  C_16
REMARK    5  A    between atoms: N_18  and  C_19
REMARK    6  A    between atoms: C_20  and  C_28
REMARK                            x       y       z     vdW  Elec       q    Type
REMARK                         _______ _______ _______ _____ _____    ______ ____
ROOT
ATOM      1  C   UNL     1      -1.694   2.197   5.970  0.00  0.00    +0.250 C 
ATOM      2  O   UNL     1      -2.442   3.071   5.575  0.00  0.00    -0.270 OA
ATOM      3  N   UNL     1      -0.750   1.696   5.149  0.00  0.00    -0.275 N 
ATOM      4  H   UNL     1      -0.154   0.999   5.463  0.00  0.00    +0.156 HD
ENDROOT
BRANCH   3   5
ATOM      5  C   UNL     1      -0.631   2.178   3.855  0.00  0.00    +0.085 A 
ATOM      6  C   UNL     1       0.269   1.793   2.871  0.00  0.00    +0.068 A 
ATOM      7  C   UNL     1       0.185   2.461   1.585  0.00  0.00    -0.023 A 
ATOM      8  C   UNL     1      -0.783   3.401   1.487  0.00  0.00    -0.004 A 
ATOM      9  S   UNL     1      -1.570   3.406   3.072  0.00  0.00    -0.077 S 
ATOM     10  C   UNL     1      -1.105   4.245   0.293  0.00  0.00    +0.043 C 
ATOM     11  C   UNL     1       0.067   4.153  -0.695  0.00  0.00    +0.005 C 
ATOM     12  C   UNL     1       0.446   2.681  -0.875  0.00  0.00    +0.005 C 
ATOM     13  C   UNL     1       1.096   2.151   0.404  0.00  0.00    +0.037 C 
BRANCH   6  14
ATOM     14  C   UNL     1       1.269   0.751   3.121  0.00  0.00    +0.244 C 
ATOM     15  O   UNL     1       1.005  -0.415   2.890  0.00  0.00    -0.270 OA
ATOM     16  N   UNL     1       2.482   1.083   3.606  0.00  0.00    -0.325 N 
ATOM     17  H   UNL     1       2.693   2.012   3.790  0.00  0.00    +0.145 HD
ATOM     18  H   UNL     1       3.144   0.394   3.772  0.00  0.00    +0.145 HD
ENDBRANCH   6  14
ENDBRANCH   3   5
BRANCH   1  24
ATOM     19  C   UNL     1      -2.803   2.203   8.205  0.00  0.00    +0.025 A 
ATOM     20  C   UNL     1      -2.912   1.711   9.501  0.00  0.00    +0.016 A 
ATOM     21  C   UNL     1      -2.058   0.720   9.937  0.00  0.00    +0.001 A 
ATOM     22  C   UNL     1      -1.088   0.206   9.091  0.00  0.00    +0.001 A 
ATOM     23  C   UNL     1      -0.968   0.676   7.802  0.00  0.00    +0.014 A 
ATOM     24  C   UNL     1      -1.821   1.685   7.346  0.00  0.00    +0.051 A 
BRANCH  19  25
ATOM     25  S   UNL     1      -3.893   3.469   7.644  0.00  0.00    -0.087 S 
BRANCH  25  29
ATOM     26  C   UNL     1      -6.266   4.598  11.345  0.00  0.00    +0.001 A 
ATOM     27  C   UNL     1      -6.840   3.808  10.361  0.00  0.00    +0.001 A 
ATOM     28  C   UNL     1      -6.122   3.467   9.233  0.00  0.00    +0.016 A 
ATOM     29  C   UNL     1      -4.813   3.907   9.081  0.00  0.00    +0.030 A 
ATOM     30  C   UNL     1      -4.230   4.708  10.076  0.00  0.00    +0.065 A 
ATOM     31  C   UNL     1      -4.971   5.048  11.210  0.00  0.00    +0.020 A 
BRANCH  30  32
ATOM     32  C   UNL     1      -2.883   5.173   9.929  0.00  0.00    +0.100 C 
ATOM     33  N   UNL     1      -1.815   5.542   9.812  0.00  0.00    -0.191 NA
ENDBRANCH  30  32
ENDBRANCH  25  29
ENDBRANCH  19  25
ENDBRANCH   1  24
TORSDOF 6
