REMARK  Name = ZINC39559538
REMARK  5 active torsions:
REMARK  status: ('A' for Active; 'I' for Inactive)
REMARK    1  A    between atoms: C_4  and  C_8
REMARK    2  A    between atoms: C_9  and  C_10
REMARK    3  A    between atoms: N_12  and  C_13
REMARK    4  A    between atoms: C_13  and  C_14
REMARK    5  A    between atoms: N_16  and  C_17
REMARK                            x       y       z     vdW  Elec       q    Type
REMARK                         _______ _______ _______ _____ _____    ______ ____
ROOT
ATOM      1  C   UNL     1       6.730  -5.123   2.785  0.00  0.00    +0.234 C 
ATOM      2  O   UNL     1       5.764  -5.256   3.507  0.00  0.00    -0.274 OA
ATOM      3  N   UNL     1       7.813  -5.907   2.957  0.00  0.00    -0.284 N 
ATOM      4  H   UNL     1       8.559  -5.847   2.340  0.00  0.00    +0.155 HD
ENDROOT
BRANCH   3   5
ATOM      5  C   UNL     1       7.862  -6.809   4.028  0.00  0.00    +0.036 A 
ATOM      6  C   UNL     1       9.070  -7.059   4.670  0.00  0.00    +0.025 A 
ATOM      7  C   UNL     1       9.125  -7.946   5.726  0.00  0.00    +0.029 A 
ATOM      8  C   UNL     1       7.972  -8.591   6.149  0.00  0.00    +0.067 A 
ATOM      9  C   UNL     1       6.757  -8.342   5.506  0.00  0.00    +0.069 A 
ATOM     10  C   UNL     1       6.705  -7.446   4.450  0.00  0.00    +0.051 A 
ATOM     11  N   UNL     1       5.796  -9.122   6.145  0.00  0.00    -0.306 N 
ATOM     12  H   UNL     1       4.854  -9.161   5.918  0.00  0.00    +0.170 HD
ATOM     13  C   UNL     1       6.398  -9.815   7.130  0.00  0.00    +0.325 A 
ATOM     14  O   UNL     1       5.840 -10.593   7.881  0.00  0.00    -0.247 OA
ATOM     15  N   UNL     1       7.710  -9.516   7.159  0.00  0.00    -0.306 N 
ATOM     16  H   UNL     1       8.363  -9.883   7.776  0.00  0.00    +0.170 HD
ENDBRANCH   3   5
BRANCH   1  17
ATOM     17  C   UNL     1       6.720  -4.081   1.697  0.00  0.00    +0.200 C 
BRANCH  17  20
ATOM     18  C   UNL     1       5.204  -2.384   0.826  0.00  0.00    +0.237 C 
ATOM     19  O   UNL     1       6.053  -2.088   0.005  0.00  0.00    -0.271 OA
ATOM     20  N   UNL     1       5.441  -3.367   1.716  0.00  0.00    -0.303 N 
ATOM     21  H   UNL     1       4.764  -3.602   2.371  0.00  0.00    +0.149 HD
BRANCH  18  23
ATOM     22  C   UNL     1       3.689  -0.686  -0.046  0.00  0.00    +0.016 C 
ATOM     23  C   UNL     1       3.926  -1.671   0.846  0.00  0.00    +0.068 C 
BRANCH  22  27
ATOM     24  C   UNL     1      -0.015   1.381   0.009  0.00  0.00    +0.003 A 
ATOM     25  C   UNL     1       1.170   2.095  -0.008  0.00  0.00    +0.020 A 
ATOM     26  C   UNL     1       2.380   1.430  -0.026  0.00  0.00    +0.049 A 
ATOM     27  C   UNL     1       2.405   0.030  -0.026  0.00  0.00    +0.012 A 
ATOM     28  C   UNL     1       1.201  -0.683  -0.008  0.00  0.00    +0.049 A 
ATOM     29  C   UNL     1       0.000  -0.003   0.009  0.00  0.00    +0.020 A 
ATOM     30 CL   UNL     1       1.218  -2.419  -0.009  0.00  0.00    -0.083 Cl
ATOM     31 CL   UNL     1       3.866   2.328  -0.049  0.00  0.00    -0.083 Cl
ENDBRANCH  22  27
ENDBRANCH  18  23
ENDBRANCH  17  20
ENDBRANCH   1  17
TORSDOF 5
