REMARK  Name = ZINC04160679
REMARK  7 active torsions:
REMARK  status: ('A' for Active; 'I' for Inactive)
REMARK    1  A    between atoms: C_1  and  C_2
REMARK    2  A    between atoms: C_6  and  C_15
REMARK    3  A    between atoms: C_13  and  C_14
REMARK    4  A    between atoms: C_15  and  C_17
REMARK    5  A    between atoms: C_15  and  N_63
REMARK    6  A    between atoms: N_21  and  C_22
REMARK    7  A    between atoms: C_30  and  C_33
REMARK                            x       y       z     vdW  Elec       q    Type
REMARK                         _______ _______ _______ _____ _____    ______ ____
ROOT
ATOM      1  C   UNL     1       0.059   1.209   2.425  0.00  0.00    +0.039 C 
ENDROOT
BRANCH   1   7
ATOM      2  C   UNL     1       0.525   5.923   8.184  0.00  0.00    +0.044 C 
ATOM      3  C   UNL     1      -0.261   4.954   7.340  0.00  0.00    -0.047 A 
ATOM      4  C   UNL     1       0.337   4.345   6.273  0.00  0.00    +0.013 A 
ATOM      5  C   UNL     1      -0.392   3.446   5.489  0.00  0.00    -0.001 A 
ATOM      6  C   UNL     1       0.218   2.776   4.338  0.00  0.00    +0.017 A 
ATOM      7  C   UNL     1      -0.538   1.914   3.615  0.00  0.00    +0.011 A 
ATOM      8  C   UNL     1      -1.884   1.679   3.969  0.00  0.00    +0.251 A 
ATOM      9  O   UNL     1      -2.547   0.903   3.303  0.00  0.00    -0.268 OA
ATOM     10  N   UNL     1      -2.451   2.284   5.028  0.00  0.00    -0.322 N 
ATOM     11  H   UNL     1      -3.405   2.087   5.256  0.00  0.00    +0.169 HD
ATOM     12  C   UNL     1      -1.737   3.172   5.804  0.00  0.00    +0.049 A 
ATOM     13  C   UNL     1      -2.325   3.803   6.895  0.00  0.00    +0.030 A 
ATOM     14  C   UNL     1      -1.587   4.686   7.653  0.00  0.00    -0.046 A 
ATOM     15  C   UNL     1      -2.225   5.368   8.835  0.00  0.00    +0.044 C 
ENDBRANCH   1   7
BRANCH   1  22
ATOM     16  C   UNL     1      -0.274   0.704   0.081  0.00  0.00    -0.077 C 
ATOM     17  C   UNL     1      -1.255   0.845  -1.085  0.00  0.00    -0.018 C 
ATOM     18  C   UNL     1      -1.425   2.328  -1.425  0.00  0.00    -0.001 C 
ATOM     19  C   UNL     1      -1.914   3.077  -0.182  0.00  0.00    -0.031 C 
ATOM     20  C   UNL     1      -0.914   2.870   0.957  0.00  0.00    -0.074 C 
ATOM     21  C   UNL     1      -2.030   4.569  -0.496  0.00  0.00    +0.005 C 
ATOM     22  N   UNL     1      -0.814   1.425   1.253  0.00  0.00    +0.389 N 
ATOM     23  H   UNL     1      -1.752   1.063   1.464  0.00  0.00    -0.080 HD
ENDBRANCH   1  22
BRANCH   1  24
ATOM     24  C   UNL     1       0.141  -0.270   2.706  0.00  0.00    +0.143 A 
ATOM     25  N   UNL     1      -0.854  -1.122   2.713  0.00  0.00    -0.115 NA
ATOM     26  N   UNL     1      -0.380  -2.286   2.993  0.00  0.00    -0.023 NA
ATOM     27  N   UNL     1       0.892  -2.198   3.174  0.00  0.00    -0.044 NA
ATOM     28  N   UNL     1       1.251  -0.970   3.005  0.00  0.00    -0.227 N 
BRANCH  28  29
ATOM     29  C   UNL     1       2.612  -0.438   3.119  0.00  0.00    +0.111 C 
ATOM     30  C   UNL     1       3.548  -1.168   2.134  0.00  0.00    +0.027 C 
ATOM     31  C   UNL     1       4.886  -1.296   2.907  0.00  0.00    +0.002 C 
ATOM     32  C   UNL     1       4.418  -1.583   4.355  0.00  0.00    +0.002 C 
ATOM     33  C   UNL     1       3.164  -0.702   4.530  0.00  0.00    +0.027 C 
ENDBRANCH  28  29
ENDBRANCH   1  24
TORSDOF 4
