REMARK  Name = ZINC09577855
REMARK  7 active torsions:
REMARK  status: ('A' for Active; 'I' for Inactive)
REMARK    1  A    between atoms: C_1  and  C_2
REMARK    2  A    between atoms: C_3  and  C_25
REMARK    3  A    between atoms: C_4  and  C_24
REMARK    4  A    between atoms: C_7  and  C_8
REMARK    5  A    between atoms: N_10  and  N_11
REMARK    6  A    between atoms: C_17  and  C_20
REMARK    7  A    between atoms: C_25  and  C_27
REMARK                            x       y       z     vdW  Elec       q    Type
REMARK                         _______ _______ _______ _____ _____    ______ ____
ROOT
ATOM      1  C   UNL     1       2.498   1.325  -0.014  0.00  0.00    +0.277 C 
ATOM      2  O   UNL     1       3.403   2.139  -0.012  0.00  0.00    -0.267 OA
ATOM      3  N   UNL     1       2.778   0.007  -0.030  0.00  0.00    -0.218 N 
ATOM      4  H   UNL     1       2.057  -0.642  -0.032  0.00  0.00    +0.174 HD
ENDROOT
BRANCH   3   5
ATOM      5  N   UNL     1       4.111  -0.426  -0.045  0.00  0.00    -0.137 N 
ATOM      6  C   UNL     1       4.750  -0.947   1.023  0.00  0.00    +0.263 C 
ATOM      7  O   UNL     1       4.300  -1.123   2.134  0.00  0.00    -0.271 OA
ATOM      8  C   UNL     1       6.147  -1.266   0.540  0.00  0.00    +0.114 C 
ATOM      9  C   UNL     1       6.421  -2.761   0.659  0.00  0.00    +0.035 C 
ATOM     10  C   UNL     1       7.829  -3.067   0.140  0.00  0.00    +0.006 C 
ATOM     11  C   UNL     1       8.855  -2.277   0.955  0.00  0.00    -0.014 C 
ATOM     12  C   UNL     1       8.581  -0.779   0.806  0.00  0.00    +0.006 C 
ATOM     13  C   UNL     1       7.177  -0.464   1.327  0.00  0.00    +0.035 C 
ATOM     14  C   UNL     1      10.262  -2.592   0.445  0.00  0.00    +0.007 C 
ATOM     15  N   UNL     1       6.140  -0.854  -0.869  0.00  0.00    -0.284 N 
ATOM     16  C   UNL     1       4.905  -0.380  -1.121  0.00  0.00    +0.326 C 
ATOM     17  O   UNL     1       4.552   0.044  -2.204  0.00  0.00    -0.251 OA
ATOM     18  H   UNL     1       6.878  -0.915  -1.496  0.00  0.00    +0.151 HD
ENDBRANCH   3   5
BRANCH   1  25
ATOM     19  C   UNL     1       1.566   4.300   0.025  0.00  0.00    +0.047 C 
ATOM     20  C   UNL     1       0.686   3.076   0.018  0.00  0.00    -0.010 A 
ATOM     21  C   UNL     1      -0.730   3.057   0.028  0.00  0.00    +0.041 A 
ATOM     22  C   UNL     1      -1.115   1.725   0.011  0.00  0.00    +0.024 A 
ATOM     23  N   UNL     1      -0.011   0.966   0.001  0.00  0.00    -0.354 N 
ATOM     24  H   UNL     1       0.004  -0.004  -0.010  0.00  0.00    +0.166 HD
ATOM     25  C   UNL     1       1.102   1.779   0.002  0.00  0.00    +0.107 A 
ATOM     26  C   UNL     1      -2.535   1.218   0.009  0.00  0.00    +0.064 C 
BRANCH  21  27
ATOM     27  C   UNL     1      -1.618   4.223   0.046  0.00  0.00    +0.162 C 
ATOM     28  O   UNL     1      -1.924   4.768  -0.994  0.00  0.00    -0.292 OA
ATOM     29  C   UNL     1      -2.152   4.743   1.356  0.00  0.00    +0.091 C 
ENDBRANCH  21  27
ENDBRANCH   1  25
TORSDOF 3
