REMARK  Name = ZINC08498015
REMARK  11 active torsions:
REMARK  status: ('A' for Active; 'I' for Inactive)
REMARK    1  A    between atoms: C_1  and  C_2
REMARK    2  A    between atoms: C_2  and  C_4
REMARK    3  A    between atoms: C_2  and  O_18
REMARK    4  A    between atoms: C_4  and  C_6
REMARK    5  A    between atoms: C_9  and  N_12
REMARK    6  A    between atoms: C_13  and  C_15
REMARK    7  A    between atoms: C_15  and  C_16
REMARK    8  A    between atoms: C_15  and  C_17
REMARK    9  A    between atoms: O_18  and  C_19
REMARK   10  A    between atoms: C_19  and  C_21
REMARK   11  A    between atoms: C_25  and  N_27
REMARK                            x       y       z     vdW  Elec       q    Type
REMARK                         _______ _______ _______ _____ _____    ______ ____
ROOT
ATOM      1  C   UNL     1       0.249   1.306   0.190  0.00  0.00    +0.061 C 
ATOM      2  C   UNL     1       0.073  -0.208   0.059  0.00  0.00    +0.244 C 
ENDROOT
BRANCH   2   3
ATOM      3  C   UNL     1      -1.396  -0.541   0.023  0.00  0.00    +0.203 C 
ATOM      4  O   UNL     1      -1.922  -0.853  -1.025  0.00  0.00    -0.288 OA
BRANCH   3   5
ATOM      5  C   UNL     1      -2.192  -0.489   1.257  0.00  0.00    +0.021 A 
ATOM      6  C   UNL     1      -1.588  -0.124   2.467  0.00  0.00    +0.013 A 
ATOM      7  C   UNL     1      -2.334  -0.076   3.616  0.00  0.00    +0.024 A 
ATOM      8  C   UNL     1      -3.690  -0.390   3.581  0.00  0.00    +0.033 A 
ATOM      9  C   UNL     1      -4.294  -0.754   2.381  0.00  0.00    +0.024 A 
ATOM     10  C   UNL     1      -3.557  -0.799   1.226  0.00  0.00    +0.013 A 
BRANCH   8  11
ATOM     11  N   UNL     1      -4.444  -0.340   4.751  0.00  0.00    -0.285 N 
ATOM     12  C   UNL     1      -4.160   0.576   5.698  0.00  0.00    +0.220 C 
ATOM     13  O   UNL     1      -3.311   1.418   5.492  0.00  0.00    -0.275 OA
ATOM     14  H   UNL     1      -5.174  -0.965   4.885  0.00  0.00    +0.155 HD
BRANCH  12  15
ATOM     15  C   UNL     1      -4.896   0.555   7.013  0.00  0.00    +0.069 C 
ATOM     16  C   UNL     1      -4.654  -0.785   7.711  0.00  0.00    +0.017 C 
ATOM     17  C   UNL     1      -4.387   1.692   7.901  0.00  0.00    +0.017 C 
ENDBRANCH  12  15
ENDBRANCH   8  11
ENDBRANCH   3   5
ENDBRANCH   2   3
BRANCH   2  18
ATOM     18  O   UNL     1       0.693  -0.657  -1.148  0.00  0.00    -0.450 OA
BRANCH  18  19
ATOM     19  C   UNL     1       1.988  -1.020  -1.071  0.00  0.00    +0.340 C 
ATOM     20  O   UNL     1       2.575  -0.957  -0.010  0.00  0.00    -0.245 OA
BRANCH  19  21
ATOM     21  C   UNL     1       2.694  -1.494  -2.278  0.00  0.00    +0.061 A 
ATOM     22  C   UNL     1       2.023  -1.562  -3.502  0.00  0.00    +0.016 A 
ATOM     23  C   UNL     1       2.684  -2.005  -4.628  0.00  0.00    +0.022 A 
ATOM     24  C   UNL     1       4.013  -2.384  -4.551  0.00  0.00    +0.062 A 
ATOM     25  C   UNL     1       4.690  -2.320  -3.338  0.00  0.00    +0.044 A 
ATOM     26  C   UNL     1       4.036  -1.871  -2.202  0.00  0.00    +0.039 A 
ATOM     27 CL   UNL     1       4.838  -2.941  -5.974  0.00  0.00    -0.082 Cl
BRANCH  25  28
ATOM     28  N   UNL     1       6.032  -2.704  -3.265  0.00  0.00    -0.357 N 
ATOM     29  H   UNL     1       6.492  -3.015  -4.061  0.00  0.00    +0.142 HD
ATOM     30  H   UNL     1       6.505  -2.660  -2.419  0.00  0.00    +0.142 HD
ENDBRANCH  25  28
ENDBRANCH  19  21
ENDBRANCH  18  19
ENDBRANCH   2  18
TORSDOF 8
