REMARK  Name = ZINC21350161
REMARK  7 active torsions:
REMARK  status: ('A' for Active; 'I' for Inactive)
REMARK    1  A    between atoms: C_1  and  C_2
REMARK    2  A    between atoms: C_7  and  N_8
REMARK    3  A    between atoms: C_9  and  C_11
REMARK    4  A    between atoms: N_16  and  C_18
REMARK    5  A    between atoms: C_18  and  C_19
REMARK    6  A    between atoms: C_18  and  C_20
REMARK    7  A    between atoms: C_18  and  C_21
REMARK                            x       y       z     vdW  Elec       q    Type
REMARK                         _______ _______ _______ _____ _____    ______ ____
ROOT
ATOM      1  N   UNL     1       1.058   2.988   2.140  0.00  0.00    -0.285 N 
ATOM      2  C   UNL     1      -0.218   2.922   1.713  0.00  0.00    +0.222 C 
ATOM      3  O   UNL     1      -0.913   3.916   1.721  0.00  0.00    -0.275 OA
ATOM      4  H   UNL     1       1.660   2.071   2.219  0.00  0.00    +0.155 HD
ENDROOT
BRANCH   1  11
ATOM      5  C   UNL     1       3.240   3.014   3.966  0.00  0.00    +0.046 C 
ATOM      6  C   UNL     1       2.685   4.282   3.371  0.00  0.00    -0.028 A 
ATOM      7  C   UNL     1       3.236   5.503   3.707  0.00  0.00    +0.020 A 
ATOM      8  C   UNL     1       2.725   6.668   3.162  0.00  0.00    +0.018 A 
ATOM      9  C   UNL     1       1.662   6.613   2.278  0.00  0.00    +0.017 A 
ATOM     10  C   UNL     1       1.111   5.394   1.933  0.00  0.00    +0.024 A 
ATOM     11  C   UNL     1       1.618   4.224   2.483  0.00  0.00    +0.036 A 
ATOM     12 BR   UNL     1       3.481   8.338   3.626  0.00  0.00    -0.050 Br
ENDBRANCH   1  11
BRANCH   2  13
ATOM     13  C   UNL     1      -0.783   1.613   1.225  0.00  0.00    +0.101 C 
ATOM     14  C   UNL     1      -0.004   1.100  -0.008  0.00  0.00    +0.110 C 
ATOM     15  C   UNL     1      -0.784   1.632  -1.190  0.00  0.00    +0.217 C 
ATOM     16  O   UNL     1      -0.365   1.697  -2.327  0.00  0.00    -0.276 OA
ATOM     17  N   UNL     1      -2.008   2.024  -0.798  0.00  0.00    -0.296 N 
ATOM     18  C   UNL     1      -2.203   1.804   0.640  0.00  0.00    +0.121 C 
BRANCH  17  19
ATOM     19  C   UNL     1      -3.019   2.597  -1.691  0.00  0.00    +0.029 C 
ATOM     20  C   UNL     1      -2.458   2.673  -3.113  0.00  0.00    +0.031 C 
ATOM     21  C   UNL     1      -4.268   1.713  -1.681  0.00  0.00    +0.031 C 
ATOM     22  C   UNL     1      -3.385   4.003  -1.211  0.00  0.00    +0.031 C 
ENDBRANCH  17  19
ENDBRANCH   2  13
TORSDOF 3
