REMARK  Name = ZINC41038069
REMARK  3 active torsions:
REMARK  status: ('A' for Active; 'I' for Inactive)
REMARK    1  A    between atoms: C_1  and  C_2
REMARK    2  A    between atoms: C_8  and  C_9
REMARK    3  A    between atoms: C_8  and  N_12
REMARK                            x       y       z     vdW  Elec       q    Type
REMARK                         _______ _______ _______ _____ _____    ______ ____
ROOT
ATOM      1  C   UNL     1      -0.019   1.526   0.010  0.00  0.00    +0.010 C 
ATOM      2  C   UNL     1       0.002  -0.004   0.002  0.00  0.00    +0.020 C 
ATOM      3  C   UNL     1       0.718  -0.497  -1.257  0.00  0.00    +0.006 C 
ATOM      4  C   UNL     1       0.739  -2.027  -1.265  0.00  0.00    +0.000 C 
ATOM      5  C   UNL     1       1.479  -2.534  -0.026  0.00  0.00    +0.003 C 
ATOM      6  C   UNL     1       0.763  -2.041   1.233  0.00  0.00    +0.038 C 
ATOM      7  C   UNL     1       0.742  -0.511   1.242  0.00  0.00    +0.140 C 
ENDROOT
BRANCH   7   8
ATOM      8  N   UNL     1       2.116  -0.004   1.231  0.00  0.00    -0.284 N 
ATOM      9  C   UNL     1       2.960  -0.324   2.232  0.00  0.00    +0.298 C 
ATOM     10  O   UNL     1       2.581  -1.033   3.144  0.00  0.00    -0.253 OA
ATOM     11  N   UNL     1       4.225   0.143   2.223  0.00  0.00    -0.313 N 
ATOM     12  H   UNL     1       2.419   0.562   0.504  0.00  0.00    +0.151 HD
ATOM     13  H   UNL     1       4.527   0.709   1.495  0.00  0.00    +0.146 HD
ATOM     14  H   UNL     1       4.832  -0.087   2.943  0.00  0.00    +0.146 HD
ENDBRANCH   7   8
BRANCH   7  15
ATOM     15  C   UNL     1       0.037  -0.025   2.481  0.00  0.00    +0.379 C 
ATOM     16  O   UNL     1      -1.125  -0.336   2.684  0.00  0.00    -0.244 OA
ATOM     17  O   UNL     1       0.627   0.680   3.282  0.00  0.00    -0.244 OA
ENDBRANCH   7  15
TORSDOF 2
