REMARK  Name = ZINC05345237
REMARK  7 active torsions:
REMARK  status: ('A' for Active; 'I' for Inactive)
REMARK    1  A    between atoms: C_1  and  O_2
REMARK    2  A    between atoms: O_2  and  C_3
REMARK    3  A    between atoms: C_6  and  C_9
REMARK    4  A    between atoms: C_20  and  C_22
REMARK    5  A    between atoms: N_23  and  N_24
REMARK    6  A    between atoms: N_24  and  C_25
REMARK    7  A    between atoms: C_25  and  N_27
REMARK                            x       y       z     vdW  Elec       q    Type
REMARK                         _______ _______ _______ _____ _____    ______ ____
ROOT
ATOM      1  C   UNL     1      -1.420   2.873   1.276  0.00  0.00    +0.067 C 
ATOM      2  C   UNL     1      -2.675   3.676   1.305  0.00  0.00    +0.033 A 
ATOM      3  C   UNL     1      -3.495   4.018   0.290  0.00  0.00    +0.087 A 
ATOM      4  N   UNL     1      -4.588   4.782   0.625  0.00  0.00    -0.311 N 
ATOM      5  H   UNL     1      -5.212   5.059  -0.064  0.00  0.00    +0.170 HD
ATOM      6  C   UNL     1      -4.797   5.146   1.906  0.00  0.00    +0.289 A 
ATOM      7  O   UNL     1      -5.705   5.812   2.373  0.00  0.00    -0.260 OA
ATOM      8  S   UNL     1      -3.445   4.425   2.720  0.00  0.00    -0.030 S 
ATOM      9  S   UNL     1      -3.143   3.489  -1.374  0.00  0.00    -0.106 S 
ATOM     10  C   UNL     1      -1.428   2.898  -1.228  0.00  0.00    +0.086 C 
ATOM     11  C   UNL     1      -1.331   2.012   0.019  0.00  0.00    +0.054 C 
ENDROOT
BRANCH   1  15
ATOM     12  C   UNL     1      -1.310   0.337   4.715  0.00  0.00    +0.120 A 
ATOM     13  C   UNL     1      -0.334   1.306   4.534  0.00  0.00    +0.046 A 
ATOM     14  C   UNL     1      -0.371   2.124   3.422  0.00  0.00    +0.008 A 
ATOM     15  C   UNL     1      -1.381   1.978   2.489  0.00  0.00    -0.039 A 
ATOM     16  C   UNL     1      -2.359   1.017   2.669  0.00  0.00    +0.008 A 
ATOM     17  C   UNL     1      -2.322   0.193   3.777  0.00  0.00    +0.046 A 
BRANCH  12  19
ATOM     18  C   UNL     1      -2.313  -1.444   5.928  0.00  0.00    +0.277 C 
ATOM     19  O   UNL     1      -1.276  -0.469   5.808  0.00  0.00    -0.495 OA
ENDBRANCH  12  19
ENDBRANCH   1  15
BRANCH  11  20
ATOM     20  C   UNL     1      -0.015   1.276   0.009  0.00  0.00    +0.108 C 
ATOM     21  N   UNL     1       0.002  -0.004   0.002  0.00  0.00    -0.193 NA
BRANCH  21  22
ATOM     22  N   UNL     1       1.225  -0.688  -0.013  0.00  0.00    -0.219 N 
ATOM     23  H   UNL     1       2.058  -0.192  -0.019  0.00  0.00    +0.176 HD
BRANCH  22  24
ATOM     24  C   UNL     1       1.243  -2.036  -0.021  0.00  0.00    +0.147 C 
ATOM     25  S   UNL     1       2.737  -2.871  -0.040  0.00  0.00    -0.017 S 
BRANCH  24  26
ATOM     26  N   UNL     1       0.085  -2.725  -0.013  0.00  0.00    -0.339 N 
ATOM     27  H   UNL     1      -0.761  -2.252  -0.003  0.00  0.00    +0.144 HD
ATOM     28  H   UNL     1       0.098  -3.695  -0.019  0.00  0.00    +0.144 HD
ENDBRANCH  24  26
ENDBRANCH  22  24
ENDBRANCH  21  22
ENDBRANCH  11  20
TORSDOF 6
