REMARK  Name = ZINC20990065
REMARK  10 active torsions:
REMARK  status: ('A' for Active; 'I' for Inactive)
REMARK    1  A    between atoms: C_1  and  C_2
REMARK    2  A    between atoms: C_7  and  S_8
REMARK    3  A    between atoms: S_8  and  N_11
REMARK    4  A    between atoms: N_11  and  C_12
REMARK    5  A    between atoms: C_12  and  C_13
REMARK    6  A    between atoms: C_13  and  C_14
REMARK    7  A    between atoms: C_17  and  S_20
REMARK    8  A    between atoms: S_20  and  N_23
REMARK    9  A    between atoms: C_31  and  C_33
REMARK   10  A    between atoms: C_31  and  C_34
REMARK                            x       y       z     vdW  Elec       q    Type
REMARK                         _______ _______ _______ _____ _____    ______ ____
ROOT
ATOM      1  S   UNL     1       5.038   2.211  -0.446  0.00  0.00    +0.059 S 
ATOM      2  O   UNL     1       5.200   0.808  -0.607  0.00  0.00    -0.153 OA
ATOM      3  O   UNL     1       5.323   3.135  -1.486  0.00  0.00    -0.153 OA
ENDROOT
BRANCH   1  10
ATOM      4  C   UNL     1       3.871   4.917   0.208  0.00  0.00    +0.046 C 
ATOM      5  C   UNL     1       2.914   3.757   0.296  0.00  0.00    -0.023 A 
ATOM      6  C   UNL     1       1.602   3.975   0.656  0.00  0.00    +0.016 A 
ATOM      7  C   UNL     1       0.718   2.903   0.738  0.00  0.00    +0.011 A 
ATOM      8  C   UNL     1       1.167   1.600   0.454  0.00  0.00    +0.049 A 
ATOM      9  C   UNL     1       2.495   1.401   0.091  0.00  0.00    +0.055 A 
ATOM     10  C   UNL     1       3.357   2.473   0.014  0.00  0.00    +0.110 A 
ATOM     11  N   UNL     1       0.096   0.739   0.612  0.00  0.00    -0.357 N 
ATOM     12  H   UNL     1       0.227  -0.339   0.438  0.00  0.00    +0.166 HD
ATOM     13  C   UNL     1      -1.002   1.412   0.977  0.00  0.00    +0.028 A 
ATOM     14  C   UNL     1      -0.700   2.762   1.078  0.00  0.00    +0.046 A 
ATOM     15  C   UNL     1      -1.660   3.736   1.444  0.00  0.00    +0.166 C 
ATOM     16  O   UNL     1      -1.359   4.906   1.556  0.00  0.00    -0.292 OA
ATOM     17  C   UNL     1      -3.077   3.264   1.693  0.00  0.00    +0.086 C 
ATOM     18  C   UNL     1      -3.063   1.844   2.259  0.00  0.00    -0.023 C 
ATOM     19  C   UNL     1      -2.384   0.880   1.278  0.00  0.00    +0.060 C 
ATOM     20  C   UNL     1      -2.300   1.836   3.584  0.00  0.00    +0.011 C 
ATOM     21  C   UNL     1      -4.502   1.384   2.502  0.00  0.00    +0.011 C 
ENDBRANCH   1  10
BRANCH   1  22
ATOM     22  N   UNL     1       5.974   2.650   0.848  0.00  0.00    -0.190 NA
ATOM     23  H   UNL     1       6.564   3.576   0.795  0.00  0.00    +0.148 HD
BRANCH  22  24
ATOM     24  C   UNL     1       5.847   1.934   2.120  0.00  0.00    +0.110 C 
BRANCH  24  25
ATOM     25  C   UNL     1       7.054   2.250   3.006  0.00  0.00    +0.052 C 
BRANCH  25  26
ATOM     26  C   UNL     1       6.923   1.514   4.314  0.00  0.00    -0.046 A 
ATOM     27  C   UNL     1       6.282   2.113   5.383  0.00  0.00    +0.005 A 
ATOM     28  C   UNL     1       6.158   1.436   6.582  0.00  0.00    +0.029 A 
ATOM     29  C   UNL     1       6.684   0.164   6.715  0.00  0.00    +0.105 A 
ATOM     30  C   UNL     1       7.330  -0.432   5.649  0.00  0.00    +0.029 A 
ATOM     31  C   UNL     1       7.450   0.243   4.448  0.00  0.00    +0.005 A 
BRANCH  29  32
ATOM     32  S   UNL     1       6.530  -0.697   8.245  0.00  0.00    +0.056 S 
ATOM     33  O   UNL     1       5.407  -0.139   8.914  0.00  0.00    -0.153 OA
ATOM     34  O   UNL     1       6.626  -2.082   7.943  0.00  0.00    -0.153 OA
BRANCH  32  35
ATOM     35  N   UNL     1       7.860  -0.318   9.156  0.00  0.00    -0.204 NA
ATOM     36  H   UNL     1       7.802  -0.838  10.124  0.00  0.00    +0.144 HD
ATOM     37  H   UNL     1       7.891   0.769   9.325  0.00  0.00    +0.144 HD
ENDBRANCH  32  35
ENDBRANCH  29  32
ENDBRANCH  25  26
ENDBRANCH  24  25
ENDBRANCH  22  24
ENDBRANCH   1  22
TORSDOF 7
