REMARK  Name = ZINC50030432
REMARK  6 active torsions:
REMARK  status: ('A' for Active; 'I' for Inactive)
REMARK    1  A    between atoms: C_1  and  O_2
REMARK    2  A    between atoms: O_2  and  C_3
REMARK    3  A    between atoms: C_3  and  C_5
REMARK    4  A    between atoms: C_7  and  N_13
REMARK    5  A    between atoms: C_10  and  N_11
REMARK    6  A    between atoms: N_13  and  C_14
REMARK                            x       y       z     vdW  Elec       q    Type
REMARK                         _______ _______ _______ _____ _____    ______ ____
ROOT
ATOM      1  C   UNL     1      -1.246  -2.103   0.013  0.00  0.00    +0.081 A 
ATOM      2  C   UNL     1      -0.070  -2.852  -0.102  0.00  0.00    +0.042 A 
ATOM      3  C   UNL     1      -0.131  -4.232  -0.119  0.00  0.00    +0.064 A 
ATOM      4  C   UNL     1      -1.362  -4.880  -0.022  0.00  0.00    +0.146 A 
ATOM      5  C   UNL     1      -2.529  -4.149   0.091  0.00  0.00    +0.063 A 
ATOM      6  C   UNL     1      -2.482  -2.761   0.117  0.00  0.00    +0.042 A 
ATOM      7  F   UNL     1      -1.414  -6.230  -0.040  0.00  0.00    -0.203 F 
ENDROOT
BRANCH   6   8
ATOM      8  N   UNL     1      -3.656  -2.026   0.237  0.00  0.00    -0.357 N 
ATOM      9  H   UNL     1      -3.632  -1.058   0.170  0.00  0.00    +0.142 HD
ATOM     10  H   UNL     1      -4.500  -2.480   0.389  0.00  0.00    +0.142 HD
ENDBRANCH   6   8
BRANCH   1  11
ATOM     11  C   UNL     1      -1.188  -0.633   0.032  0.00  0.00    +0.341 C 
ATOM     12  O   UNL     1      -2.216   0.016   0.024  0.00  0.00    -0.245 OA
BRANCH  11  14
ATOM     13  C   UNL     1      -0.014   1.423   0.076  0.00  0.00    +0.280 C 
ATOM     14  O   UNL     1       0.004  -0.006   0.059  0.00  0.00    -0.464 OA
ENDBRANCH  11  14
ENDBRANCH   1  11
BRANCH   3  15
ATOM     15  N   UNL     1       1.047  -4.982  -0.234  0.00  0.00    -0.339 N 
ATOM     16  H   UNL     1       1.005  -5.951  -0.246  0.00  0.00    +0.146 HD
BRANCH  15  17
ATOM     17  C   UNL     1       2.341  -4.303  -0.336  0.00  0.00    +0.073 C 
ATOM     18  C   UNL     1       2.588  -3.909  -1.789  0.00  0.00    +0.045 C 
ATOM     19  C   UNL     1       3.794  -2.970  -1.878  0.00  0.00    +0.167 C 
ATOM     20  S   UNL     1       5.274  -3.859  -1.312  0.00  0.00    -0.031 S 
ATOM     21  O   UNL     1       6.324  -2.918  -1.129  0.00  0.00    -0.174 OA
ATOM     22  O   UNL     1       5.485  -4.976  -2.165  0.00  0.00    -0.174 OA
ATOM     23  C   UNL     1       4.751  -4.465   0.320  0.00  0.00    +0.167 C 
ATOM     24  C   UNL     1       3.439  -5.237   0.164  0.00  0.00    +0.045 C 
ENDBRANCH  15  17
ENDBRANCH   3  15
TORSDOF 5
