REMARK  Name = ZINC00753443
REMARK  6 active torsions:
REMARK  status: ('A' for Active; 'I' for Inactive)
REMARK    1  A    between atoms: C_1  and  C_2
REMARK    2  A    between atoms: C_2  and  O_3
REMARK    3  A    between atoms: O_3  and  C_4
REMARK    4  A    between atoms: C_9  and  C_10
REMARK    5  A    between atoms: C_24  and  N_28
REMARK    6  A    between atoms: C_25  and  C_26
REMARK                            x       y       z     vdW  Elec       q    Type
REMARK                         _______ _______ _______ _____ _____    ______ ____
ROOT
ATOM      1  C   UNL     1       0.026  -4.258  -0.012  0.00  0.00    +0.107 C 
ATOM      2  C   UNL     1       0.068  -2.753  -0.010  0.00  0.00    +0.072 A 
ATOM      3  C   UNL     1       1.264  -2.091  -0.019  0.00  0.00    +0.148 A 
ATOM      4  C   UNL     1       1.248  -0.676  -0.014  0.00  0.00    +0.041 A 
ATOM      5  C   UNL     1       2.436   0.067  -0.023  0.00  0.00    +0.013 A 
ATOM      6  C   UNL     1       2.380   1.429  -0.016  0.00  0.00    +0.001 A 
ATOM      7  C   UNL     1       1.156   2.092  -0.001  0.00  0.00    +0.002 A 
ATOM      8  C   UNL     1      -0.017   1.401   0.007  0.00  0.00    +0.026 A 
ATOM      9  C   UNL     1       0.002  -0.004   0.000  0.00  0.00    +0.053 A 
ATOM     10  N   UNL     1      -1.135  -0.710   0.006  0.00  0.00    -0.322 N 
ATOM     11  C   UNL     1      -1.126  -2.026   0.002  0.00  0.00    +0.257 A 
ATOM     12  O   UNL     1      -2.306  -2.695   0.009  0.00  0.00    -0.267 OA
ATOM     13  O   UNL     1       2.438  -2.757  -0.033  0.00  0.00    -0.440 OA
ATOM     14  C   UNL     1       2.474  -4.046  -0.414  0.00  0.00    +0.199 C 
ATOM     15  C   UNL     1       1.359  -4.815  -0.427  0.00  0.00    +0.098 C 
ATOM     16  H   UNL     1      -2.011  -0.227   0.015  0.00  0.00    +0.169 HD
ENDROOT
BRANCH   1  22
ATOM     17  C   UNL     1      -1.450  -5.514   1.579  0.00  0.00    +0.125 A 
ATOM     18  C   UNL     1      -1.758  -5.966   2.854  0.00  0.00    +0.046 A 
ATOM     19  C   UNL     1      -0.930  -5.653   3.914  0.00  0.00    +0.004 A 
ATOM     20  C   UNL     1       0.204  -4.890   3.706  0.00  0.00    +0.001 A 
ATOM     21  C   UNL     1       0.516  -4.444   2.435  0.00  0.00    +0.008 A 
ATOM     22  C   UNL     1      -0.311  -4.749   1.372  0.00  0.00    +0.007 A 
BRANCH  17  23
ATOM     23  O   UNL     1      -2.263  -5.820   0.534  0.00  0.00    -0.492 OA
BRANCH  23  25
ATOM     24  C   UNL     1      -4.205  -6.852  -0.470  0.00  0.00    +0.048 C 
ATOM     25  C   UNL     1      -3.418  -6.612   0.820  0.00  0.00    +0.225 C 
ENDBRANCH  23  25
ENDBRANCH  17  23
ENDBRANCH   1  22
BRANCH  14  26
ATOM     26  N   UNL     1       3.671  -4.596  -0.801  0.00  0.00    -0.328 N 
ATOM     27  H   UNL     1       4.477  -4.056  -0.796  0.00  0.00    +0.145 HD
ATOM     28  H   UNL     1       3.711  -5.525  -1.078  0.00  0.00    +0.145 HD
ENDBRANCH  14  26
BRANCH  15  29
ATOM     29  C   UNL     1       1.451  -6.182  -0.843  0.00  0.00    +0.101 C 
ATOM     30  N   UNL     1       1.525  -7.267  -1.172  0.00  0.00    -0.191 NA
ENDBRANCH  15  29
TORSDOF 5
