REMARK  Name = ZINC16983299
REMARK  3 active torsions:
REMARK  status: ('A' for Active; 'I' for Inactive)
REMARK    1  A    between atoms: C_1  and  C_2
REMARK    2  A    between atoms: C_2  and  O_3
REMARK    3  A    between atoms: O_3  and  C_4
REMARK                            x       y       z     vdW  Elec       q    Type
REMARK                         _______ _______ _______ _____ _____    ______ ____
ROOT
ATOM      1  C   UNL     1       0.802  -1.826   1.306  0.00  0.00    +0.168 C 
ATOM      2  C   UNL     1       0.269  -2.659   0.367  0.00  0.00    +0.060 C 
ATOM      3  C   UNL     1       0.383  -4.053   0.520  0.00  0.00    +0.017 C 
ATOM      4  C   UNL     1      -0.187  -4.947  -0.485  0.00  0.00    +0.128 C 
ATOM      5  N   UNL     1      -0.084  -6.280  -0.338  0.00  0.00    -0.220 N 
ATOM      6  N   UNL     1      -0.627  -7.145  -1.295  0.00  0.00    -0.144 NA
ATOM      7  C   UNL     1      -1.240  -6.678  -2.342  0.00  0.00    +0.259 C 
ATOM      8  N   UNL     1      -1.854  -7.295  -3.417  0.00  0.00    -0.111 NA
ATOM      9  N   UNL     1      -2.346  -6.272  -4.242  0.00  0.00    -0.223 N 
ATOM     10  C   UNL     1      -2.034  -5.092  -3.675  0.00  0.00    +0.174 C 
ATOM     11  S   UNL     1      -2.426  -3.553  -4.315  0.00  0.00    -0.015 S 
ATOM     12  N   UNL     1      -1.367  -5.310  -2.528  0.00  0.00    -0.165 N 
ATOM     13  N   UNL     1      -0.831  -4.433  -1.572  0.00  0.00    -0.241 N 
ATOM     14  C   UNL     1       1.045  -4.584   1.638  0.00  0.00    +0.015 C 
ATOM     15  C   UNL     1       1.578  -3.751   2.575  0.00  0.00    +0.055 C 
ATOM     16  C   UNL     1       1.470  -2.362   2.423  0.00  0.00    +0.220 C 
ATOM     17  O   UNL     1       1.997  -1.547   3.339  0.00  0.00    -0.284 OA
ATOM     18  H   UNL     1       0.370  -6.645   0.438  0.00  0.00    +0.176 HD
ATOM     19  H   UNL     1      -2.827  -6.395  -5.076  0.00  0.00    +0.174 HD
ATOM     20  H   UNL     1      -0.914  -3.474  -1.685  0.00  0.00    +0.172 HD
ENDROOT
BRANCH   1  21
ATOM     21  O   UNL     1       0.693  -0.477   1.160  0.00  0.00    -0.488 OA
BRANCH  21  23
ATOM     22  C   UNL     1      -0.019   1.526   0.010  0.00  0.00    +0.048 C 
ATOM     23  C   UNL     1       0.002  -0.004   0.002  0.00  0.00    +0.226 C 
ENDBRANCH  21  23
ENDBRANCH   1  21
TORSDOF 2
