REMARK  Name = ZINC52094580
REMARK  5 active torsions:
REMARK  status: ('A' for Active; 'I' for Inactive)
REMARK    1  A    between atoms: C_1  and  C_2
REMARK    2  A    between atoms: C_2  and  N_3
REMARK    3  A    between atoms: N_3  and  C_4
REMARK    4  A    between atoms: C_4  and  C_6
REMARK    5  A    between atoms: C_4  and  C_11
REMARK                            x       y       z     vdW  Elec       q    Type
REMARK                         _______ _______ _______ _____ _____    ______ ____
ROOT
ATOM      1  C   UNL     1      -0.737  -2.482   1.284  0.00  0.00    -0.041 A 
ATOM      2  C   UNL     1      -0.773  -1.697   2.419  0.00  0.00    +0.031 A 
ATOM      3  C   UNL     1      -0.204  -2.158   3.596  0.00  0.00    +0.067 A 
ATOM      4  C   UNL     1       0.405  -3.414   3.629  0.00  0.00    +0.068 A 
ATOM      5  C   UNL     1       0.438  -4.196   2.484  0.00  0.00    +0.043 A 
ATOM      6  C   UNL     1      -0.138  -3.731   1.317  0.00  0.00    +0.022 A 
ATOM      7 BR   UNL     1      -0.101  -4.800  -0.242  0.00  0.00    -0.050 Br
ATOM      8  N   UNL     1       0.879  -3.598   4.926  0.00  0.00    -0.306 N 
ATOM      9  H   UNL     1       1.350  -4.381   5.252  0.00  0.00    +0.170 HD
ATOM     10  C   UNL     1       0.572  -2.505   5.649  0.00  0.00    +0.325 A 
ATOM     11  O   UNL     1       0.845  -2.342   6.823  0.00  0.00    -0.247 OA
ATOM     12  N   UNL     1      -0.081  -1.618   4.874  0.00  0.00    -0.306 N 
ATOM     13  H   UNL     1      -0.410  -0.750   5.158  0.00  0.00    +0.170 HD
ENDROOT
BRANCH   1  14
ATOM     14  C   UNL     1      -1.356  -1.981   0.004  0.00  0.00    -0.002 C 
BRANCH  14  15
ATOM     15  C   UNL     1      -2.766  -2.502  -0.109  0.00  0.00    -0.020 A 
ATOM     16  C   UNL     1      -3.232  -3.553  -0.827  0.00  0.00    +0.010 A 
ATOM     17  C   UNL     1      -4.581  -3.851  -0.779  0.00  0.00    +0.008 A 
ATOM     18  C   UNL     1      -5.397  -3.084  -0.016  0.00  0.00    +0.045 A 
ATOM     19  S   UNL     1      -4.253  -1.900   0.674  0.00  0.00    -0.103 S 
ENDBRANCH  14  15
BRANCH  14  20
ATOM     20  N   UNL     1      -1.376  -0.512   0.012  0.00  0.00    +0.386 N 
ATOM     21  H   UNL     1      -1.848  -0.187   0.843  0.00  0.00    -0.085 HD
ATOM     22  H   UNL     1      -1.864  -0.178  -0.805  0.00  0.00    -0.085 HD
BRANCH  20  24
ATOM     23  C   UNL     1      -0.019   1.526   0.010  0.00  0.00    -0.017 C 
ATOM     24  C   UNL     1       0.002  -0.004   0.002  0.00  0.00    -0.085 C 
ENDBRANCH  20  24
ENDBRANCH  14  20
ENDBRANCH   1  14
TORSDOF 4
