REMARK  Name = ZINC40381112
REMARK  4 active torsions:
REMARK  status: ('A' for Active; 'I' for Inactive)
REMARK    1  A    between atoms: C_2  and  S_20
REMARK    2  A    between atoms: C_5  and  N_8
REMARK    3  A    between atoms: C_9  and  C_11
REMARK    4  A    between atoms: S_20  and  N_23
REMARK                            x       y       z     vdW  Elec       q    Type
REMARK                         _______ _______ _______ _____ _____    ______ ____
ROOT
ATOM      1  C   UNL     1       0.962   1.387   1.178  0.00  0.00    +0.050 A 
ATOM      2  C   UNL     1       1.169   2.087   0.003  0.00  0.00    +0.108 A 
ATOM      3  C   UNL     1       1.399   1.408  -1.179  0.00  0.00    +0.050 A 
ATOM      4  C   UNL     1       1.423   0.026  -1.191  0.00  0.00    +0.065 A 
ATOM      5  C   UNL     1       1.216  -0.681  -0.013  0.00  0.00    +0.071 A 
ATOM      6  C   UNL     1       0.985   0.005   1.173  0.00  0.00    +0.065 A 
ATOM      7 CL   UNL     1       0.725  -0.873   2.648  0.00  0.00    -0.082 Cl
ATOM      8 CL   UNL     1       1.711  -0.825  -2.676  0.00  0.00    -0.082 Cl
ENDROOT
BRANCH   5   9
ATOM      9  N   UNL     1       1.239  -2.080  -0.021  0.00  0.00    -0.278 N 
ATOM     10  C   UNL     1       2.401  -2.736   0.166  0.00  0.00    +0.266 C 
ATOM     11  O   UNL     1       3.414  -2.116   0.432  0.00  0.00    -0.268 OA
ATOM     12  H   UNL     1       0.418  -2.578  -0.162  0.00  0.00    +0.155 HD
BRANCH  10  13
ATOM     13  C   UNL     1       2.445  -4.197   0.048  0.00  0.00    +0.122 A 
ATOM     14  C   UNL     1       1.406  -5.010  -0.246  0.00  0.00    +0.118 A 
ATOM     15  N   UNL     1       1.871  -6.298  -0.259  0.00  0.00    -0.312 N 
ATOM     16  H   UNL     1       1.340  -7.089  -0.443  0.00  0.00    +0.170 HD
ATOM     17  C   UNL     1       3.187  -6.286   0.025  0.00  0.00    +0.325 A 
ATOM     18  O   UNL     1       3.908  -7.264   0.095  0.00  0.00    -0.247 OA
ATOM     19  N   UNL     1       3.572  -5.008   0.214  0.00  0.00    -0.302 N 
ATOM     20  H   UNL     1       4.468  -4.707   0.429  0.00  0.00    +0.171 HD
ENDBRANCH  10  13
ENDBRANCH   5   9
BRANCH   2  21
ATOM     21  S   UNL     1       1.140   3.849   0.014  0.00  0.00    +0.056 S 
ATOM     22  O   UNL     1       0.819   4.258  -1.309  0.00  0.00    -0.153 OA
ATOM     23  O   UNL     1       0.364   4.236   1.140  0.00  0.00    -0.153 OA
BRANCH  21  24
ATOM     24  N   UNL     1       2.687   4.363   0.306  0.00  0.00    -0.204 NA
ATOM     25  H   UNL     1       3.397   3.715   0.432  0.00  0.00    +0.144 HD
ATOM     26  H   UNL     1       2.882   5.312   0.351  0.00  0.00    +0.144 HD
ENDBRANCH  21  24
ENDBRANCH   2  21
TORSDOF 4
