REMARK  Name = ZINC67459269
REMARK  7 active torsions:
REMARK  status: ('A' for Active; 'I' for Inactive)
REMARK    1  A    between atoms: C_1  and  C_2
REMARK    2  A    between atoms: C_5  and  C_7
REMARK    3  A    between atoms: C_7  and  C_9
REMARK    4  A    between atoms: C_7  and  N_10
REMARK    5  A    between atoms: C_16  and  C_19
REMARK    6  A    between atoms: C_19  and  C_21
REMARK    7  A    between atoms: C_19  and  O_28
REMARK                            x       y       z     vdW  Elec       q    Type
REMARK                         _______ _______ _______ _____ _____    ______ ____
ROOT
ATOM      1  N   UNL     1       2.820  -2.969   0.861  0.00  0.00    -0.290 N 
ATOM      2  C   UNL     1       3.507  -3.989   1.413  0.00  0.00    +0.303 C 
ATOM      3  O   UNL     1       3.131  -5.134   1.252  0.00  0.00    -0.253 OA
ATOM      4  N   UNL     1       4.611  -3.739   2.144  0.00  0.00    -0.286 N 
ATOM      5  C   UNL     1       5.013  -2.358   2.445  0.00  0.00    +0.109 C 
ATOM      6  C   UNL     1       6.469  -2.162   2.009  0.00  0.00    +0.025 C 
ATOM      7  C   UNL     1       7.344  -3.230   2.669  0.00  0.00    +0.025 C 
ATOM      8  C   UNL     1       6.886  -4.619   2.216  0.00  0.00    +0.025 C 
ATOM      9  C   UNL     1       5.433  -4.843   2.660  0.00  0.00    +0.109 C 
ATOM     10  H   UNL     1       3.076  -2.053   1.049  0.00  0.00    +0.151 HD
ENDROOT
BRANCH   1  11
ATOM     11  C   UNL     1       1.686  -3.245  -0.025  0.00  0.00    +0.137 C 
ATOM     12  C   UNL     1       2.195  -3.480  -1.448  0.00  0.00    +0.036 C 
BRANCH  11  17
ATOM     13  C   UNL     1      -0.017   1.502   0.006  0.00  0.00    +0.086 C 
ATOM     14  C   UNL     1       0.003  -0.004  -0.002  0.00  0.00    +0.102 A 
ATOM     15  C   UNL     1      -1.077  -0.806  -0.003  0.00  0.00    +0.045 A 
ATOM     16  C   UNL     1      -0.600  -2.137  -0.011  0.00  0.00    +0.047 A 
ATOM     17  C   UNL     1       0.744  -2.069  -0.016  0.00  0.00    +0.125 A 
ATOM     18  O   UNL     1       1.103  -0.775  -0.016  0.00  0.00    -0.463 OA
ENDBRANCH  11  17
ENDBRANCH   1  11
BRANCH   7  19
ATOM     19  C   UNL     1       8.803  -3.016   2.263  0.00  0.00    +0.148 C 
BRANCH  19  20
ATOM     20  C   UNL     1       9.665  -4.067   2.913  0.00  0.00    -0.019 A 
ATOM     21  C   UNL     1      10.043  -3.929   4.236  0.00  0.00    +0.007 A 
ATOM     22  C   UNL     1      10.834  -4.893   4.833  0.00  0.00    +0.020 A 
ATOM     23  C   UNL     1      11.246  -5.996   4.107  0.00  0.00    +0.041 A 
ATOM     24  C   UNL     1      10.867  -6.134   2.783  0.00  0.00    +0.020 A 
ATOM     25  C   UNL     1      10.072  -5.172   2.189  0.00  0.00    +0.007 A 
ATOM     26 CL   UNL     1      12.239  -7.207   4.856  0.00  0.00    -0.084 Cl
ENDBRANCH  19  20
BRANCH  19  27
ATOM     27  O   UNL     1       9.231  -1.720   2.688  0.00  0.00    -0.387 OA
ATOM     28  H   UNL     1       9.177  -1.582   3.643  0.00  0.00    +0.210 HD
ENDBRANCH  19  27
ENDBRANCH   7  19
TORSDOF 5
