REMARK  Name = ZINC36526765
REMARK  18 active torsions:
REMARK  status: ('A' for Active; 'I' for Inactive)
REMARK    1  A    between atoms: C_1  and  C_2
REMARK    2  A    between atoms: C_2  and  C_3
REMARK    3  A    between atoms: C_3  and  C_4
REMARK    4  A    between atoms: C_4  and  C_5
REMARK    5  A    between atoms: C_5  and  C_7
REMARK    6  A    between atoms: C_5  and  C_9
REMARK    7  A    between atoms: C_7  and  C_8
REMARK    8  A    between atoms: N_11  and  C_12
REMARK    9  A    between atoms: N_11  and  C_13
REMARK   10  A    between atoms: C_13  and  C_15
REMARK   11  A    between atoms: C_13  and  C_24
REMARK   12  A    between atoms: C_16  and  O_23
REMARK   13  A    between atoms: C_18  and  O_22
REMARK   14  A    between atoms: C_20  and  O_21
REMARK   15  A    between atoms: N_26  and  C_27
REMARK   16  A    between atoms: C_27  and  C_28
REMARK   17  A    between atoms: C_27  and  C_29
REMARK   18  A    between atoms: C_27  and  C_30
REMARK                            x       y       z     vdW  Elec       q    Type
REMARK                         _______ _______ _______ _____ _____    ______ ____
ROOT
ATOM      1  C   UNL     1       3.010  -6.558   3.663  0.00  0.00    +0.199 C 
ENDROOT
BRANCH   1   2
ATOM      2  C   UNL     1       4.083  -5.702   4.286  0.00  0.00    +0.065 A 
ATOM      3  C   UNL     1       4.504  -5.953   5.583  0.00  0.00    +0.129 A 
ATOM      4  C   UNL     1       5.491  -5.165   6.157  0.00  0.00    +0.091 A 
ATOM      5  C   UNL     1       6.057  -4.126   5.433  0.00  0.00    +0.124 A 
ATOM      6  C   UNL     1       5.636  -3.876   4.135  0.00  0.00    +0.091 A 
ATOM      7  C   UNL     1       4.652  -4.667   3.560  0.00  0.00    +0.129 A 
BRANCH   7   8
ATOM      8  O   UNL     1       4.244  -4.424   2.287  0.00  0.00    -0.506 OA
ATOM      9  H   UNL     1       3.507  -3.801   2.223  0.00  0.00    +0.292 HD
ENDBRANCH   7   8
BRANCH   5  10
ATOM     10  O   UNL     1       7.023  -3.353   5.995  0.00  0.00    -0.507 OA
ATOM     11  H   UNL     1       7.921  -3.681   5.851  0.00  0.00    +0.292 HD
ENDBRANCH   5  10
BRANCH   3  12
ATOM     12  O   UNL     1       3.950  -6.970   6.293  0.00  0.00    -0.506 OA
ATOM     13  H   UNL     1       4.410  -7.815   6.194  0.00  0.00    +0.292 HD
ENDBRANCH   3  12
ENDBRANCH   1   2
BRANCH   1  16
ATOM     14  C   UNL     1       1.852  -5.960   1.605  0.00  0.00    +0.219 C 
ATOM     15  O   UNL     1       2.479  -6.826   1.032  0.00  0.00    -0.275 OA
ATOM     16  N   UNL     1       2.085  -5.710   2.908  0.00  0.00    -0.289 N 
ATOM     17  C   UNL     1       1.413  -4.589   3.571  0.00  0.00    +0.133 C 
BRANCH  14  18
ATOM     18  C   UNL     1       0.814  -5.163   0.858  0.00  0.00    +0.075 C 
BRANCH  18  19
ATOM     19  C   UNL     1       0.119  -6.063  -0.166  0.00  0.00    +0.009 C 
ATOM     20  C   UNL     1      -0.636  -7.177   0.562  0.00  0.00    +0.004 C 
ENDBRANCH  18  19
BRANCH  18  21
ATOM     21  C   UNL     1       1.488  -3.995   0.137  0.00  0.00    +0.013 C 
BRANCH  21  22
ATOM     22  C   UNL     1       0.421  -3.115  -0.518  0.00  0.00    +0.000 C 
BRANCH  22  24
ATOM     23  C   UNL     1       0.029  -1.067  -1.894  0.00  0.00    +0.004 C 
ATOM     24  C   UNL     1       1.096  -1.947  -1.240  0.00  0.00    -0.003 C 
ENDBRANCH  22  24
ENDBRANCH  21  22
ENDBRANCH  18  21
ENDBRANCH  14  18
ENDBRANCH   1  16
BRANCH   1  25
ATOM     25  C   UNL     1       2.256  -7.285   4.747  0.00  0.00    +0.239 C 
ATOM     26  O   UNL     1       1.282  -6.772   5.256  0.00  0.00    -0.273 OA
ATOM     27  N   UNL     1       2.663  -8.505   5.149  0.00  0.00    -0.309 N 
ATOM     28  H   UNL     1       3.478  -8.887   4.790  0.00  0.00    +0.149 HD
BRANCH  27  29
ATOM     29  C   UNL     1       1.873  -9.254   6.130  0.00  0.00    +0.026 C 
ATOM     30  C   UNL     1       0.468  -9.497   5.575  0.00  0.00    +0.031 C 
ATOM     31  C   UNL     1       2.550 -10.597   6.412  0.00  0.00    +0.031 C 
ATOM     32  C   UNL     1       1.777  -8.449   7.428  0.00  0.00    +0.031 C 
ENDBRANCH  27  29
ENDBRANCH   1  25
TORSDOF 12
