REMARK  Name = ZINC09797958
REMARK  5 active torsions:
REMARK  status: ('A' for Active; 'I' for Inactive)
REMARK    1  A    between atoms: C_6  and  N_7
REMARK    2  A    between atoms: C_8  and  C_22
REMARK    3  A    between atoms: C_11  and  S_12
REMARK    4  A    between atoms: S_12  and  C_13
REMARK    5  A    between atoms: C_13  and  C_14
REMARK                            x       y       z     vdW  Elec       q    Type
REMARK                         _______ _______ _______ _____ _____    ______ ____
ROOT
ATOM      1  N   UNL     1       2.271   4.394   0.101  0.00  0.00    -0.270 N 
ATOM      2  C   UNL     1       1.185   3.574  -0.119  0.00  0.00    +0.171 A 
ATOM      3  N   UNL     1       0.122   4.344  -0.149  0.00  0.00    -0.128 NA
ATOM      4  N   UNL     1       0.460   5.569   0.043  0.00  0.00    -0.122 NA
ATOM      5  C   UNL     1       1.762   5.660   0.198  0.00  0.00    +0.197 A 
ENDROOT
BRANCH   1  11
ATOM      6  C   UNL     1       4.526   4.405  -0.768  0.00  0.00    +0.029 A 
ATOM      7  C   UNL     1       5.851   4.027  -0.667  0.00  0.00    +0.042 A 
ATOM      8  C   UNL     1       6.272   3.254   0.402  0.00  0.00    +0.142 A 
ATOM      9  C   UNL     1       5.364   2.858   1.372  0.00  0.00    +0.078 A 
ATOM     10  C   UNL     1       4.040   3.240   1.277  0.00  0.00    +0.049 A 
ATOM     11  C   UNL     1       3.616   4.010   0.202  0.00  0.00    +0.052 A 
ATOM     12 CL   UNL     1       5.894   1.889   2.711  0.00  0.00    -0.081 Cl
ATOM     13  F   UNL     1       7.568   2.885   0.499  0.00  0.00    -0.204 F 
ENDBRANCH   1  11
BRANCH   2  14
ATOM     14  C   UNL     1       1.213   2.107  -0.294  0.00  0.00    +0.038 A 
ATOM     15  C   UNL     1       2.135   1.522  -1.164  0.00  0.00    +0.014 A 
ATOM     16  C   UNL     1       2.156   0.152  -1.324  0.00  0.00    +0.021 A 
ATOM     17  C   UNL     1       1.266  -0.644  -0.623  0.00  0.00    +0.042 A 
ATOM     18  C   UNL     1       0.349  -0.071   0.242  0.00  0.00    +0.040 A 
ATOM     19  C   UNL     1       0.318   1.299   0.411  0.00  0.00    +0.053 A 
ATOM     20 CL   UNL     1      -0.837   2.017   1.490  0.00  0.00    -0.083 Cl
ATOM     21 CL   UNL     1       1.299  -2.367  -0.830  0.00  0.00    -0.083 Cl
ENDBRANCH   2  14
BRANCH   5  22
ATOM     22  S   UNL     1       2.680   7.137   0.480  0.00  0.00    -0.078 S 
BRANCH  22  23
ATOM     23  C   UNL     1       1.335   8.348   0.477  0.00  0.00    +0.153 C 
BRANCH  23  24
ATOM     24  C   UNL     1       1.900   9.726   0.708  0.00  0.00    +0.146 A 
ATOM     25  N   UNL     1       2.016  10.194   1.938  0.00  0.00    -0.199 NA
ATOM     26  C   UNL     1       2.519  11.409   2.146  0.00  0.00    +0.217 A 
ATOM     27  N   UNL     1       2.895  12.156   1.114  0.00  0.00    -0.181 NA
ATOM     28  C   UNL     1       2.771  11.684  -0.122  0.00  0.00    +0.217 A 
ATOM     29  N   UNL     1       2.272  10.466  -0.322  0.00  0.00    -0.199 NA
ATOM     30  N   UNL     1       3.160  12.456  -1.198  0.00  0.00    -0.327 N 
ATOM     31  N   UNL     1       2.645  11.894   3.432  0.00  0.00    -0.327 N 
ATOM     32  H   UNL     1       3.069  12.112  -2.100  0.00  0.00    +0.145 HD
ATOM     33  H   UNL     1       3.523  13.344  -1.052  0.00  0.00    +0.145 HD
ATOM     34  H   UNL     1       3.008  12.780   3.582  0.00  0.00    +0.145 HD
ATOM     35  H   UNL     1       2.370  11.348   4.185  0.00  0.00    +0.145 HD
ENDBRANCH  23  24
ENDBRANCH  22  23
ENDBRANCH   5  22
TORSDOF 5
