REMARK  Name = ZINC67103525
REMARK  6 active torsions:
REMARK  status: ('A' for Active; 'I' for Inactive)
REMARK    1  A    between atoms: C_10  and  N_11
REMARK    2  A    between atoms: C_12  and  C_14
REMARK    3  A    between atoms: C_14  and  N_15
REMARK    4  A    between atoms: N_18  and  N_19
REMARK    5  A    between atoms: C_20  and  C_22
REMARK    6  A    between atoms: C_22  and  C_23
REMARK                            x       y       z     vdW  Elec       q    Type
REMARK                         _______ _______ _______ _____ _____    ______ ____
ROOT
ATOM      1  N   UNL     1       8.461  -0.712   0.228  0.00  0.00    -0.290 N 
ATOM      2  C   UNL     1       9.720  -0.241   0.328  0.00  0.00    +0.316 C 
ATOM      3  O   UNL     1       9.920   0.958   0.351  0.00  0.00    -0.251 OA
ATOM      4  N   UNL     1      10.757  -1.099   0.403  0.00  0.00    -0.218 N 
ATOM      5  H   UNL     1       8.302  -1.669   0.209  0.00  0.00    +0.151 HD
ATOM      6  H   UNL     1      11.663  -0.759   0.475  0.00  0.00    +0.174 HD
ENDROOT
BRANCH   4   7
ATOM      7  N   UNL     1      10.526  -2.480   0.377  0.00  0.00    -0.233 N 
ATOM      8  C   UNL     1      11.563  -3.338   0.452  0.00  0.00    +0.229 C 
ATOM      9  O   UNL     1      12.695  -2.914   0.542  0.00  0.00    -0.274 OA
ATOM     10  H   UNL     1       9.620  -2.819   0.304  0.00  0.00    +0.173 HD
BRANCH   8  11
ATOM     11  C   UNL     1      11.315  -4.824   0.423  0.00  0.00    +0.101 C 
BRANCH  11  12
ATOM     12  C   UNL     1      12.649  -5.566   0.522  0.00  0.00    -0.002 C 
ATOM     13  C   UNL     1      13.489  -5.272  -0.722  0.00  0.00    +0.004 C 
ATOM     14  C   UNL     1      14.824  -6.014  -0.624  0.00  0.00    +0.000 C 
ATOM     15  C   UNL     1      14.565  -7.519  -0.527  0.00  0.00    +0.000 C 
ATOM     16  C   UNL     1      13.725  -7.813   0.718  0.00  0.00    +0.000 C 
ATOM     17  C   UNL     1      12.390  -7.071   0.619  0.00  0.00    +0.004 C 
ENDBRANCH  11  12
ENDBRANCH   8  11
ENDBRANCH   4   7
BRANCH   1  18
ATOM     18  C   UNL     1       7.334   0.221   0.146  0.00  0.00    +0.202 C 
BRANCH  18  20
ATOM     19  N   UNL     1       4.871   0.098  -0.045  0.00  0.00    -0.284 N 
ATOM     20  C   UNL     1       6.047  -0.555   0.042  0.00  0.00    +0.234 C 
ATOM     21  O   UNL     1       6.068  -1.768   0.036  0.00  0.00    -0.274 OA
ATOM     22  H   UNL     1       4.858   1.065  -0.121  0.00  0.00    +0.155 HD
BRANCH  19  32
ATOM     23  C   UNL     1       0.203   0.945  -1.767  0.00  0.00    +0.001 A 
ATOM     24  C   UNL     1       1.389   1.676  -1.797  0.00  0.00    +0.001 A 
ATOM     25  C   UNL     1       2.529   1.185  -1.236  0.00  0.00    +0.010 A 
ATOM     26  C   UNL     1       2.511  -0.076  -0.618  0.00  0.00    +0.003 A 
ATOM     27  C   UNL     1       1.306  -0.819  -0.587  0.00  0.00    -0.016 A 
ATOM     28  C   UNL     1       0.149  -0.280  -1.177  0.00  0.00    +0.008 A 
ATOM     29  C   UNL     1       1.286  -2.080   0.032  0.00  0.00    +0.008 A 
ATOM     30  C   UNL     1       2.422  -2.578   0.596  0.00  0.00    +0.002 A 
ATOM     31  C   UNL     1       3.612  -1.857   0.572  0.00  0.00    +0.024 A 
ATOM     32  C   UNL     1       3.672  -0.617  -0.026  0.00  0.00    +0.041 A 
ENDBRANCH  19  32
ENDBRANCH  18  20
ENDBRANCH   1  18
TORSDOF 6
