REMARK  Name = ZINC63594774
REMARK  5 active torsions:
REMARK  status: ('A' for Active; 'I' for Inactive)
REMARK    1  A    between atoms: C_4  and  C_8
REMARK    2  A    between atoms: C_8  and  N_9
REMARK    3  A    between atoms: C_15  and  C_17
REMARK    4  A    between atoms: C_17  and  C_18
REMARK    5  A    between atoms: N_20  and  N_21
REMARK                            x       y       z     vdW  Elec       q    Type
REMARK                         _______ _______ _______ _____ _____    ______ ____
ROOT
ATOM      1  N   UNL     1       4.226  -0.930   1.282  0.00  0.00    -0.285 NA
ATOM      2  C   UNL     1       4.683   0.305   1.940  0.00  0.00    +0.104 C 
ATOM      3  C   UNL     1       4.720   0.071   3.451  0.00  0.00    +0.119 C 
ATOM      4  N   UNL     1       5.451  -1.156   3.750  0.00  0.00    -0.313 N 
ATOM      5  C   UNL     1       5.685  -2.104   2.836  0.00  0.00    +0.231 C 
ATOM      6  O   UNL     1       6.275  -3.107   3.177  0.00  0.00    -0.274 OA
ATOM      7  C   UNL     1       5.248  -1.977   1.404  0.00  0.00    +0.152 C 
ATOM      8  H   UNL     1       5.783  -1.290   4.652  0.00  0.00    +0.149 HD
ENDROOT
BRANCH   1   9
ATOM      9  C   UNL     1       3.891  -0.682  -0.127  0.00  0.00    +0.123 C 
BRANCH   9  13
ATOM     10  C   UNL     1       0.535   1.953  -0.353  0.00  0.00    +0.003 A 
ATOM     11  C   UNL     1       1.817   2.468  -0.327  0.00  0.00    +0.020 A 
ATOM     12  C   UNL     1       2.904   1.615  -0.253  0.00  0.00    +0.047 A 
ATOM     13  C   UNL     1       2.707   0.247  -0.206  0.00  0.00    +0.003 A 
ATOM     14  C   UNL     1       1.424  -0.268  -0.233  0.00  0.00    +0.047 A 
ATOM     15  C   UNL     1       0.338   0.586  -0.306  0.00  0.00    +0.020 A 
ATOM     16 CL   UNL     1       1.176  -1.985  -0.174  0.00  0.00    -0.083 Cl
ATOM     17 CL   UNL     1       4.515   2.263  -0.221  0.00  0.00    -0.083 Cl
ENDBRANCH   9  13
ENDBRANCH   1   9
BRANCH   7  18
ATOM     18  C   UNL     1       4.668  -3.311   0.930  0.00  0.00    +0.125 C 
BRANCH  18  19
ATOM     19  C   UNL     1       3.475  -3.670   1.778  0.00  0.00    +0.228 C 
ATOM     20  O   UNL     1       3.051  -2.878   2.594  0.00  0.00    -0.274 OA
ATOM     21  N   UNL     1       2.880  -4.870   1.630  0.00  0.00    -0.254 N 
ATOM     22  H   UNL     1       3.219  -5.502   0.978  0.00  0.00    +0.169 HD
BRANCH  21  23
ATOM     23  N   UNL     1       1.798  -5.195   2.399  0.00  0.00    -0.254 NA
ATOM     24  H   UNL     1       1.065  -4.509   2.299  0.00  0.00    +0.140 HD
ATOM     25  H   UNL     1       1.462  -6.120   2.177  0.00  0.00    +0.140 HD
ENDBRANCH  21  23
ENDBRANCH  18  19
ENDBRANCH   7  18
TORSDOF 5
