REMARK  Name = ZINC66239547
REMARK  6 active torsions:
REMARK  status: ('A' for Active; 'I' for Inactive)
REMARK    1  A    between atoms: C_9  and  C_11
REMARK    2  A    between atoms: N_13  and  N_14
REMARK    3  A    between atoms: C_15  and  C_17
REMARK    4  A    between atoms: C_20  and  N_23
REMARK    5  A    between atoms: C_24  and  N_30
REMARK    6  A    between atoms: C_25  and  C_28
REMARK                            x       y       z     vdW  Elec       q    Type
REMARK                         _______ _______ _______ _____ _____    ______ ____
ROOT
ATOM      1  N   UNL     1       7.383  -2.428  -0.084  0.00  0.00    -0.230 N 
ATOM      2  C   UNL     1       8.506  -1.682  -0.091  0.00  0.00    +0.260 C 
ATOM      3  O   UNL     1       8.429  -0.469  -0.084  0.00  0.00    -0.269 OA
ATOM      4  H   UNL     1       7.444  -3.396  -0.090  0.00  0.00    +0.173 HD
ENDROOT
BRANCH   2   5
ATOM      5  C   UNL     1       9.828  -2.339  -0.108  0.00  0.00    +0.038 A 
ATOM      6  C   UNL     1       9.917  -3.733  -0.122  0.00  0.00    +0.015 A 
ATOM      7  C   UNL     1      11.152  -4.342  -0.138  0.00  0.00    +0.028 A 
ATOM      8  C   UNL     1      12.310  -3.571  -0.139  0.00  0.00    +0.067 A 
ATOM      9  C   UNL     1      12.225  -2.183  -0.125  0.00  0.00    +0.028 A 
ATOM     10  C   UNL     1      10.993  -1.567  -0.115  0.00  0.00    +0.015 A 
BRANCH   8  11
ATOM     11  N   UNL     1      13.561  -4.192  -0.155  0.00  0.00    -0.218 N 
ATOM     12  C   UNL     1      14.672  -3.729  -0.786  0.00  0.00    +0.137 A 
ATOM     13  C   UNL     1      15.689  -4.648  -0.545  0.00  0.00    +0.111 A 
ATOM     14  C   UNL     1      15.139  -5.676   0.255  0.00  0.00    +0.155 A 
ATOM     15  N   UNL     1      13.887  -5.394   0.483  0.00  0.00    -0.172 NA
BRANCH  12  16
ATOM     16  N   UNL     1      14.771  -2.568  -1.527  0.00  0.00    -0.342 N 
ATOM     17  H   UNL     1      13.998  -1.993  -1.634  0.00  0.00    +0.144 HD
ATOM     18  H   UNL     1      15.616  -2.327  -1.939  0.00  0.00    +0.144 HD
ENDBRANCH  12  16
BRANCH  13  19
ATOM     19  C   UNL     1      17.038  -4.568  -1.019  0.00  0.00    +0.104 C 
ATOM     20  N   UNL     1      18.109  -4.504  -1.394  0.00  0.00    -0.191 NA
ENDBRANCH  13  19
ENDBRANCH   8  11
ENDBRANCH   2   5
BRANCH   1  23
ATOM     21  C   UNL     1       5.006  -2.551  -0.061  0.00  0.00    +0.278 C 
ATOM     22  O   UNL     1       5.082  -3.763  -0.068  0.00  0.00    -0.267 OA
ATOM     23  N   UNL     1       6.128  -1.805  -0.068  0.00  0.00    -0.229 N 
ATOM     24  H   UNL     1       6.067  -0.837  -0.062  0.00  0.00    +0.173 HD
BRANCH  21  33
ATOM     25  C   UNL     1      -0.016   1.357   0.009  0.00  0.00    +0.001 A 
ATOM     26  C   UNL     1       1.170   2.090   0.002  0.00  0.00    +0.002 A 
ATOM     27  C   UNL     1       2.379   1.468  -0.013  0.00  0.00    +0.028 A 
ATOM     28  C   UNL     1       2.441   0.061  -0.021  0.00  0.00    +0.072 A 
ATOM     29  C   UNL     1       1.232  -0.682  -0.013  0.00  0.00    +0.000 A 
ATOM     30  C   UNL     1       0.002  -0.004   0.002  0.00  0.00    +0.010 A 
ATOM     31  C   UNL     1       1.291  -2.088  -0.021  0.00  0.00    +0.012 A 
ATOM     32  C   UNL     1       2.520  -2.683  -0.037  0.00  0.00    +0.034 A 
ATOM     33  C   UNL     1       3.678  -1.891  -0.044  0.00  0.00    +0.127 A 
ATOM     34  N   UNL     1       3.612  -0.574  -0.036  0.00  0.00    -0.242 NA
ENDBRANCH  21  33
ENDBRANCH   1  23
TORSDOF 6
