REMARK  Name = ZINC66396521
REMARK  10 active torsions:
REMARK  status: ('A' for Active; 'I' for Inactive)
REMARK    1  A    between atoms: C_1  and  C_2
REMARK    2  A    between atoms: C_2  and  C_3
REMARK    3  A    between atoms: C_2  and  C_4
REMARK    4  A    between atoms: C_2  and  C_5
REMARK    5  A    between atoms: C_8  and  C_11
REMARK    6  A    between atoms: C_11  and  C_13
REMARK    7  A    between atoms: C_11  and  N_15
REMARK    8  A    between atoms: C_16  and  C_18
REMARK    9  A    between atoms: C_21  and  N_24
REMARK   10  A    between atoms: N_27  and  C_28
REMARK                            x       y       z     vdW  Elec       q    Type
REMARK                         _______ _______ _______ _____ _____    ______ ____
ROOT
ATOM      1  N   UNL     1       3.584  -0.804  -5.262  0.00  0.00    -0.292 N 
ATOM      2  C   UNL     1       3.893  -0.788  -6.574  0.00  0.00    +0.245 C 
ATOM      3  O   UNL     1       3.480  -1.666  -7.306  0.00  0.00    -0.270 OA
ATOM      4  H   UNL     1       3.914  -0.104  -4.677  0.00  0.00    +0.151 HD
ENDROOT
BRANCH   2   5
ATOM      5  C   UNL     1       4.734   0.295  -7.121  0.00  0.00    +0.037 A 
ATOM      6  C   UNL     1       5.215   1.301  -6.279  0.00  0.00    +0.015 A 
ATOM      7  C   UNL     1       5.998   2.310  -6.792  0.00  0.00    +0.024 A 
ATOM      8  C   UNL     1       6.312   2.328  -8.147  0.00  0.00    +0.035 A 
ATOM      9  C   UNL     1       5.834   1.328  -8.989  0.00  0.00    +0.024 A 
ATOM     10  C   UNL     1       5.055   0.313  -8.481  0.00  0.00    +0.015 A 
BRANCH   8  11
ATOM     11  N   UNL     1       7.106   3.351  -8.664  0.00  0.00    -0.269 N 
ATOM     12  C   UNL     1       7.004   4.599  -8.167  0.00  0.00    +0.304 C 
ATOM     13  O   UNL     1       6.282   4.817  -7.214  0.00  0.00    -0.253 OA
ATOM     14  N   UNL     1       7.703   5.607  -8.727  0.00  0.00    -0.296 N 
ATOM     15  H   UNL     1       7.732   3.164  -9.381  0.00  0.00    +0.156 HD
ATOM     16  H   UNL     1       8.280   5.433  -9.488  0.00  0.00    +0.151 HD
BRANCH  14  17
ATOM     17  C   UNL     1       7.592   6.964  -8.187  0.00  0.00    +0.075 C 
ATOM     18  C   UNL     1       7.456   8.114  -9.187  0.00  0.00    +0.024 C 
ATOM     19  C   UNL     1       8.767   7.916  -8.422  0.00  0.00    +0.024 C 
ENDBRANCH  14  17
ENDBRANCH   8  11
ENDBRANCH   2   5
BRANCH   1  20
ATOM     20  C   UNL     1       2.750  -1.879  -4.719  0.00  0.00    +0.207 C 
BRANCH  20  24
ATOM     21  C   UNL     1       0.779  -0.508  -1.186  0.00  0.00    -0.042 A 
ATOM     22  C   UNL     1       0.101  -1.303  -2.091  0.00  0.00    +0.004 A 
ATOM     23  C   UNL     1       0.739  -1.746  -3.235  0.00  0.00    +0.007 A 
ATOM     24  C   UNL     1       2.055  -1.395  -3.473  0.00  0.00    -0.013 A 
ATOM     25  C   UNL     1       2.732  -0.600  -2.568  0.00  0.00    +0.007 A 
ATOM     26  C   UNL     1       2.093  -0.153  -1.427  0.00  0.00    +0.004 A 
BRANCH  21  28
ATOM     27  C   UNL     1       0.061   1.505   0.071  0.00  0.00    +0.015 C 
ATOM     28  C   UNL     1       0.084  -0.025   0.061  0.00  0.00    -0.013 C 
ATOM     29  C   UNL     1       0.836  -0.531   1.293  0.00  0.00    +0.015 C 
ATOM     30  C   UNL     1      -1.350  -0.557   0.084  0.00  0.00    +0.015 C 
ENDBRANCH  21  28
ENDBRANCH  20  24
BRANCH  20  31
ATOM     31  C   UNL     1       3.596  -3.038  -4.389  0.00  0.00    +0.090 C 
ATOM     32  N   UNL     1       4.250  -3.932  -4.135  0.00  0.00    -0.194 NA
ENDBRANCH  20  31
ENDBRANCH   1  20
TORSDOF 7
