REMARK  Name = ZINC37063099
REMARK  6 active torsions:
REMARK  status: ('A' for Active; 'I' for Inactive)
REMARK    1  A    between atoms: C_1  and  C_2
REMARK    2  A    between atoms: C_4  and  C_20
REMARK    3  A    between atoms: C_6  and  N_8
REMARK    4  A    between atoms: N_8  and  S_9
REMARK    5  A    between atoms: S_9  and  C_12
REMARK    6  A    between atoms: C_17  and  N_18
REMARK                            x       y       z     vdW  Elec       q    Type
REMARK                         _______ _______ _______ _____ _____    ______ ____
ROOT
ATOM      1  S   UNL     1       1.152  -2.407   3.569  0.00  0.00    +0.074 S 
ATOM      2  O   UNL     1       1.040  -1.031   3.904  0.00  0.00    -0.150 OA
ATOM      3  O   UNL     1       0.980  -3.441   4.529  0.00  0.00    -0.150 OA
ENDROOT
BRANCH   1   4
ATOM      4  C   UNL     1       2.756  -2.628   2.874  0.00  0.00    +0.129 A 
ATOM      5  C   UNL     1       3.628  -1.560   2.796  0.00  0.00    +0.032 A 
ATOM      6  C   UNL     1       4.887  -1.732   2.251  0.00  0.00    +0.017 A 
ATOM      7  C   UNL     1       5.277  -2.974   1.782  0.00  0.00    +0.020 A 
ATOM      8  C   UNL     1       4.409  -4.046   1.856  0.00  0.00    +0.040 A 
ATOM      9  C   UNL     1       3.146  -3.877   2.409  0.00  0.00    +0.053 A 
ATOM     10 BR   UNL     1       7.000  -3.203   1.036  0.00  0.00    -0.050 Br
BRANCH   9  11
ATOM     11  N   UNL     1       2.268  -4.960   2.491  0.00  0.00    -0.356 N 
ATOM     12  H   UNL     1       1.412  -4.858   2.937  0.00  0.00    +0.142 HD
ATOM     13  H   UNL     1       2.513  -5.814   2.102  0.00  0.00    +0.142 HD
ENDBRANCH   9  11
ENDBRANCH   1   4
BRANCH   1  14
ATOM     14  N   UNL     1       0.052  -2.692   2.364  0.00  0.00    -0.216 N 
ATOM     15  H   UNL     1      -0.589  -3.414   2.454  0.00  0.00    +0.174 HD
BRANCH  14  21
ATOM     16  C   UNL     1       0.200   1.778   0.327  0.00  0.00    +0.044 C 
ATOM     17  C   UNL     1       0.119   0.278   0.202  0.00  0.00    -0.048 A 
ATOM     18  C   UNL     1       0.040  -0.307  -1.049  0.00  0.00    +0.006 A 
ATOM     19  C   UNL     1      -0.035  -1.683  -1.168  0.00  0.00    -0.048 A 
ATOM     20  C   UNL     1      -0.031  -2.477  -0.038  0.00  0.00    +0.028 A 
ATOM     21  C   UNL     1       0.048  -1.892   1.219  0.00  0.00    +0.049 A 
ATOM     22  C   UNL     1       0.129  -0.510   1.335  0.00  0.00    +0.028 A 
ATOM     23  C   UNL     1      -0.122  -2.316  -2.533  0.00  0.00    +0.044 C 
ENDBRANCH  14  21
ENDBRANCH   1  14
TORSDOF 4
