REMARK  Name = ZINC40758630
REMARK  7 active torsions:
REMARK  status: ('A' for Active; 'I' for Inactive)
REMARK    1  A    between atoms: C_1  and  C_2
REMARK    2  A    between atoms: C_5  and  S_8
REMARK    3  A    between atoms: S_8  and  C_9
REMARK    4  A    between atoms: C_10  and  N_27
REMARK    5  A    between atoms: C_11  and  N_15
REMARK    6  A    between atoms: N_15  and  C_16
REMARK    7  A    between atoms: C_23  and  C_26
REMARK                            x       y       z     vdW  Elec       q    Type
REMARK                         _______ _______ _______ _____ _____    ______ ____
ROOT
ATOM      1  C   UNL     1       0.878  -4.938   1.677  0.00  0.00    +0.127 A 
ATOM      2  C   UNL     1       0.841  -6.282   2.057  0.00  0.00    +0.098 A 
ATOM      3  C   UNL     1       0.722  -6.579   3.416  0.00  0.00    +0.148 A 
ATOM      4  N   UNL     1       0.649  -5.578   4.291  0.00  0.00    -0.219 NA
ATOM      5  C   UNL     1       0.688  -4.324   3.890  0.00  0.00    +0.224 A 
ATOM      6  N   UNL     1       0.805  -3.999   2.618  0.00  0.00    -0.227 NA
ENDROOT
BRANCH   2   7
ATOM      7  N   UNL     1       0.920  -7.305   1.099  0.00  0.00    -0.353 N 
ATOM      8  H   UNL     1       1.002  -7.083   0.159  0.00  0.00    +0.142 HD
ATOM      9  H   UNL     1       0.893  -8.233   1.378  0.00  0.00    +0.142 HD
ENDBRANCH   2   7
BRANCH   3  10
ATOM     10  N   UNL     1       0.680  -7.900   3.848  0.00  0.00    -0.296 N 
ATOM     11  H   UNL     1       0.638  -8.621   3.201  0.00  0.00    +0.154 HD
BRANCH  10  12
ATOM     12  C   UNL     1       0.699  -8.187   5.213  0.00  0.00    +0.059 A 
ATOM     13  C   UNL     1       1.259  -7.296   6.103  0.00  0.00    +0.025 A 
ATOM     14  C   UNL     1       1.284  -7.571   7.467  0.00  0.00    +0.003 A 
ATOM     15  C   UNL     1       0.756  -8.727   7.959  0.00  0.00    +0.010 A 
ATOM     16  C   UNL     1       0.176  -9.660   7.084  0.00  0.00    +0.002 A 
ATOM     17  C   UNL     1       0.139  -9.391   5.694  0.00  0.00    +0.092 A 
ATOM     18  N   UNL     1      -0.416 -10.275   4.860  0.00  0.00    -0.250 NA
ATOM     19  C   UNL     1      -0.937 -11.394   5.301  0.00  0.00    +0.039 A 
ATOM     20  C   UNL     1      -0.939 -11.718   6.656  0.00  0.00    +0.023 A 
ATOM     21  C   UNL     1      -0.378 -10.863   7.561  0.00  0.00    +0.012 A 
ATOM     22  C   UNL     1      -1.550 -12.356   4.316  0.00  0.00    +0.065 C 
ENDBRANCH  10  12
ENDBRANCH   3  10
BRANCH   1  23
ATOM     23  S   UNL     1       1.026  -4.492  -0.021  0.00  0.00    -0.068 S 
BRANCH  23  28
ATOM     24  C   UNL     1       1.349   1.534   0.072  0.00  0.00    +0.044 C 
ATOM     25  C   UNL     1       1.268   0.030   0.049  0.00  0.00    -0.050 A 
ATOM     26  C   UNL     1       2.414  -0.725   0.223  0.00  0.00    +0.004 A 
ATOM     27  C   UNL     1       2.344  -2.104   0.203  0.00  0.00    +0.015 A 
ATOM     28  C   UNL     1       1.121  -2.733   0.006  0.00  0.00    +0.014 A 
ATOM     29  C   UNL     1      -0.028  -1.972  -0.169  0.00  0.00    +0.015 A 
ATOM     30  C   UNL     1       0.048  -0.593  -0.141  0.00  0.00    +0.004 A 
ENDBRANCH  23  28
ENDBRANCH   1  23
TORSDOF 5
