REMARK  Name = ZINC56157449
REMARK  6 active torsions:
REMARK  status: ('A' for Active; 'I' for Inactive)
REMARK    1  A    between atoms: C_1  and  C_2
REMARK    2  A    between atoms: C_2  and  C_4
REMARK    3  A    between atoms: C_2  and  N_15
REMARK    4  A    between atoms: N_6  and  C_7
REMARK    5  A    between atoms: N_15  and  C_16
REMARK    6  A    between atoms: C_20  and  N_22
REMARK                            x       y       z     vdW  Elec       q    Type
REMARK                         _______ _______ _______ _____ _____    ______ ____
ROOT
ATOM      1  N   UNL     1       0.323  -0.688  -1.552  0.00  0.00    -0.333 N 
ATOM      2  H   UNL     1      -0.135  -0.921  -2.374  0.00  0.00    +0.147 HD
ENDROOT
BRANCH   1   3
ATOM      3  C   UNL     1       1.717  -0.751  -1.486  0.00  0.00    +0.029 A 
ATOM      4  C   UNL     1       2.373  -0.423  -0.306  0.00  0.00    +0.023 A 
ATOM      5  C   UNL     1       3.752  -0.486  -0.241  0.00  0.00    +0.004 A 
ATOM      6  C   UNL     1       4.482  -0.875  -1.348  0.00  0.00    +0.024 A 
ATOM      7  C   UNL     1       3.832  -1.204  -2.530  0.00  0.00    +0.040 A 
ATOM      8  C   UNL     1       2.447  -1.148  -2.598  0.00  0.00    +0.046 A 
BRANCH   7   9
ATOM      9  N   UNL     1       4.572  -1.598  -3.651  0.00  0.00    -0.254 N 
ATOM     10  C   UNL     1       6.025  -1.821  -3.676  0.00  0.00    +0.134 C 
ATOM     11  C   UNL     1       6.310  -2.232  -5.133  0.00  0.00    +0.125 C 
ATOM     12  N   UNL     1       4.987  -2.197  -5.775  0.00  0.00    -0.297 N 
ATOM     13  C   UNL     1       4.069  -1.837  -4.869  0.00  0.00    +0.307 C 
ATOM     14  O   UNL     1       2.886  -1.732  -5.129  0.00  0.00    -0.252 OA
ATOM     15  H   UNL     1       4.808  -2.405  -6.705  0.00  0.00    +0.150 HD
ENDBRANCH   7   9
ENDBRANCH   1   3
BRANCH   1  17
ATOM     16  C   UNL     1      -0.526   1.259  -0.339  0.00  0.00    +0.038 C 
ATOM     17  C   UNL     1      -0.447  -0.269  -0.378  0.00  0.00    +0.154 C 
BRANCH  17  18
ATOM     18  C   UNL     1      -1.839  -0.842  -0.460  0.00  0.00    +0.237 C 
ATOM     19  O   UNL     1      -2.156  -1.532  -1.405  0.00  0.00    -0.273 OA
ATOM     20  N   UNL     1      -2.731  -0.587   0.518  0.00  0.00    -0.284 N 
ATOM     21  H   UNL     1      -2.459  -0.089   1.305  0.00  0.00    +0.155 HD
BRANCH  20  22
ATOM     22  C   UNL     1      -4.050  -1.040   0.398  0.00  0.00    +0.035 A 
ATOM     23  C   UNL     1      -5.097  -0.272   0.892  0.00  0.00    +0.025 A 
ATOM     24  C   UNL     1      -6.397  -0.721   0.771  0.00  0.00    +0.023 A 
ATOM     25  C   UNL     1      -6.658  -1.934   0.160  0.00  0.00    +0.059 A 
ATOM     26  C   UNL     1      -5.617  -2.702  -0.334  0.00  0.00    +0.061 A 
ATOM     27  C   UNL     1      -4.314  -2.254  -0.221  0.00  0.00    +0.044 A 
ATOM     28 CL   UNL     1      -5.948  -4.224  -1.100  0.00  0.00    -0.082 Cl
ATOM     29 CL   UNL     1      -8.295  -2.495   0.010  0.00  0.00    -0.082 Cl
ENDBRANCH  20  22
ENDBRANCH  17  18
ENDBRANCH   1  17
TORSDOF 5
