REMARK  Name = ZINC15082112
REMARK  14 active torsions:
REMARK  status: ('A' for Active; 'I' for Inactive)
REMARK    1  A    between atoms: C_1  and  C_2
REMARK    2  A    between atoms: C_3  and  C_30
REMARK    3  A    between atoms: C_6  and  N_10
REMARK    4  A    between atoms: C_7  and  C_8
REMARK    5  A    between atoms: C_11  and  C_13
REMARK    6  A    between atoms: C_13  and  S_14
REMARK    7  A    between atoms: S_14  and  C_15
REMARK    8  A    between atoms: C_18  and  C_22
REMARK    9  A    between atoms: C_19  and  C_21
REMARK   10  A    between atoms: C_22  and  C_23
REMARK   11  A    between atoms: C_26  and  O_29
REMARK   12  A    between atoms: C_30  and  C_31
REMARK   13  A    between atoms: C_31  and  S_32
REMARK   14  A    between atoms: S_32  and  C_33
REMARK                            x       y       z     vdW  Elec       q    Type
REMARK                         _______ _______ _______ _____ _____    ______ ____
ROOT
ATOM      1  C   UNL     1      -0.419  -3.346   6.057  0.00  0.00    +0.173 C 
ENDROOT
BRANCH   1   3
ATOM      2  N   UNL     1       0.527  -1.248   5.152  0.00  0.00    -0.270 N 
ATOM      3  C   UNL     1      -0.401  -2.220   5.055  0.00  0.00    +0.229 C 
ATOM      4  O   UNL     1      -1.221  -2.189   4.162  0.00  0.00    -0.275 OA
ATOM      5  H   UNL     1       1.183  -1.272   5.866  0.00  0.00    +0.156 HD
BRANCH   2  11
ATOM      6  C   UNL     1       1.732   2.946   2.601  0.00  0.00    +0.047 C 
ATOM      7  C   UNL     1       1.061   1.675   3.057  0.00  0.00    -0.011 A 
ATOM      8  C   UNL     1       0.000   1.080   2.488  0.00  0.00    +0.022 A 
ATOM      9  N   UNL     1      -0.311  -0.055   3.187  0.00  0.00    -0.345 N 
ATOM     10  H   UNL     1      -1.038  -0.660   2.969  0.00  0.00    +0.167 HD
ATOM     11  C   UNL     1       0.544  -0.211   4.230  0.00  0.00    +0.121 A 
ATOM     12  C   UNL     1       1.438   0.850   4.211  0.00  0.00    +0.094 A 
BRANCH  12  13
ATOM     13  C   UNL     1       2.513   1.089   5.127  0.00  0.00    +0.103 C 
ATOM     14  N   UNL     1       3.365   1.278   5.854  0.00  0.00    -0.191 NA
ENDBRANCH  12  13
BRANCH   8  15
ATOM     15  C   UNL     1      -0.729   1.579   1.267  0.00  0.00    +0.064 C 
BRANCH  15  16
ATOM     16  C   UNL     1      -0.013   1.086   0.008  0.00  0.00    +0.075 C 
BRANCH  16  17
ATOM     17  S   UNL     1      -0.890   1.687  -1.462  0.00  0.00    -0.164 S 
ATOM     18  C   UNL     1       0.072   1.024  -2.849  0.00  0.00    +0.084 C 
ENDBRANCH  16  17
ENDBRANCH  15  16
ENDBRANCH   8  15
ENDBRANCH   2  11
ENDBRANCH   1   3
BRANCH   1  19
ATOM     19  S   UNL     1      -1.771  -4.483   5.662  0.00  0.00    -0.079 S 
BRANCH  19  20
ATOM     20  C   UNL     1      -1.564  -5.665   6.952  0.00  0.00    +0.167 A 
ATOM     21  N   UNL     1      -2.331  -6.772   7.148  0.00  0.00    -0.336 N 
ATOM     22  H   UNL     1      -3.109  -7.063   6.591  0.00  0.00    +0.168 HD
ATOM     23  C   UNL     1      -1.832  -7.416   8.258  0.00  0.00    +0.043 A 
ATOM     24  C   UNL     1      -0.790  -6.689   8.697  0.00  0.00    +0.060 A 
ATOM     25  N   UNL     1      -0.641  -5.630   7.884  0.00  0.00    -0.227 NA
ATOM     26  C   UNL     1       0.068  -7.011   9.894  0.00  0.00    +0.067 C 
BRANCH  23  27
ATOM     27  C   UNL     1      -2.354  -8.693   8.865  0.00  0.00    +0.090 C 
BRANCH  27  28
ATOM     28  C   UNL     1      -3.312  -8.363   9.981  0.00  0.00    -0.041 A 
ATOM     29  C   UNL     1      -2.843  -8.218  11.273  0.00  0.00    +0.007 A 
ATOM     30  C   UNL     1      -3.718  -7.910  12.297  0.00  0.00    +0.045 A 
ATOM     31  C   UNL     1      -5.071  -7.757  12.029  0.00  0.00    +0.117 A 
ATOM     32  C   UNL     1      -5.540  -7.909  10.732  0.00  0.00    +0.045 A 
ATOM     33  C   UNL     1      -4.660  -8.211   9.711  0.00  0.00    +0.007 A 
BRANCH  31  34
ATOM     34  O   UNL     1      -5.935  -7.460  13.035  0.00  0.00    -0.507 OA
ATOM     35  H   UNL     1      -6.311  -8.235  13.472  0.00  0.00    +0.292 HD
ENDBRANCH  31  34
ENDBRANCH  27  28
ENDBRANCH  23  27
ENDBRANCH  19  20
ENDBRANCH   1  19
TORSDOF 11
