REMARK  Name = ZINC56740686
REMARK  8 active torsions:
REMARK  status: ('A' for Active; 'I' for Inactive)
REMARK    1  A    between atoms: C_1  and  C_2
REMARK    2  A    between atoms: C_2  and  C_4
REMARK    3  A    between atoms: C_2  and  N_12
REMARK    4  A    between atoms: C_4  and  C_5
REMARK    5  A    between atoms: C_8  and  O_11
REMARK    6  A    between atoms: N_15  and  C_16
REMARK    7  A    between atoms: C_19  and  C_22
REMARK    8  A    between atoms: N_24  and  C_25
REMARK                            x       y       z     vdW  Elec       q    Type
REMARK                         _______ _______ _______ _____ _____    ______ ____
ROOT
ATOM      1  N   UNL     1       0.974   0.006   1.399  0.00  0.00    -0.296 N 
ATOM      2  C   UNL     1       0.319  -0.133   2.569  0.00  0.00    +0.304 C 
ATOM      3  O   UNL     1      -0.617   0.597   2.831  0.00  0.00    -0.253 OA
ATOM      4  N   UNL     1       0.703  -1.080   3.447  0.00  0.00    -0.269 N 
ATOM      5  H   UNL     1       1.721  -0.576   1.189  0.00  0.00    +0.151 HD
ATOM      6  H   UNL     1       1.406  -1.705   3.211  0.00  0.00    +0.156 HD
ENDROOT
BRANCH   4   7
ATOM      7  C   UNL     1       0.089  -1.161   4.697  0.00  0.00    +0.035 A 
ATOM      8  C   UNL     1      -1.266  -0.875   4.824  0.00  0.00    +0.024 A 
ATOM      9  C   UNL     1      -1.875  -0.954   6.056  0.00  0.00    +0.015 A 
ATOM     10  C   UNL     1      -1.130  -1.324   7.180  0.00  0.00    +0.037 A 
ATOM     11  C   UNL     1       0.231  -1.611   7.048  0.00  0.00    +0.015 A 
ATOM     12  C   UNL     1       0.833  -1.535   5.812  0.00  0.00    +0.024 A 
BRANCH  10  13
ATOM     13  C   UNL     1      -1.779  -1.409   8.502  0.00  0.00    +0.244 C 
ATOM     14  O   UNL     1      -2.963  -1.159   8.616  0.00  0.00    -0.270 OA
ATOM     15  N   UNL     1      -1.060  -1.766   9.585  0.00  0.00    -0.308 N 
ATOM     16  H   UNL     1      -0.115  -1.966   9.494  0.00  0.00    +0.149 HD
BRANCH  15  17
ATOM     17  C   UNL     1      -1.704  -1.851  10.897  0.00  0.00    +0.073 C 
ATOM     18  C   UNL     1      -1.722  -0.466  11.547  0.00  0.00    +0.022 C 
ATOM     19  C   UNL     1      -2.395  -0.555  12.919  0.00  0.00    +0.002 C 
ATOM     20  C   UNL     1      -1.615  -1.526  13.808  0.00  0.00    +0.000 C 
ATOM     21  C   UNL     1      -1.597  -2.911  13.158  0.00  0.00    +0.002 C 
ATOM     22  C   UNL     1      -0.924  -2.822  11.786  0.00  0.00    +0.022 C 
ENDBRANCH  15  17
ENDBRANCH  10  13
ENDBRANCH   4   7
BRANCH   1  24
ATOM     23  C   UNL     1       1.221   2.365   0.804  0.00  0.00    +0.028 C 
ATOM     24  C   UNL     1       0.557   1.035   0.443  0.00  0.00    +0.076 C 
BRANCH  24  25
ATOM     25  C   UNL     1       0.977   0.622  -0.968  0.00  0.00    +0.057 C 
BRANCH  25  26
ATOM     26  C   UNL     1       0.229  -0.623  -1.371  0.00  0.00    -0.045 A 
ATOM     27  C   UNL     1       0.759  -1.868  -1.091  0.00  0.00    +0.007 A 
ATOM     28  C   UNL     1       0.075  -3.011  -1.460  0.00  0.00    +0.045 A 
ATOM     29  C   UNL     1      -1.145  -2.907  -2.111  0.00  0.00    +0.117 A 
ATOM     30  C   UNL     1      -1.676  -1.656  -2.390  0.00  0.00    +0.045 A 
ATOM     31  C   UNL     1      -0.991  -0.517  -2.015  0.00  0.00    +0.007 A 
BRANCH  29  32
ATOM     32  O   UNL     1      -1.820  -4.029  -2.475  0.00  0.00    -0.507 OA
ATOM     33  H   UNL     1      -2.431  -4.357  -1.801  0.00  0.00    +0.292 HD
ENDBRANCH  29  32
ENDBRANCH  25  26
ENDBRANCH  24  25
ENDBRANCH   1  24
TORSDOF 7
