REMARK  Name = ZINC04237013
REMARK  11 active torsions:
REMARK  status: ('A' for Active; 'I' for Inactive)
REMARK    1  A    between atoms: C_1  and  C_2
REMARK    2  A    between atoms: C_5  and  O_38
REMARK    3  A    between atoms: C_7  and  C_35
REMARK    4  A    between atoms: C_7  and  C_36
REMARK    5  A    between atoms: C_17  and  O_19
REMARK    6  A    between atoms: O_19  and  C_20
REMARK    7  A    between atoms: C_20  and  C_21
REMARK    8  A    between atoms: C_23  and  C_25
REMARK    9  A    between atoms: C_25  and  C_26
REMARK   10  A    between atoms: N_28  and  C_29
REMARK   11  A    between atoms: C_36  and  O_37
REMARK                            x       y       z     vdW  Elec       q    Type
REMARK                         _______ _______ _______ _____ _____    ______ ____
ROOT
ATOM      1  C   UNL     1      -0.429  -2.013  -1.711  0.00  0.00    +0.012 C 
ATOM      2  C   UNL     1      -0.696  -1.912  -0.208  0.00  0.00    -0.019 C 
ATOM      3  C   UNL     1      -1.966  -2.696   0.142  0.00  0.00    +0.010 C 
ATOM      4  C   UNL     1      -1.780  -4.178  -0.176  0.00  0.00    +0.032 C 
ATOM      5  C   UNL     1      -0.619  -4.721   0.664  0.00  0.00    +0.123 C 
ATOM      6  C   UNL     1       0.655  -3.973   0.281  0.00  0.00    +0.021 C 
ATOM      7  C   UNL     1       0.499  -2.475   0.564  0.00  0.00    +0.011 C 
ATOM      8  C   UNL     1       1.785  -1.782   0.072  0.00  0.00    +0.049 C 
ATOM      9  C   UNL     1       1.549  -0.315   0.002  0.00  0.00    +0.015 A 
ATOM     10  C   UNL     1       0.358   0.337   0.044  0.00  0.00    +0.058 A 
ATOM     11  N   UNL     1       0.416   1.664  -0.041  0.00  0.00    -0.229 NA
ATOM     12  C   UNL     1       1.558   2.310  -0.155  0.00  0.00    +0.167 A 
ATOM     13  S   UNL     1       2.714   1.012  -0.153  0.00  0.00    -0.057 S 
ATOM     14  N   UNL     1       1.781   3.679  -0.252  0.00  0.00    -0.230 N 
ATOM     15  C   UNL     1       3.039   4.151  -0.362  0.00  0.00    +0.406 C 
ATOM     16  O   UNL     1       3.977   3.379  -0.378  0.00  0.00    -0.226 OA
ATOM     17  C   UNL     1      -0.937  -0.448   0.184  0.00  0.00    +0.054 C 
ATOM     18  C   UNL     1       1.829  -4.522   1.094  0.00  0.00    +0.016 C 
ATOM     19  H   UNL     1       1.031   4.295  -0.239  0.00  0.00    +0.160 HD
ENDROOT
BRANCH   5  20
ATOM     20  O   UNL     1      -0.452  -6.117   0.404  0.00  0.00    -0.391 OA
ATOM     21  H   UNL     1      -1.229  -6.652   0.614  0.00  0.00    +0.210 HD
ENDBRANCH   5  20
BRANCH  15  22
ATOM     22  O   UNL     1       3.255   5.476  -0.456  0.00  0.00    -0.446 OA
BRANCH  22  23
ATOM     23  C   UNL     1       4.635   5.913  -0.573  0.00  0.00    +0.261 C 
BRANCH  23  24
ATOM     24  C   UNL     1       4.680   7.416  -0.666  0.00  0.00    +0.006 C 
ATOM     25  C   UNL     1       5.553   8.090   0.042  0.00  0.00    +0.007 C 
ENDBRANCH  23  24
ENDBRANCH  22  23
ENDBRANCH  15  22
BRANCH  17  26
ATOM     26  C   UNL     1      -2.001   0.156  -0.735  0.00  0.00    +0.106 C 
BRANCH  26  27
ATOM     27  C   UNL     1      -2.385   1.522  -0.229  0.00  0.00    +0.214 C 
ATOM     28  O   UNL     1      -1.859   1.969   0.769  0.00  0.00    -0.276 OA
ATOM     29  N   UNL     1      -3.312   2.248  -0.885  0.00  0.00    -0.312 N 
ATOM     30  H   UNL     1      -3.732   1.891  -1.683  0.00  0.00    +0.149 HD
BRANCH  29  31
ATOM     31  C   UNL     1      -3.685   3.576  -0.393  0.00  0.00    +0.073 C 
ATOM     32  C   UNL     1      -4.766   3.438   0.681  0.00  0.00    +0.022 C 
ATOM     33  C   UNL     1      -5.155   4.825   1.195  0.00  0.00    +0.002 C 
ATOM     34  C   UNL     1      -5.694   5.666   0.036  0.00  0.00    +0.000 C 
ATOM     35  C   UNL     1      -4.613   5.805  -1.038  0.00  0.00    +0.002 C 
ATOM     36  C   UNL     1      -4.223   4.417  -1.552  0.00  0.00    +0.022 C 
ENDBRANCH  29  31
ENDBRANCH  26  27
ENDBRANCH  17  26
BRANCH   6  37
ATOM     37  C   UNL     1       0.936  -4.179  -1.209  0.00  0.00    +0.165 C 
BRANCH  37  38
ATOM     38  O   UNL     1       1.236  -5.555  -1.450  0.00  0.00    -0.394 OA
ATOM     39  H   UNL     1       1.425  -5.760  -2.376  0.00  0.00    +0.209 HD
ENDBRANCH  37  38
ENDBRANCH   6  37
TORSDOF 9
