REMARK  Name = ZINC36829145
REMARK  3 active torsions:
REMARK  status: ('A' for Active; 'I' for Inactive)
REMARK    1  A    between atoms: C_6  and  N_7
REMARK    2  A    between atoms: N_7  and  S_8
REMARK    3  A    between atoms: S_8  and  C_11
REMARK                            x       y       z     vdW  Elec       q    Type
REMARK                         _______ _______ _______ _____ _____    ______ ____
ROOT
ATOM      1  C   UNL     1      -0.017   1.386   0.010  0.00  0.00    +0.029 A 
ATOM      2  C   UNL     1       1.167   2.097   0.002  0.00  0.00    +0.030 A 
ATOM      3  C   UNL     1       2.378   1.423  -0.013  0.00  0.00    +0.067 A 
ATOM      4  C   UNL     1       2.401   0.027  -0.021  0.00  0.00    +0.069 A 
ATOM      5  C   UNL     1       1.211  -0.684  -0.013  0.00  0.00    +0.054 A 
ATOM      6  C   UNL     1       0.002  -0.004   0.002  0.00  0.00    +0.076 A 
ATOM      7  N   UNL     1       3.741  -0.354  -0.035  0.00  0.00    -0.306 N 
ATOM      8  H   UNL     1       4.071  -1.266  -0.044  0.00  0.00    +0.170 HD
ATOM      9  C   UNL     1       4.499   0.758  -0.037  0.00  0.00    +0.325 A 
ATOM     10  O   UNL     1       5.716   0.776  -0.048  0.00  0.00    -0.247 OA
ATOM     11  N   UNL     1       3.708   1.847  -0.023  0.00  0.00    -0.306 N 
ATOM     12  H   UNL     1       4.010   2.769  -0.022  0.00  0.00    +0.170 HD
ENDROOT
BRANCH   6  13
ATOM     13  N   UNL     1      -1.201  -0.719   0.010  0.00  0.00    -0.098 NA
BRANCH  13  14
ATOM     14  S   UNL     1      -2.645   0.091   0.029  0.00  0.00    +0.093 S 
ATOM     15  O   UNL     1      -2.717   0.764   1.278  0.00  0.00    -0.148 OA
ATOM     16  O   UNL     1      -2.742   0.777  -1.212  0.00  0.00    -0.148 OA
BRANCH  14  17
ATOM     17  C   UNL     1      -3.923  -1.122   0.035  0.00  0.00    +0.126 A 
ATOM     18  C   UNL     1      -4.153  -1.904  -1.106  0.00  0.00    +0.035 A 
ATOM     19  C   UNL     1      -5.146  -2.839  -1.084  0.00  0.00    +0.072 A 
ATOM     20  C   UNL     1      -5.916  -2.997   0.081  0.00  0.00    +0.249 A 
ATOM     21  O   UNL     1      -6.808  -3.830   0.114  0.00  0.00    -0.268 OA
ATOM     22  N   UNL     1      -5.671  -2.231   1.161  0.00  0.00    -0.327 N 
ATOM     23  H   UNL     1      -6.205  -2.345   1.962  0.00  0.00    +0.168 HD
ATOM     24  C   UNL     1      -4.679  -1.304   1.143  0.00  0.00    +0.114 A 
ENDBRANCH  14  17
ENDBRANCH  13  14
ENDBRANCH   6  13
TORSDOF 3
