REMARK  Name = ZINC20503231
REMARK  6 active torsions:
REMARK  status: ('A' for Active; 'I' for Inactive)
REMARK    1  A    between atoms: C_1  and  C_2
REMARK    2  A    between atoms: C_2  and  C_29
REMARK    3  A    between atoms: C_6  and  C_23
REMARK    4  A    between atoms: N_8  and  C_18
REMARK    5  A    between atoms: C_18  and  C_19
REMARK    6  A    between atoms: N_21  and  C_22
REMARK                            x       y       z     vdW  Elec       q    Type
REMARK                         _______ _______ _______ _____ _____    ______ ____
ROOT
ATOM      1  C   UNL     1      -4.403   4.922  -3.178  0.00  0.00    +0.011 C 
ATOM      2  C   UNL     1      -5.393   4.855  -2.013  0.00  0.00    -0.023 C 
ATOM      3  C   UNL     1      -6.175   3.541  -2.074  0.00  0.00    +0.086 C 
ATOM      4  C   UNL     1      -5.232   2.390  -1.886  0.00  0.00    +0.163 C 
ATOM      5  C   UNL     1      -4.074   2.493  -1.202  0.00  0.00    +0.037 C 
ATOM      6  C   UNL     1      -3.235   1.269  -1.080  0.00  0.00    +0.146 C 
ATOM      7  N   UNL     1      -2.490   1.155   0.145  0.00  0.00    -0.308 N 
ATOM      8  C   UNL     1      -1.312   1.874   0.150  0.00  0.00    +0.052 A 
ATOM      9  C   UNL     1      -0.087   1.241   0.262  0.00  0.00    +0.025 A 
ATOM     10  C   UNL     1       1.084   1.975   0.225  0.00  0.00    +0.002 A 
ATOM     11  C   UNL     1       1.032   3.350   0.079  0.00  0.00    +0.002 A 
ATOM     12  C   UNL     1      -0.178   3.998  -0.022  0.00  0.00    +0.025 A 
ATOM     13  C   UNL     1      -1.380   3.277   0.021  0.00  0.00    +0.052 A 
ATOM     14  N   UNL     1      -2.545   3.938  -0.042  0.00  0.00    -0.316 N 
ATOM     15  C   UNL     1      -3.676   3.718  -0.623  0.00  0.00    +0.017 C 
ATOM     16  C   UNL     1      -4.632   4.899  -0.687  0.00  0.00    +0.058 C 
ATOM     17  O   UNL     1      -5.556   1.196  -2.428  0.00  0.00    -0.292 OA
ATOM     18  C   UNL     1      -6.362   6.037  -2.091  0.00  0.00    +0.011 C 
ATOM     19  H   UNL     1      -2.405   4.848   0.561  0.00  0.00    +0.152 HD
ENDROOT
BRANCH   6  20
ATOM     20  C   UNL     1      -4.133   0.064  -1.202  0.00  0.00    +0.015 A 
ATOM     21  C   UNL     1      -4.189  -0.862  -2.190  0.00  0.00    +0.013 A 
ATOM     22  C   UNL     1      -5.103  -1.894  -2.090  0.00  0.00    +0.008 A 
ATOM     23  C   UNL     1      -5.916  -1.950  -1.007  0.00  0.00    +0.045 A 
ATOM     24  S   UNL     1      -5.394  -0.516  -0.079  0.00  0.00    -0.099 S 
ENDBRANCH   6  20
BRANCH   7  25
ATOM     25  C   UNL     1      -2.250  -0.253   0.487  0.00  0.00    +0.201 C 
BRANCH  25  26
ATOM     26  C   UNL     1      -1.553  -0.937  -0.661  0.00  0.00    +0.230 C 
ATOM     27  O   UNL     1      -1.283  -0.312  -1.665  0.00  0.00    -0.274 OA
ATOM     28  N   UNL     1      -1.230  -2.242  -0.572  0.00  0.00    -0.317 N 
ATOM     29  C   UNL     1      -0.552  -2.906  -1.688  0.00  0.00    +0.128 C 
ATOM     30  H   UNL     1      -1.475  -2.808   0.339  0.00  0.00    +0.148 HD
ENDBRANCH  25  26
ENDBRANCH   7  25
TORSDOF 3
