REMARK  Name = ZINC48440981
REMARK  3 active torsions:
REMARK  status: ('A' for Active; 'I' for Inactive)
REMARK    1  A    between atoms: C_6  and  N_7
REMARK    2  A    between atoms: N_7  and  S_8
REMARK    3  A    between atoms: S_8  and  C_11
REMARK                            x       y       z     vdW  Elec       q    Type
REMARK                         _______ _______ _______ _____ _____    ______ ____
ROOT
ATOM      1  N   UNL     1      -1.198  -0.724   0.014  0.00  0.00    -0.097 NA
ENDROOT
BRANCH   1   7
ATOM      2  C   UNL     1      -0.017   1.384   0.010  0.00  0.00    +0.030 A 
ATOM      3  C   UNL     1       1.165   2.096   0.002  0.00  0.00    +0.048 A 
ATOM      4  C   UNL     1       2.387   1.429  -0.015  0.00  0.00    +0.124 A 
ATOM      5  C   UNL     1       2.396   0.040  -0.030  0.00  0.00    -0.001 A 
ATOM      6  C   UNL     1       1.219  -0.674  -0.017  0.00  0.00    +0.034 A 
ATOM      7  C   UNL     1       0.002  -0.004   0.002  0.00  0.00    +0.075 A 
ATOM      8  C   UNL     1       3.849  -0.395  -0.071  0.00  0.00    +0.080 C 
ATOM      9  C   UNL     1       4.564   0.917  -0.474  0.00  0.00    +0.234 C 
ATOM     10  O   UNL     1       3.654   1.930  -0.013  0.00  0.00    -0.491 OA
ENDBRANCH   1   7
BRANCH   1  11
ATOM     11  S   UNL     1      -2.646   0.079   0.037  0.00  0.00    +0.099 S 
ATOM     12  O   UNL     1      -2.717   0.751   1.287  0.00  0.00    -0.148 OA
ATOM     13  O   UNL     1      -2.749   0.764  -1.204  0.00  0.00    -0.148 OA
BRANCH  11  14
ATOM     14  C   UNL     1      -3.918  -1.140   0.047  0.00  0.00    +0.161 A 
ATOM     15  C   UNL     1      -5.263  -0.970   0.060  0.00  0.00    +0.052 A 
ATOM     16  C   UNL     1      -6.079  -2.086   0.065  0.00  0.00    +0.025 A 
ATOM     17  C   UNL     1      -5.510  -3.316   0.058  0.00  0.00    +0.048 A 
ATOM     18  S   UNL     1      -3.770  -2.919   0.035  0.00  0.00    -0.076 S 
ATOM     19 BR   UNL     1      -6.011   0.767   0.071  0.00  0.00    -0.048 Br
ENDBRANCH  11  14
ENDBRANCH   1  11
TORSDOF 3
