REMARK  Name = ZINC14271583
REMARK  12 active torsions:
REMARK  status: ('A' for Active; 'I' for Inactive)
REMARK    1  A    between atoms: C_1  and  C_2
REMARK    2  A    between atoms: C_2  and  C_3
REMARK    3  A    between atoms: C_2  and  C_4
REMARK    4  A    between atoms: C_2  and  C_5
REMARK    5  A    between atoms: C_12  and  N_17
REMARK    6  A    between atoms: C_13  and  C_14
REMARK    7  A    between atoms: N_17  and  C_18
REMARK    8  A    between atoms: C_18  and  N_20
REMARK    9  A    between atoms: C_21  and  C_23
REMARK   10  A    between atoms: C_24  and  C_25
REMARK   11  A    between atoms: C_28  and  O_31
REMARK   12  A    between atoms: O_31  and  C_32
REMARK                            x       y       z     vdW  Elec       q    Type
REMARK                         _______ _______ _______ _____ _____    ______ ____
ROOT
ATOM      1  C   UNL     1      -3.567  -1.650  -3.482  0.00  0.00    -0.000 C 
ATOM      2  C   UNL     1      -2.045  -1.717  -3.638  0.00  0.00    +0.009 C 
ATOM      3  C   UNL     1      -1.376  -0.799  -2.613  0.00  0.00    +0.037 C 
ATOM      4  C   UNL     1      -1.919  -1.128  -1.228  0.00  0.00    -0.023 A 
ATOM      5  C   UNL     1      -3.070  -1.820  -1.079  0.00  0.00    -0.004 A 
ATOM      6  S   UNL     1      -3.285  -1.968   0.672  0.00  0.00    -0.077 S 
ATOM      7  C   UNL     1      -1.865  -1.129   1.201  0.00  0.00    +0.084 A 
ATOM      8  C   UNL     1      -1.257  -0.754   0.010  0.00  0.00    +0.068 A 
ATOM      9  C   UNL     1      -3.960  -2.337  -2.166  0.00  0.00    +0.046 C 
ENDROOT
BRANCH   8  10
ATOM     10  C   UNL     1       0.002  -0.004   0.002  0.00  0.00    +0.244 C 
ATOM     11  O   UNL     1       1.064  -0.598  -0.011  0.00  0.00    -0.270 OA
ATOM     12  N   UNL     1      -0.016   1.344   0.009  0.00  0.00    -0.325 N 
ATOM     13  H   UNL     1       0.817   1.840   0.004  0.00  0.00    +0.145 HD
ATOM     14  H   UNL     1      -0.863   1.817   0.016  0.00  0.00    +0.145 HD
ENDBRANCH   8  10
BRANCH   1  16
ATOM     15  C   UNL     1      -5.755  -2.315  -4.489  0.00  0.00    +0.011 C 
ATOM     16  C   UNL     1      -4.235  -2.369  -4.656  0.00  0.00    -0.035 C 
ATOM     17  C   UNL     1      -3.841  -1.681  -5.965  0.00  0.00    +0.011 C 
ATOM     18  C   UNL     1      -3.776  -3.828  -4.688  0.00  0.00    +0.011 C 
ENDBRANCH   1  16
BRANCH   7  19
ATOM     19  N   UNL     1      -1.438  -0.889   2.497  0.00  0.00    -0.291 N 
ATOM     20  H   UNL     1      -0.615  -0.402   2.655  0.00  0.00    +0.154 HD
BRANCH  19  21
ATOM     21  C   UNL     1      -2.168  -1.335   3.539  0.00  0.00    +0.141 C 
ATOM     22  S   UNL     1      -3.621  -2.196   3.261  0.00  0.00    -0.018 S 
BRANCH  21  23
ATOM     23  N   UNL     1      -1.753  -1.102   4.800  0.00  0.00    -0.264 N 
ATOM     24  C   UNL     1      -2.482  -1.547   5.843  0.00  0.00    +0.242 C 
ATOM     25  O   UNL     1      -3.515  -2.159   5.645  0.00  0.00    -0.270 OA
ATOM     26  H   UNL     1      -0.929  -0.614   4.958  0.00  0.00    +0.157 HD
BRANCH  24  27
ATOM     27  C   UNL     1      -2.033  -1.295   7.210  0.00  0.00    +0.068 C 
ATOM     28  C   UNL     1      -2.764  -1.741   8.254  0.00  0.00    +0.013 C 
BRANCH  28  29
ATOM     29  C   UNL     1      -2.311  -1.488   9.630  0.00  0.00    -0.025 A 
ATOM     30  C   UNL     1      -1.120  -0.789   9.860  0.00  0.00    +0.011 A 
ATOM     31  C   UNL     1      -0.704  -0.548  11.150  0.00  0.00    +0.046 A 
ATOM     32  C   UNL     1      -1.459  -1.009  12.223  0.00  0.00    +0.120 A 
ATOM     33  C   UNL     1      -2.639  -1.709  12.000  0.00  0.00    +0.046 A 
ATOM     34  C   UNL     1      -3.067  -1.949  10.714  0.00  0.00    +0.011 A 
BRANCH  32  35
ATOM     35  O   UNL     1      -1.041  -0.775  13.493  0.00  0.00    -0.495 OA
ATOM     36  C   UNL     1       0.180  -0.050  13.651  0.00  0.00    +0.277 C 
ENDBRANCH  32  35
ENDBRANCH  28  29
ENDBRANCH  24  27
ENDBRANCH  21  23
ENDBRANCH  19  21
ENDBRANCH   7  19
TORSDOF 8
