REMARK  Name = ZINC13835673
REMARK  3 active torsions:
REMARK  status: ('A' for Active; 'I' for Inactive)
REMARK    1  A    between atoms: C_4  and  C_14
REMARK    2  A    between atoms: C_8  and  C_12
REMARK    3  A    between atoms: C_8  and  N_21
REMARK                            x       y       z     vdW  Elec       q    Type
REMARK                         _______ _______ _______ _____ _____    ______ ____
ROOT
ATOM      1  C   UNL     1      -3.252   2.961  -1.468  0.00  0.00    +0.040 C 
ATOM      2  C   UNL     1      -2.190   1.865  -1.244  0.00  0.00    +0.009 C 
ATOM      3  C   UNL     1      -1.329   1.940   0.019  0.00  0.00    +0.108 C 
ATOM      4  C   UNL     1      -2.608   1.099   0.022  0.00  0.00    +0.009 C 
ATOM      5  C   UNL     1      -3.911   1.756   0.524  0.00  0.00    +0.068 C 
ATOM      6  C   UNL     1      -4.508   2.426  -0.738  0.00  0.00    +0.166 C 
ATOM      7  F   UNL     1      -5.179   1.487  -1.528  0.00  0.00    -0.246 F 
ENDROOT
BRANCH   5  10
ATOM      8  H   UNL     1      -4.463   3.196   1.887  0.00  0.00    -0.088 HD
ATOM      9  H   UNL     1      -3.093   2.357   2.315  0.00  0.00    -0.088 HD
ATOM     10  N   UNL     1      -3.602   2.778   1.540  0.00  0.00    +0.391 N 
ATOM     11  H   UNL     1      -3.021   3.510   1.116  0.00  0.00    -0.088 HD
ENDBRANCH   5  10
BRANCH   5  12
ATOM     12  C   UNL     1      -4.854   0.712   1.064  0.00  0.00    +0.348 C 
ATOM     13  O   UNL     1      -4.777  -0.430   0.676  0.00  0.00    -0.248 OA
ATOM     14  O   UNL     1      -5.779   1.050   1.976  0.00  0.00    -0.248 OA
ENDBRANCH   5  12
BRANCH   3  15
ATOM     15  C   UNL     1      -0.014   1.204   0.009  0.00  0.00    +0.360 C 
ATOM     16  O   UNL     1       0.002  -0.004   0.002  0.00  0.00    -0.246 OA
ATOM     17  O   UNL     1       1.139   1.891   0.001  0.00  0.00    -0.246 OA
ENDBRANCH   3  15
TORSDOF 3
