REMARK  Name = ZINC15188792
REMARK  7 active torsions:
REMARK  status: ('A' for Active; 'I' for Inactive)
REMARK    1  A    between atoms: C_1  and  C_2
REMARK    2  A    between atoms: C_9  and  C_30
REMARK    3  A    between atoms: C_14  and  S_18
REMARK    4  A    between atoms: C_15  and  C_16
REMARK    5  A    between atoms: S_18  and  C_19
REMARK    6  A    between atoms: C_19  and  C_20
REMARK    7  A    between atoms: N_22  and  C_23
REMARK                            x       y       z     vdW  Elec       q    Type
REMARK                         _______ _______ _______ _____ _____    ______ ____
ROOT
ATOM      1  C   UNL     1      -4.332   1.023   0.058  0.00  0.00    +0.007 C 
ATOM      2  C   UNL     1      -2.898   1.556   0.050  0.00  0.00    -0.013 C 
ATOM      3  C   UNL     1      -2.162   1.059   1.295  0.00  0.00    +0.003 C 
ATOM      4  C   UNL     1      -0.728   1.592   1.287  0.00  0.00    +0.001 C 
ATOM      5  C   UNL     1      -0.005   1.094   0.034  0.00  0.00    +0.014 C 
ATOM      6  C   UNL     1      -0.742   1.592  -1.212  0.00  0.00    +0.032 C 
ATOM      7  C   UNL     1      -2.175   1.058  -1.203  0.00  0.00    +0.017 C 
ATOM      8  C   UNL     1      -0.019   1.094  -2.465  0.00  0.00    +0.188 C 
ATOM      9  C   UNL     1       1.268   1.857  -2.641  0.00  0.00    +0.235 C 
ATOM     10  O   UNL     1       2.252   1.288  -3.065  0.00  0.00    -0.274 OA
ATOM     11  N   UNL     1       1.332   3.163  -2.331  0.00  0.00    -0.278 N 
ATOM     12  C   UNL     1       0.263   3.805  -1.746  0.00  0.00    +0.082 C 
ATOM     13  C   UNL     1      -0.768   3.099  -1.211  0.00  0.00    +0.065 C 
ATOM     14  H   UNL     1       2.143   3.661  -2.522  0.00  0.00    +0.155 HD
ENDROOT
BRANCH  13  15
ATOM     15  C   UNL     1      -1.886   3.791  -0.644  0.00  0.00    +0.098 C 
ATOM     16  N   UNL     1      -2.773   4.339  -0.194  0.00  0.00    -0.191 NA
ENDBRANCH  13  15
BRANCH   8  17
ATOM     17  C   UNL     1      -0.879   1.303  -3.642  0.00  0.00    +0.076 C 
ATOM     18  N   UNL     1      -1.542   1.464  -4.550  0.00  0.00    -0.196 NA
ENDBRANCH   8  17
BRANCH  12  19
ATOM     19  S   UNL     1       0.231   5.566  -1.691  0.00  0.00    -0.100 S 
BRANCH  19  20
ATOM     20  C   UNL     1       1.798   5.935  -2.519  0.00  0.00    +0.171 C 
BRANCH  20  21
ATOM     21  C   UNL     1       1.989   7.428  -2.589  0.00  0.00    +0.227 C 
ATOM     22  O   UNL     1       1.149   8.170  -2.124  0.00  0.00    -0.275 OA
ATOM     23  N   UNL     1       3.094   7.940  -3.167  0.00  0.00    -0.285 N 
ATOM     24  H   UNL     1       3.796   7.348  -3.478  0.00  0.00    +0.155 HD
BRANCH  23  25
ATOM     25  C   UNL     1       3.227   9.325  -3.319  0.00  0.00    +0.033 A 
ATOM     26  C   UNL     1       3.869   9.843  -4.436  0.00  0.00    +0.024 A 
ATOM     27  C   UNL     1       3.995  11.210  -4.586  0.00  0.00    +0.017 A 
ATOM     28  C   UNL     1       3.491  12.063  -3.619  0.00  0.00    +0.018 A 
ATOM     29  C   UNL     1       2.856  11.549  -2.503  0.00  0.00    +0.017 A 
ATOM     30  C   UNL     1       2.723  10.182  -2.351  0.00  0.00    +0.024 A 
ATOM     31 BR   UNL     1       3.672  13.934  -3.824  0.00  0.00    -0.050 Br
ENDBRANCH  23  25
ENDBRANCH  20  21
ENDBRANCH  19  20
ENDBRANCH  12  19
TORSDOF 6
