REMARK  Name = ZINC16611030
REMARK  10 active torsions:
REMARK  status: ('A' for Active; 'I' for Inactive)
REMARK    1  A    between atoms: C_1  and  C_2
REMARK    2  A    between atoms: C_2  and  N_3
REMARK    3  A    between atoms: C_4  and  C_33
REMARK    4  A    between atoms: C_5  and  C_28
REMARK    5  A    between atoms: C_6  and  C_11
REMARK    6  A    between atoms: C_15  and  N_17
REMARK    7  A    between atoms: N_20  and  C_21
REMARK    8  A    between atoms: C_28  and  O_30
REMARK    9  A    between atoms: O_30  and  C_31
REMARK   10  A    between atoms: C_31  and  C_32
REMARK                            x       y       z     vdW  Elec       q    Type
REMARK                         _______ _______ _______ _____ _____    ______ ____
ROOT
ATOM      1  C   UNL     1       9.494  -0.197  -0.323  0.00  0.00    -0.021 A 
ATOM      2  C   UNL     1       9.206   1.114   0.013  0.00  0.00    +0.006 A 
ATOM      3  C   UNL     1       7.892   1.526   0.136  0.00  0.00    +0.002 A 
ATOM      4  C   UNL     1       6.862   0.630  -0.075  0.00  0.00    +0.023 A 
ATOM      5  C   UNL     1       7.148  -0.686  -0.412  0.00  0.00    +0.035 A 
ATOM      6  C   UNL     1       8.469  -1.099  -0.530  0.00  0.00    +0.029 A 
ENDROOT
BRANCH   1  10
ATOM      7  N   UNL     1      13.123   0.553   0.726  0.00  0.00    -0.286 N 
ATOM      8  C   UNL     1      12.492  -0.437   1.423  0.00  0.00    +0.021 C 
ATOM      9  C   UNL     1      11.413  -1.070   0.913  0.00  0.00    +0.078 C 
ATOM     10  C   UNL     1      10.927  -0.642  -0.457  0.00  0.00    +0.141 C 
ATOM     11  N   UNL     1      11.677   0.435  -1.124  0.00  0.00    -0.315 N 
ATOM     12  C   UNL     1      12.737   0.970  -0.486  0.00  0.00    +0.138 C 
ATOM     13  S   UNL     1      13.617   2.224  -1.250  0.00  0.00    -0.018 S 
ATOM     14  C   UNL     1      13.009  -0.830   2.783  0.00  0.00    +0.061 C 
ATOM     15  H   UNL     1      11.415   0.752  -2.003  0.00  0.00    +0.149 HD
BRANCH   7  17
ATOM     16  C   UNL     1      15.541   0.368   1.046  0.00  0.00    +0.025 C 
ATOM     17  C   UNL     1      14.288   1.196   1.340  0.00  0.00    +0.109 C 
ENDBRANCH   7  17
BRANCH   9  18
ATOM     18  C   UNL     1      10.760  -2.096   1.634  0.00  0.00    +0.339 C 
ATOM     19  O   UNL     1      11.168  -2.423   2.733  0.00  0.00    -0.245 OA
BRANCH  18  20
ATOM     20  O   UNL     1       9.683  -2.713   1.103  0.00  0.00    -0.462 OA
BRANCH  20  21
ATOM     21  C   UNL     1       9.073  -3.741   1.886  0.00  0.00    +0.229 C 
ATOM     22  C   UNL     1       7.878  -4.319   1.125  0.00  0.00    +0.048 C 
ENDBRANCH  20  21
ENDBRANCH  18  20
ENDBRANCH   9  18
ENDBRANCH   1  10
BRANCH   5  23
ATOM     23  N   UNL     1       6.107  -1.597  -0.627  0.00  0.00    -0.269 N 
ATOM     24  C   UNL     1       4.983  -1.522   0.113  0.00  0.00    +0.308 C 
ATOM     25  O   UNL     1       4.841  -0.618   0.913  0.00  0.00    -0.252 OA
ATOM     26  N   UNL     1       4.017  -2.450  -0.035  0.00  0.00    -0.269 N 
ATOM     27  H   UNL     1       6.195  -2.281  -1.309  0.00  0.00    +0.156 HD
ATOM     28  H   UNL     1       4.155  -3.205  -0.627  0.00  0.00    +0.156 HD
BRANCH  26  29
ATOM     29  C   UNL     1       2.813  -2.324   0.668  0.00  0.00    +0.035 A 
ATOM     30  C   UNL     1       1.619  -2.716   0.078  0.00  0.00    +0.024 A 
ATOM     31  C   UNL     1       0.432  -2.590   0.774  0.00  0.00    +0.017 A 
ATOM     32  C   UNL     1       0.432  -2.073   2.057  0.00  0.00    +0.018 A 
ATOM     33  C   UNL     1       1.621  -1.681   2.647  0.00  0.00    +0.017 A 
ATOM     34  C   UNL     1       2.810  -1.805   1.956  0.00  0.00    +0.024 A 
ATOM     35 BR   UNL     1      -1.195  -1.894   3.003  0.00  0.00    -0.050 Br
ENDBRANCH  26  29
ENDBRANCH   5  23
TORSDOF 7
