REMARK  Name = ZINC26803018
REMARK  10 active torsions:
REMARK  status: ('A' for Active; 'I' for Inactive)
REMARK    1  A    between atoms: C_1  and  C_2
REMARK    2  A    between atoms: C_2  and  C_3
REMARK    3  A    between atoms: C_3  and  S_4
REMARK    4  A    between atoms: S_4  and  C_5
REMARK    5  A    between atoms: C_14  and  C_17
REMARK    6  A    between atoms: C_18  and  N_21
REMARK    7  A    between atoms: N_21  and  N_22
REMARK    8  A    between atoms: N_22  and  C_23
REMARK    9  A    between atoms: C_23  and  N_25
REMARK   10  A    between atoms: C_26  and  C_28
REMARK                            x       y       z     vdW  Elec       q    Type
REMARK                         _______ _______ _______ _____ _____    ______ ____
ROOT
ATOM      1  C   UNL     1      -1.740   7.819  -0.473  0.00  0.00    +0.156 C 
ATOM      2  N   UNL     1      -1.956   6.935  -1.433  0.00  0.00    -0.219 NA
ATOM      3  C   UNL     1      -1.627   5.649  -1.192  0.00  0.00    +0.110 A 
ATOM      4  C   UNL     1      -1.279   5.134   0.040  0.00  0.00    +0.025 A 
ATOM      5  C   UNL     1      -0.964   3.773   0.108  0.00  0.00    -0.029 A 
ATOM      6  C   UNL     1      -1.040   3.054  -1.045  0.00  0.00    -0.005 A 
ATOM      7  S   UNL     1      -1.540   4.244  -2.263  0.00  0.00    -0.074 S 
ATOM      8  C   UNL     1      -0.762   1.598  -1.231  0.00  0.00    +0.043 C 
ATOM      9  C   UNL     1      -0.013   1.086   0.008  0.00  0.00    +0.009 C 
ATOM     10  C   UNL     1      -0.736   1.583   1.263  0.00  0.00    -0.009 C 
ATOM     11  C   UNL     1      -0.550   3.092   1.411  0.00  0.00    +0.039 C 
ATOM     12  C   UNL     1      -0.164   0.875   2.493  0.00  0.00    +0.008 C 
ATOM     13  C   UNL     1      -1.281   6.085   1.236  0.00  0.00    +0.191 C 
ATOM     14  N   UNL     1      -1.121   7.444   0.697  0.00  0.00    -0.303 N 
ATOM     15  H   UNL     1      -0.500   8.178   1.231  0.00  0.00    +0.150 HD
ENDROOT
BRANCH  13  16
ATOM     16  N   UNL     1      -2.555   5.978   1.960  0.00  0.00    -0.217 NA
ATOM     17  H   UNL     1      -3.252   6.585   1.556  0.00  0.00    +0.147 HD
BRANCH  16  18
ATOM     18  N   UNL     1      -2.385   6.243   3.290  0.00  0.00    -0.260 N 
ATOM     19  H   UNL     1      -1.387   6.495   3.678  0.00  0.00    +0.168 HD
BRANCH  18  20
ATOM     20  C   UNL     1      -3.441   6.196   4.126  0.00  0.00    +0.151 C 
ATOM     21  S   UNL     1      -3.229   6.528   5.792  0.00  0.00    -0.017 S 
BRANCH  20  22
ATOM     22  N   UNL     1      -4.664   5.888   3.651  0.00  0.00    -0.263 N 
ATOM     23  C   UNL     1      -5.720   5.841   4.487  0.00  0.00    +0.250 C 
ATOM     24  O   UNL     1      -5.570   6.076   5.669  0.00  0.00    -0.270 OA
ATOM     25  H   UNL     1      -4.801   5.674   2.580  0.00  0.00    +0.157 HD
BRANCH  23  26
ATOM     26  C   UNL     1      -7.061   5.503   3.966  0.00  0.00    +0.037 A 
ATOM     27  C   UNL     1      -7.238   5.237   2.607  0.00  0.00    +0.013 A 
ATOM     28  C   UNL     1      -8.492   4.916   2.128  0.00  0.00    +0.001 A 
ATOM     29  C   UNL     1      -9.573   4.869   2.989  0.00  0.00    +0.000 A 
ATOM     30  C   UNL     1      -9.406   5.137   4.336  0.00  0.00    +0.001 A 
ATOM     31  C   UNL     1      -8.157   5.453   4.829  0.00  0.00    +0.013 A 
ENDBRANCH  23  26
ENDBRANCH  20  22
ENDBRANCH  18  20
ENDBRANCH  16  18
ENDBRANCH  13  16
BRANCH   1  32
ATOM     32  S   UNL     1      -2.248   9.492  -0.694  0.00  0.00    -0.091 S 
BRANCH  32  33
ATOM     33  C   UNL     1      -2.969   9.384  -2.351  0.00  0.00    +0.077 C 
BRANCH  33  35
ATOM     34  C   UNL     1      -4.102  10.669  -4.170  0.00  0.00    +0.004 C 
ATOM     35  C   UNL     1      -3.493  10.759  -2.770  0.00  0.00    +0.008 C 
ENDBRANCH  33  35
ENDBRANCH  32  33
ENDBRANCH   1  32
TORSDOF 8
