REMARK  Name = ZINC21082872
REMARK  15 active torsions:
REMARK  status: ('A' for Active; 'I' for Inactive)
REMARK    1  A    between atoms: C_1  and  C_2
REMARK    2  A    between atoms: C_2  and  C_3
REMARK    3  A    between atoms: C_2  and  C_4
REMARK    4  A    between atoms: C_4  and  N_5
REMARK    5  A    between atoms: C_6  and  N_31
REMARK    6  A    between atoms: C_7  and  N_14
REMARK    7  A    between atoms: N_14  and  C_15
REMARK    8  A    between atoms: C_15  and  C_16
REMARK    9  A    between atoms: C_16  and  C_17
REMARK   10  A    between atoms: C_16  and  C_18
REMARK   11  A    between atoms: C_19  and  C_21
REMARK   12  A    between atoms: C_24  and  O_27
REMARK   13  A    between atoms: O_27  and  C_28
REMARK   14  A    between atoms: C_28  and  C_29
REMARK   15  A    between atoms: C_28  and  C_30
REMARK                            x       y       z     vdW  Elec       q    Type
REMARK                         _______ _______ _______ _____ _____    ______ ____
ROOT
ATOM      1  N   UNL     1       0.142  -2.997   2.212  0.00  0.00    -0.260 N 
ATOM      2  C   UNL     1      -0.468  -2.673   3.369  0.00  0.00    +0.251 C 
ATOM      3  O   UNL     1      -0.771  -3.544   4.162  0.00  0.00    -0.270 OA
ENDROOT
BRANCH   1   6
ATOM      4  N   UNL     1       0.439  -0.921  -0.805  0.00  0.00    -0.280 N 
ATOM      5  C   UNL     1       0.026  -1.923   0.043  0.00  0.00    +0.127 A 
ATOM      6  C   UNL     1       0.546  -1.982   1.319  0.00  0.00    +0.140 A 
ATOM      7  C   UNL     1       1.486  -1.012   1.716  0.00  0.00    +0.277 A 
ATOM      8  O   UNL     1       1.962  -1.041   2.838  0.00  0.00    -0.266 OA
ATOM      9  N   UNL     1       1.857  -0.052   0.846  0.00  0.00    -0.273 N 
ATOM     10  H   UNL     1       2.588   0.712   1.149  0.00  0.00    +0.173 HD
ATOM     11  C   UNL     1       1.343  -0.013  -0.396  0.00  0.00    +0.331 A 
ATOM     12  O   UNL     1       1.698   0.862  -1.162  0.00  0.00    -0.246 OA
BRANCH   5  13
ATOM     13  N   UNL     1      -0.895  -2.854  -0.377  0.00  0.00    -0.343 N 
ATOM     14  H   UNL     1      -1.220  -3.652   0.306  0.00  0.00    +0.144 HD
ATOM     15  H   UNL     1      -1.306  -2.800  -1.396  0.00  0.00    +0.144 HD
ENDBRANCH   5  13
BRANCH   4  16
ATOM     16  C   UNL     1      -0.105  -0.847  -2.163  0.00  0.00    +0.131 C 
BRANCH  16  18
ATOM     17  C   UNL     1      -1.862   0.203  -3.597  0.00  0.00    +0.009 C 
ATOM     18  C   UNL     1      -1.365   0.022  -2.161  0.00  0.00    +0.003 C 
ATOM     19  C   UNL     1      -2.452  -0.658  -1.327  0.00  0.00    +0.009 C 
ENDBRANCH  16  18
ENDBRANCH   4  16
ENDBRANCH   1   6
BRANCH   2  20
ATOM     20  C   UNL     1      -0.770  -1.261   3.674  0.00  0.00    +0.037 A 
ATOM     21  C   UNL     1      -0.911  -0.335   2.637  0.00  0.00    +0.016 A 
ATOM     22  C   UNL     1      -1.197   0.981   2.926  0.00  0.00    +0.046 A 
ATOM     23  C   UNL     1      -1.334   1.391   4.247  0.00  0.00    +0.121 A 
ATOM     24  C   UNL     1      -1.189   0.474   5.281  0.00  0.00    +0.046 A 
ATOM     25  C   UNL     1      -0.908  -0.845   5.001  0.00  0.00    +0.016 A 
BRANCH  23  26
ATOM     26  O   UNL     1      -1.610   2.690   4.527  0.00  0.00    -0.489 OA
BRANCH  26  27
ATOM     27  C   UNL     1      -1.622   3.067   5.905  0.00  0.00    +0.167 C 
ATOM     28  C   UNL     1      -1.327   4.564   6.027  0.00  0.00    +0.051 C 
ATOM     29  C   UNL     1      -2.998   2.769   6.504  0.00  0.00    +0.051 C 
ENDBRANCH  26  27
ENDBRANCH  23  26
ENDBRANCH   2  20
BRANCH   1  30
ATOM     30  C   UNL     1       0.387  -4.403   1.882  0.00  0.00    +0.117 C 
BRANCH  30  31
ATOM     31  C   UNL     1       1.814  -4.781   2.284  0.00  0.00    +0.001 C 
ATOM     32  C   UNL     1       1.970  -4.647   3.800  0.00  0.00    +0.009 C 
ATOM     33  C   UNL     1       2.096  -6.226   1.868  0.00  0.00    +0.009 C 
ENDBRANCH  30  31
ENDBRANCH   1  30
TORSDOF 9
