REMARK  Name = ZINC61364079
REMARK  4 active torsions:
REMARK  status: ('A' for Active; 'I' for Inactive)
REMARK    1  A    between atoms: C_1  and  N_2
REMARK    2  A    between atoms: C_3  and  N_22
REMARK    3  A    between atoms: C_4  and  N_11
REMARK    4  A    between atoms: N_11  and  C_12
REMARK                            x       y       z     vdW  Elec       q    Type
REMARK                         _______ _______ _______ _____ _____    ______ ____
ROOT
ATOM      1  C   UNL     1      -0.012   1.457   0.036  0.00  0.00    +0.155 C 
ATOM      2  N   UNL     1       0.006  -0.008   0.038  0.00  0.00    -0.284 N 
ATOM      3  C   UNL     1      -1.180  -0.706   0.017  0.00  0.00    +0.127 A 
ATOM      4  C   UNL     1      -1.153  -2.075   0.019  0.00  0.00    +0.131 A 
ATOM      5  C   UNL     1       0.091  -2.732   0.042  0.00  0.00    +0.277 A 
ATOM      6  O   UNL     1       0.140  -3.950   0.043  0.00  0.00    -0.266 OA
ATOM      7  N   UNL     1       1.226  -2.007   0.062  0.00  0.00    -0.273 N 
ATOM      8  H   UNL     1       2.085  -2.459   0.077  0.00  0.00    +0.173 HD
ATOM      9  C   UNL     1       1.181  -0.662   0.055  0.00  0.00    +0.331 A 
ATOM     10  O   UNL     1       2.219  -0.029   0.069  0.00  0.00    -0.246 OA
ENDROOT
BRANCH   3  11
ATOM     11  N   UNL     1      -2.381  -0.035  -0.005  0.00  0.00    -0.343 N 
ATOM     12  H   UNL     1      -2.395   0.934  -0.005  0.00  0.00    +0.144 HD
ATOM     13  H   UNL     1      -3.214  -0.532  -0.019  0.00  0.00    +0.144 HD
ENDBRANCH   3  11
BRANCH   4  14
ATOM     14  N   UNL     1      -2.356  -2.816  -0.002  0.00  0.00    -0.330 N 
ATOM     15  H   UNL     1      -3.209  -2.359   0.063  0.00  0.00    +0.147 HD
BRANCH  14  16
ATOM     16  C   UNL     1      -2.315  -4.276  -0.121  0.00  0.00    +0.102 C 
ATOM     17  C   UNL     1      -3.630  -4.869   0.387  0.00  0.00    +0.027 C 
ATOM     18  C   UNL     1      -3.673  -6.372   0.100  0.00  0.00    +0.007 C 
ATOM     19  C   UNL     1      -3.827  -6.580  -1.415  0.00  0.00    +0.043 C 
ATOM     20  C   UNL     1      -2.838  -5.704  -2.112  0.00  0.00    -0.005 A 
ATOM     21  C   UNL     1      -2.131  -4.664  -1.585  0.00  0.00    -0.017 A 
ATOM     22  C   UNL     1      -1.259  -4.000  -2.447  0.00  0.00    +0.013 A 
ATOM     23  C   UNL     1      -1.146  -4.397  -3.735  0.00  0.00    +0.046 A 
ATOM     24  S   UNL     1      -2.303  -5.764  -3.801  0.00  0.00    -0.101 S 
ENDBRANCH  14  16
ENDBRANCH   4  14
TORSDOF 3
