REMARK  Name = ZINC08777526
REMARK  8 active torsions:
REMARK  status: ('A' for Active; 'I' for Inactive)
REMARK    1  A    between atoms: C_1  and  C_2
REMARK    2  A    between atoms: C_2  and  C_25
REMARK    3  A    between atoms: N_5  and  C_9
REMARK    4  A    between atoms: C_9  and  C_10
REMARK    5  A    between atoms: C_10  and  C_12
REMARK    6  A    between atoms: N_20  and  S_21
REMARK    7  A    between atoms: S_21  and  C_24
REMARK    8  A    between atoms: C_29  and  N_31
REMARK                            x       y       z     vdW  Elec       q    Type
REMARK                         _______ _______ _______ _____ _____    ______ ____
ROOT
ATOM      1  C   UNL     1       8.174  -6.848   0.997  0.00  0.00    +0.047 C 
ATOM      2  C   UNL     1       6.754  -6.514   0.535  0.00  0.00    +0.135 C 
ATOM      3  C   UNL     1       6.343  -5.140   1.027  0.00  0.00    +0.251 C 
ATOM      4  O   UNL     1       6.247  -4.774   2.179  0.00  0.00    -0.272 OA
ATOM      5  N   UNL     1       6.106  -4.412  -0.081  0.00  0.00    -0.216 N 
ATOM      6  C   UNL     1       6.315  -5.125  -1.194  0.00  0.00    +0.310 C 
ATOM      7  O   UNL     1       6.170  -4.682  -2.317  0.00  0.00    -0.252 OA
ATOM      8  N   UNL     1       6.702  -6.386  -0.932  0.00  0.00    -0.281 N 
ATOM      9  H   UNL     1       6.909  -7.076  -1.581  0.00  0.00    +0.152 HD
ENDROOT
BRANCH   2  10
ATOM     10  C   UNL     1       5.783  -7.564   1.010  0.00  0.00    -0.014 A 
ATOM     11  C   UNL     1       5.183  -7.440   2.250  0.00  0.00    +0.006 A 
ATOM     12  C   UNL     1       4.287  -8.398   2.686  0.00  0.00    +0.002 A 
ATOM     13  C   UNL     1       3.998  -9.489   1.890  0.00  0.00    +0.028 A 
ATOM     14  C   UNL     1       4.603  -9.619   0.647  0.00  0.00    +0.069 A 
ATOM     15  C   UNL     1       5.497  -8.652   0.209  0.00  0.00    +0.034 A 
BRANCH  14  16
ATOM     16  N   UNL     1       4.311 -10.726  -0.164  0.00  0.00    -0.200 N 
ATOM     17  C   UNL     1       3.471 -11.746   0.113  0.00  0.00    +0.250 A 
ATOM     18  N   UNL     1       3.496 -12.559  -0.912  0.00  0.00    -0.116 NA
ATOM     19  N   UNL     1       4.295 -12.121  -1.817  0.00  0.00    -0.023 NA
ATOM     20  N   UNL     1       4.826 -11.008  -1.441  0.00  0.00    -0.039 NA
ENDBRANCH  14  16
ENDBRANCH   2  10
BRANCH   5  21
ATOM     21  C   UNL     1       5.679  -3.011  -0.070  0.00  0.00    +0.197 C 
BRANCH  21  22
ATOM     22  C   UNL     1       4.173  -2.945  -0.054  0.00  0.00    +0.181 C 
ATOM     23  O   UNL     1       3.521  -3.968  -0.053  0.00  0.00    -0.290 OA
BRANCH  22  24
ATOM     24  C   UNL     1       3.496  -1.643  -0.040  0.00  0.00    +0.019 A 
ATOM     25  C   UNL     1       4.243  -0.458  -0.041  0.00  0.00    +0.013 A 
ATOM     26  C   UNL     1       3.610   0.749  -0.029  0.00  0.00    +0.026 A 
ATOM     27  C   UNL     1       2.211   0.817  -0.015  0.00  0.00    +0.054 A 
ATOM     28  C   UNL     1       1.472  -0.361  -0.014  0.00  0.00    -0.023 A 
ATOM     29  C   UNL     1       2.097  -1.575  -0.026  0.00  0.00    +0.017 A 
ATOM     30  C   UNL     1       0.002  -0.004   0.002  0.00  0.00    +0.058 C 
ATOM     31  C   UNL     1      -0.019   1.533   0.011  0.00  0.00    +0.136 C 
ATOM     32  N   UNL     1       1.389   1.937  -0.001  0.00  0.00    -0.207 N 
BRANCH  32  33
ATOM     33  S   UNL     1       1.925   3.504   0.002  0.00  0.00    +0.043 S 
ATOM     34  O   UNL     1       3.205   3.451  -0.613  0.00  0.00    -0.155 OA
ATOM     35  O   UNL     1       0.869   4.249  -0.587  0.00  0.00    -0.155 OA
ATOM     36  C   UNL     1       2.092   3.936   1.756  0.00  0.00    +0.218 C 
ENDBRANCH  32  33
ENDBRANCH  22  24
ENDBRANCH  21  22
ENDBRANCH   5  21
TORSDOF 6
