REMARK  Name = ZINC13388558
REMARK  17 active torsions:
REMARK  status: ('A' for Active; 'I' for Inactive)
REMARK    1  A    between atoms: C_1  and  C_2
REMARK    2  A    between atoms: C_2  and  C_3
REMARK    3  A    between atoms: C_3  and  C_5
REMARK    4  A    between atoms: C_3  and  O_6
REMARK    5  A    between atoms: O_6  and  C_7
REMARK    6  A    between atoms: C_7  and  C_9
REMARK    7  A    between atoms: C_10  and  C_42
REMARK    8  A    between atoms: C_14  and  C_16
REMARK    9  A    between atoms: C_19  and  O_24
REMARK   10  A    between atoms: C_21  and  O_22
REMARK   11  A    between atoms: O_22  and  C_23
REMARK   12  A    between atoms: O_24  and  C_25
REMARK   13  A    between atoms: C_29  and  C_32
REMARK   14  A    between atoms: C_35  and  O_40
REMARK   15  A    between atoms: C_36  and  O_38
REMARK   16  A    between atoms: O_38  and  C_39
REMARK   17  A    between atoms: O_40  and  C_41
REMARK                            x       y       z     vdW  Elec       q    Type
REMARK                         _______ _______ _______ _____ _____    ______ ____
ROOT
ATOM      1  C   UNL     1      -9.767  -3.714   1.441  0.00  0.00    +0.154 C 
ATOM      2  C   UNL     1      -9.059  -3.421   2.546  0.00  0.00    +0.031 C 
ATOM      3  N   UNL     1      -7.712  -3.204   2.467  0.00  0.00    -0.260 NA
ATOM      4  C   UNL     1      -7.125  -2.886   1.271  0.00  0.00    +0.049 C 
ATOM      5  C   UNL     1      -7.752  -3.159   0.107  0.00  0.00    +0.025 C 
ATOM      6  C   UNL     1      -9.108  -3.818   0.098  0.00  0.00    +0.077 C 
ATOM      7  C   UNL     1      -7.160  -2.838  -1.127  0.00  0.00    +0.162 C 
ATOM      8  O   UNL     1      -7.758  -3.082  -2.157  0.00  0.00    -0.292 OA
ATOM      9  C   UNL     1      -5.798  -2.202  -1.199  0.00  0.00    +0.088 C 
ATOM     10  C   UNL     1      -4.989  -2.617   0.034  0.00  0.00    +0.032 C 
ATOM     11  C   UNL     1      -5.769  -2.226   1.288  0.00  0.00    +0.064 C 
ATOM     12  C   UNL     1      -9.755  -3.331   3.879  0.00  0.00    +0.061 C 
ENDROOT
BRANCH   6  13
ATOM     13  C   UNL     1      -8.948  -5.274  -0.256  0.00  0.00    +0.003 A 
ATOM     14  C   UNL     1      -8.198  -6.104   0.555  0.00  0.00    +0.011 A 
ATOM     15  C   UNL     1      -8.054  -7.440   0.236  0.00  0.00    +0.046 A 
ATOM     16  C   UNL     1      -8.654  -7.950  -0.907  0.00  0.00    +0.124 A 
ATOM     17  C   UNL     1      -9.402  -7.119  -1.725  0.00  0.00    +0.091 A 
ATOM     18  C   UNL     1      -9.550  -5.779  -1.400  0.00  0.00    +0.127 A 
BRANCH  18  19
ATOM     19  O   UNL     1     -10.283  -4.961  -2.201  0.00  0.00    -0.495 OA
ATOM     20  C   UNL     1     -10.873  -5.549  -3.361  0.00  0.00    +0.277 C 
ENDBRANCH  18  19
BRANCH  16  21
ATOM     21  O   UNL     1      -8.508  -9.264  -1.224  0.00  0.00    -0.495 OA
ATOM     22  C   UNL     1      -7.723 -10.062  -0.335  0.00  0.00    +0.277 C 
ENDBRANCH  16  21
ENDBRANCH   6  13
BRANCH  10  23
ATOM     23  C   UNL     1      -3.656  -1.913   0.026  0.00  0.00    -0.040 A 
ATOM     24  C   UNL     1      -3.606  -0.531   0.036  0.00  0.00    +0.008 A 
ATOM     25  C   UNL     1      -2.386   0.118   0.033  0.00  0.00    +0.049 A 
ATOM     26  C   UNL     1      -1.210  -0.615   0.010  0.00  0.00    +0.161 A 
ATOM     27  C   UNL     1      -1.261  -2.005   0.000  0.00  0.00    +0.162 A 
ATOM     28  C   UNL     1      -2.487  -2.651   0.008  0.00  0.00    +0.053 A 
BRANCH  27  29
ATOM     29  O   UNL     1      -0.110  -2.729  -0.017  0.00  0.00    -0.491 OA
ATOM     30  C   UNL     1      -0.239  -4.152  -0.026  0.00  0.00    +0.277 C 
ENDBRANCH  27  29
BRANCH  26  31
ATOM     31  O   UNL     1      -0.009   0.023   0.002  0.00  0.00    -0.491 OA
ATOM     32  C   UNL     1      -0.033   1.452   0.013  0.00  0.00    +0.277 C 
ENDBRANCH  26  31
ENDBRANCH  10  23
BRANCH   1  33
ATOM     33  C   UNL     1     -11.162  -3.926   1.547  0.00  0.00    +0.317 C 
ATOM     34  O   UNL     1     -11.709  -3.842   2.630  0.00  0.00    -0.250 OA
BRANCH  33  35
ATOM     35  O   UNL     1     -11.885  -4.221   0.446  0.00  0.00    -0.461 OA
BRANCH  35  36
ATOM     36  C   UNL     1     -13.288  -4.422   0.627  0.00  0.00    +0.173 C 
ATOM     37  C   UNL     1     -13.558  -5.900   0.917  0.00  0.00    +0.052 C 
BRANCH  36  39
ATOM     38  C   UNL     1     -13.862  -2.504  -0.868  0.00  0.00    +0.007 C 
ATOM     39  C   UNL     1     -14.030  -4.008  -0.646  0.00  0.00    +0.041 C 
ENDBRANCH  36  39
ENDBRANCH  35  36
ENDBRANCH  33  35
ENDBRANCH   1  33
TORSDOF 10
