REMARK  Name = ZINC12104600
REMARK  8 active torsions:
REMARK  status: ('A' for Active; 'I' for Inactive)
REMARK    1  A    between atoms: C_6  and  C_27
REMARK    2  A    between atoms: C_7  and  N_9
REMARK    3  A    between atoms: C_10  and  C_12
REMARK    4  A    between atoms: C_12  and  S_13
REMARK    5  A    between atoms: S_13  and  C_14
REMARK    6  A    between atoms: C_17  and  C_20
REMARK    7  A    between atoms: C_20  and  C_21
REMARK    8  A    between atoms: C_21  and  C_22
REMARK                            x       y       z     vdW  Elec       q    Type
REMARK                         _______ _______ _______ _____ _____    ______ ____
ROOT
ATOM      1  N   UNL     1      -0.288   1.272  -2.443  0.00  0.00    -0.279 N 
ATOM      2  C   UNL     1      -0.742   1.585  -1.213  0.00  0.00    +0.228 C 
ATOM      3  O   UNL     1      -1.736   2.268  -1.088  0.00  0.00    -0.275 OA
ATOM      4  H   UNL     1       0.507   0.726  -2.543  0.00  0.00    +0.155 HD
ENDROOT
BRANCH   1  11
ATOM      5  C   UNL     1      -2.628   2.321  -8.111  0.00  0.00    +0.005 C 
ATOM      6  C   UNL     1      -3.135   3.685  -7.634  0.00  0.00    +0.005 C 
ATOM      7  C   UNL     1      -3.612   3.554  -6.180  0.00  0.00    +0.043 C 
ATOM      8  C   UNL     1      -2.558   2.829  -5.401  0.00  0.00    -0.004 A 
ATOM      9  C   UNL     1      -1.523   2.118  -5.897  0.00  0.00    -0.023 A 
ATOM     10  C   UNL     1      -0.647   1.523  -4.902  0.00  0.00    +0.068 A 
ATOM     11  C   UNL     1      -0.959   1.732  -3.566  0.00  0.00    +0.084 A 
ATOM     12  S   UNL     1      -2.386   2.712  -3.643  0.00  0.00    -0.077 S 
ATOM     13  C   UNL     1      -1.318   1.975  -7.401  0.00  0.00    +0.037 C 
BRANCH  10  14
ATOM     14  C   UNL     1       0.521   0.728  -5.295  0.00  0.00    +0.244 C 
ATOM     15  O   UNL     1       0.412  -0.473  -5.461  0.00  0.00    -0.270 OA
ATOM     16  N   UNL     1       1.715   1.327  -5.473  0.00  0.00    -0.325 N 
ATOM     17  H   UNL     1       1.802   2.284  -5.340  0.00  0.00    +0.145 HD
ATOM     18  H   UNL     1       2.487   0.801  -5.732  0.00  0.00    +0.145 HD
ENDBRANCH  10  14
ENDBRANCH   1  11
BRANCH   2  19
ATOM     19  C   UNL     1      -0.013   1.086   0.008  0.00  0.00    +0.173 C 
BRANCH  19  20
ATOM     20  S   UNL     1      -0.860   1.669   1.497  0.00  0.00    -0.077 S 
BRANCH  20  21
ATOM     21  C   UNL     1       0.174   0.961   2.735  0.00  0.00    +0.189 A 
ATOM     22  N   UNL     1       0.015   1.071   4.087  0.00  0.00    -0.320 N 
ATOM     23  H   UNL     1      -0.683   1.553   4.557  0.00  0.00    +0.169 HD
ATOM     24  C   UNL     1       1.046   0.363   4.640  0.00  0.00    +0.132 A 
ATOM     25  N   UNL     1       1.752  -0.124   3.660  0.00  0.00    -0.134 NA
ATOM     26  N   UNL     1       1.240   0.221   2.533  0.00  0.00    -0.123 NA
BRANCH  24  27
ATOM     27  C   UNL     1       1.315   0.180   6.112  0.00  0.00    +0.076 C 
BRANCH  27  28
ATOM     28  C   UNL     1       1.402  -1.314   6.432  0.00  0.00    +0.011 C 
BRANCH  28  29
ATOM     29  C   UNL     1       1.675  -1.500   7.926  0.00  0.00    -0.011 C 
ATOM     30  C   UNL     1       3.091  -0.996   8.271  0.00  0.00    +0.003 C 
ATOM     31  C   UNL     1       3.600  -1.996   9.339  0.00  0.00    +0.000 C 
ATOM     32  C   UNL     1       3.038  -3.348   8.837  0.00  0.00    +0.000 C 
ATOM     33  C   UNL     1       1.641  -2.996   8.286  0.00  0.00    +0.003 C 
ENDBRANCH  28  29
ENDBRANCH  27  28
ENDBRANCH  24  27
ENDBRANCH  20  21
ENDBRANCH  19  20
ENDBRANCH   2  19
TORSDOF 8
