REMARK  Name = ZINC40779897
REMARK  4 active torsions:
REMARK  status: ('A' for Active; 'I' for Inactive)
REMARK    1  A    between atoms: C_4  and  C_23
REMARK    2  A    between atoms: C_6  and  N_7
REMARK    3  A    between atoms: C_9  and  N_22
REMARK    4  A    between atoms: C_10  and  N_14
REMARK                            x       y       z     vdW  Elec       q    Type
REMARK                         _______ _______ _______ _____ _____    ______ ____
ROOT
ATOM      1  N   UNL     1      -1.200  -0.723  -0.012  0.00  0.00    -0.298 N 
ATOM      2  C   UNL     1      -2.410  -0.050   0.113  0.00  0.00    +0.149 A 
ATOM      3  C   UNL     1      -3.607  -0.759   0.240  0.00  0.00    +0.106 A 
ATOM      4  C   UNL     1      -4.793  -0.033   0.362  0.00  0.00    +0.150 A 
ATOM      5  N   UNL     1      -4.739   1.297   0.354  0.00  0.00    -0.219 NA
ATOM      6  C   UNL     1      -3.589   1.927   0.233  0.00  0.00    +0.225 A 
ATOM      7  N   UNL     1      -2.446   1.281   0.120  0.00  0.00    -0.219 NA
ATOM      8  H   UNL     1      -1.189  -1.690  -0.090  0.00  0.00    +0.154 HD
ENDROOT
BRANCH   4   9
ATOM      9  N   UNL     1      -6.013  -0.690   0.491  0.00  0.00    -0.283 N 
ATOM     10  C   UNL     1      -7.198   0.040   0.503  0.00  0.00    +0.124 A 
ATOM     11  C   UNL     1      -8.418  -0.628   0.520  0.00  0.00    +0.045 A 
ATOM     12  C   UNL     1      -9.588   0.109   0.533  0.00  0.00    +0.020 A 
ATOM     13  C   UNL     1      -9.499   1.496   0.529  0.00  0.00    +0.036 A 
ATOM     14  C   UNL     1      -8.253   2.092   0.512  0.00  0.00    +0.128 A 
ATOM     15  N   UNL     1      -7.153   1.363   0.505  0.00  0.00    -0.239 NA
ATOM     16 BR   UNL     1     -11.065   2.554   0.545  0.00  0.00    -0.049 Br
ATOM     17  H   UNL     1      -6.037  -1.656   0.571  0.00  0.00    +0.155 HD
ENDBRANCH   4   9
BRANCH   1  23
ATOM     18  C   UNL     1       0.119   1.165   0.713  0.00  0.00    +0.025 A 
ATOM     19  C   UNL     1       1.306   1.870   0.699  0.00  0.00    +0.022 A 
ATOM     20  C   UNL     1       2.377   1.411  -0.047  0.00  0.00    +0.053 A 
ATOM     21  C   UNL     1       2.262   0.243  -0.781  0.00  0.00    +0.075 A 
ATOM     22  C   UNL     1       1.077  -0.466  -0.772  0.00  0.00    +0.037 A 
ATOM     23  C   UNL     1       0.000  -0.007  -0.024  0.00  0.00    +0.033 A 
ATOM     24 CL   UNL     1       3.868   2.300  -0.062  0.00  0.00    -0.083 Cl
BRANCH  21  25
ATOM     25  C   UNL     1       3.430  -0.254  -1.593  0.00  0.00    +0.419 C 
ATOM     26  F   UNL     1       3.075  -1.441  -2.243  0.00  0.00    -0.166 F 
ATOM     27  F   UNL     1       3.782   0.711  -2.543  0.00  0.00    -0.166 F 
ATOM     28  F   UNL     1       4.518  -0.493  -0.747  0.00  0.00    -0.166 F 
ENDBRANCH  21  25
ENDBRANCH   1  23
BRANCH   3  29
ATOM     29  N   UNL     1      -3.617  -2.162   0.243  0.00  0.00    -0.353 N 
ATOM     30  H   UNL     1      -2.784  -2.653   0.156  0.00  0.00    +0.143 HD
ATOM     31  H   UNL     1      -4.455  -2.641   0.331  0.00  0.00    +0.143 HD
ENDBRANCH   3  29
TORSDOF 4
