REMARK  Name = ZINC44776526
REMARK  6 active torsions:
REMARK  status: ('A' for Active; 'I' for Inactive)
REMARK    1  A    between atoms: C_4  and  C_7
REMARK    2  A    between atoms: C_4  and  C_10
REMARK    3  A    between atoms: C_7  and  N_9
REMARK    4  A    between atoms: N_12  and  C_13
REMARK    5  A    between atoms: C_13  and  C_14
REMARK    6  A    between atoms: N_16  and  C_17
REMARK                            x       y       z     vdW  Elec       q    Type
REMARK                         _______ _______ _______ _____ _____    ______ ____
ROOT
ATOM      1  C   UNL     1       2.914  -0.481   0.021  0.00  0.00    +0.226 C 
ATOM      2  O   UNL     1       3.419   0.301  -0.755  0.00  0.00    -0.275 OA
ATOM      3  N   UNL     1       3.022  -1.808  -0.191  0.00  0.00    -0.306 N 
ATOM      4  H   UNL     1       2.682  -2.434   0.467  0.00  0.00    +0.149 HD
ENDROOT
BRANCH   1   8
ATOM      5  C   UNL     1      -0.119   1.303  -0.100  0.00  0.00    +0.000 C 
ATOM      6  C   UNL     1       1.277   1.929  -0.136  0.00  0.00    +0.001 C 
ATOM      7  C   UNL     1       2.037   1.552   1.137  0.00  0.00    +0.023 C 
ATOM      8  C   UNL     1       2.164   0.030   1.224  0.00  0.00    +0.091 C 
ATOM      9  C   UNL     1       0.768  -0.596   1.260  0.00  0.00    +0.023 C 
ATOM     10  C   UNL     1       0.008  -0.220  -0.013  0.00  0.00    +0.001 C 
BRANCH   8  11
ATOM     11  C   UNL     1       2.913  -0.341   2.478  0.00  0.00    +0.061 C 
ATOM     12  S   UNL     1       2.174  -1.155   3.639  0.00  0.00    -0.040 S 
BRANCH  11  13
ATOM     13  N   UNL     1       4.205   0.014   2.621  0.00  0.00    -0.355 N 
ATOM     14  H   UNL     1       4.632   0.570   1.951  0.00  0.00    +0.143 HD
ATOM     15  H   UNL     1       4.708  -0.286   3.394  0.00  0.00    +0.143 HD
ENDBRANCH  11  13
ENDBRANCH   8  11
ENDBRANCH   1   8
BRANCH   3  16
ATOM     16  C   UNL     1       3.655  -2.304  -1.416  0.00  0.00    +0.200 C 
BRANCH  16  17
ATOM     17  C   UNL     1       3.650  -3.811  -1.409  0.00  0.00    +0.230 C 
ATOM     18  O   UNL     1       3.166  -4.411  -0.472  0.00  0.00    -0.274 OA
ATOM     19  N   UNL     1       4.184  -4.491  -2.442  0.00  0.00    -0.311 N 
ATOM     20  H   UNL     1       4.571  -4.011  -3.191  0.00  0.00    +0.149 HD
BRANCH  19  21
ATOM     21  C   UNL     1       4.179  -5.956  -2.435  0.00  0.00    +0.073 C 
ATOM     22  C   UNL     1       5.460  -6.669  -2.875  0.00  0.00    +0.024 C 
ATOM     23  C   UNL     1       4.232  -6.669  -3.788  0.00  0.00    +0.024 C 
ENDBRANCH  19  21
ENDBRANCH  16  17
ENDBRANCH   3  16
TORSDOF 6
