REMARK  Name = ZINC57505505
REMARK  6 active torsions:
REMARK  status: ('A' for Active; 'I' for Inactive)
REMARK    1  A    between atoms: C_1  and  O_2
REMARK    2  A    between atoms: O_2  and  C_3
REMARK    3  A    between atoms: C_6  and  N_9
REMARK    4  A    between atoms: N_9  and  C_10
REMARK    5  A    between atoms: C_10  and  N_12
REMARK    6  A    between atoms: N_12  and  N_13
REMARK                            x       y       z     vdW  Elec       q    Type
REMARK                         _______ _______ _______ _____ _____    ______ ____
ROOT
ATOM      1  N   UNL     1       3.853  -3.608  -6.338  0.00  0.00    -0.235 N 
ATOM      2  C   UNL     1       4.552  -4.209  -7.355  0.00  0.00    +0.213 A 
ATOM      3  N   UNL     1       5.108  -3.440  -8.334  0.00  0.00    -0.293 N 
ATOM      4  H   UNL     1       5.002  -2.476  -8.300  0.00  0.00    +0.172 HD
ATOM      5  C   UNL     1       5.801  -3.992  -9.347  0.00  0.00    +0.261 A 
ATOM      6  O   UNL     1       6.292  -3.290 -10.215  0.00  0.00    -0.267 OA
ATOM      7  C   UNL     1       5.952  -5.414  -9.392  0.00  0.00    +0.075 A 
ATOM      8  C   UNL     1       6.656  -6.221 -10.391  0.00  0.00    -0.023 A 
ATOM      9  C   UNL     1       6.656  -7.557 -10.209  0.00  0.00    -0.004 A 
ATOM     10  S   UNL     1       5.733  -7.818  -8.718  0.00  0.00    -0.073 S 
ATOM     11  C   UNL     1       5.347  -6.127  -8.344  0.00  0.00    +0.117 A 
ATOM     12  N   UNL     1       4.680  -5.519  -7.369  0.00  0.00    -0.207 NA
ATOM     13  C   UNL     1       7.298  -8.592 -11.081  0.00  0.00    +0.043 C 
ATOM     14  C   UNL     1       7.648  -7.942 -12.427  0.00  0.00    +0.005 C 
ATOM     15  C   UNL     1       8.357  -6.611 -12.159  0.00  0.00    +0.005 C 
ATOM     16  C   UNL     1       7.363  -5.598 -11.591  0.00  0.00    +0.037 C 
ATOM     17  H   UNL     1       3.753  -2.643  -6.321  0.00  0.00    +0.173 HD
ENDROOT
BRANCH   1  18
ATOM     18  N   UNL     1       3.282  -4.388  -5.324  0.00  0.00    -0.245 N 
ATOM     19  H   UNL     1       3.381  -5.353  -5.340  0.00  0.00    +0.172 HD
BRANCH  18  20
ATOM     20  C   UNL     1       2.596  -3.798  -4.325  0.00  0.00    +0.151 C 
ATOM     21  S   UNL     1       1.898  -4.752  -3.086  0.00  0.00    -0.017 S 
BRANCH  20  22
ATOM     22  N   UNL     1       2.458  -2.458  -4.302  0.00  0.00    -0.296 N 
ATOM     23  H   UNL     1       2.783  -1.924  -5.044  0.00  0.00    +0.154 HD
BRANCH  22  27
ATOM     24  C   UNL     1       0.638  -0.604  -1.040  0.00  0.00    +0.120 A 
ATOM     25  C   UNL     1       1.535  -1.643  -0.836  0.00  0.00    +0.047 A 
ATOM     26  C   UNL     1       2.138  -2.257  -1.916  0.00  0.00    +0.027 A 
ATOM     27  C   UNL     1       1.847  -1.835  -3.206  0.00  0.00    +0.033 A 
ATOM     28  C   UNL     1       0.949  -0.795  -3.410  0.00  0.00    +0.027 A 
ATOM     29  C   UNL     1       0.343  -0.185  -2.329  0.00  0.00    +0.047 A 
BRANCH  24  31
ATOM     30  C   UNL     1       0.396  -0.481   1.322  0.00  0.00    +0.277 C 
ATOM     31  O   UNL     1       0.045   0.001   0.024  0.00  0.00    -0.495 OA
ENDBRANCH  24  31
ENDBRANCH  22  27
ENDBRANCH  20  22
ENDBRANCH  18  20
ENDBRANCH   1  18
TORSDOF 5
