REMARK  Name = ZINC42667387
REMARK  7 active torsions:
REMARK  status: ('A' for Active; 'I' for Inactive)
REMARK    1  A    between atoms: C_1  and  C_2
REMARK    2  A    between atoms: C_2  and  C_4
REMARK    3  A    between atoms: C_2  and  N_15
REMARK    4  A    between atoms: N_6  and  C_7
REMARK    5  A    between atoms: N_15  and  C_16
REMARK    6  A    between atoms: C_19  and  N_22
REMARK    7  A    between atoms: N_25  and  C_26
REMARK                            x       y       z     vdW  Elec       q    Type
REMARK                         _______ _______ _______ _____ _____    ______ ____
ROOT
ATOM      1  N   UNL     1       1.042  -0.352  -0.990  0.00  0.00    -0.333 N 
ATOM      2  H   UNL     1       2.005  -0.453  -0.941  0.00  0.00    +0.147 HD
ENDROOT
BRANCH   1   3
ATOM      3  C   UNL     1       0.389  -0.451  -2.224  0.00  0.00    +0.028 A 
ATOM      4  C   UNL     1      -0.990  -0.301  -2.295  0.00  0.00    +0.025 A 
ATOM      5  C   UNL     1      -1.633  -0.399  -3.512  0.00  0.00    +0.025 A 
ATOM      6  C   UNL     1      -0.902  -0.648  -4.666  0.00  0.00    +0.035 A 
ATOM      7  C   UNL     1       0.476  -0.799  -4.595  0.00  0.00    +0.025 A 
ATOM      8  C   UNL     1       1.121  -0.695  -3.379  0.00  0.00    +0.025 A 
BRANCH   6   9
ATOM      9  N   UNL     1      -1.556  -0.748  -5.902  0.00  0.00    -0.269 N 
ATOM     10  C   UNL     1      -2.626   0.028  -6.163  0.00  0.00    +0.304 C 
ATOM     11  O   UNL     1      -3.076   0.754  -5.298  0.00  0.00    -0.253 OA
ATOM     12  N   UNL     1      -3.198  -0.001  -7.383  0.00  0.00    -0.296 N 
ATOM     13  H   UNL     1      -1.237  -1.376  -6.570  0.00  0.00    +0.156 HD
ATOM     14  H   UNL     1      -2.839  -0.580  -8.073  0.00  0.00    +0.151 HD
BRANCH  12  15
ATOM     15  C   UNL     1      -4.362   0.843  -7.667  0.00  0.00    +0.075 C 
ATOM     16  C   UNL     1      -5.522   0.210  -8.438  0.00  0.00    +0.024 C 
ATOM     17  C   UNL     1      -4.614   1.232  -9.125  0.00  0.00    +0.024 C 
ENDBRANCH  12  15
ENDBRANCH   6   9
ENDBRANCH   1   3
BRANCH   1  19
ATOM     18  C   UNL     1       0.053   1.411   0.387  0.00  0.00    +0.038 C 
ATOM     19  C   UNL     1       0.270  -0.095   0.228  0.00  0.00    +0.154 C 
BRANCH  19  20
ATOM     20  C   UNL     1       1.024  -0.623   1.421  0.00  0.00    +0.237 C 
ATOM     21  O   UNL     1       2.100  -1.161   1.269  0.00  0.00    -0.273 OA
ATOM     22  N   UNL     1       0.502  -0.497   2.658  0.00  0.00    -0.284 N 
ATOM     23  H   UNL     1      -0.322  -0.003   2.788  0.00  0.00    +0.155 HD
BRANCH  22  24
ATOM     24  C   UNL     1       1.150  -1.080   3.754  0.00  0.00    +0.036 A 
ATOM     25  C   UNL     1       1.098  -0.467   4.998  0.00  0.00    +0.026 A 
ATOM     26  C   UNL     1       1.738  -1.043   6.079  0.00  0.00    +0.043 A 
ATOM     27  C   UNL     1       2.430  -2.231   5.923  0.00  0.00    +0.159 A 
ATOM     28  C   UNL     1       2.483  -2.846   4.681  0.00  0.00    +0.160 A 
ATOM     29  C   UNL     1       1.839  -2.275   3.598  0.00  0.00    +0.064 A 
ATOM     30  F   UNL     1       3.159  -4.006   4.530  0.00  0.00    -0.202 F 
ATOM     31  F   UNL     1       3.055  -2.793   6.981  0.00  0.00    -0.202 F 
ENDBRANCH  22  24
ENDBRANCH  19  20
ENDBRANCH   1  19
TORSDOF 6
