REMARK  Name = ZINC63352815
REMARK  7 active torsions:
REMARK  status: ('A' for Active; 'I' for Inactive)
REMARK    1  A    between atoms: C_3  and  C_8
REMARK    2  A    between atoms: C_10  and  N_11
REMARK    3  A    between atoms: N_14  and  C_15
REMARK    4  A    between atoms: C_15  and  C_16
REMARK    5  A    between atoms: C_16  and  C_17
REMARK    6  A    between atoms: C_20  and  S_23
REMARK    7  A    between atoms: S_23  and  N_26
REMARK                            x       y       z     vdW  Elec       q    Type
REMARK                         _______ _______ _______ _____ _____    ______ ____
ROOT
ATOM      1  N   UNL     1       4.234   1.008   2.182  0.00  0.00    -0.296 N 
ATOM      2  C   UNL     1       4.736   1.117   3.428  0.00  0.00    +0.300 C 
ATOM      3  O   UNL     1       5.523   2.005   3.691  0.00  0.00    -0.253 OA
ATOM      4  N   UNL     1       4.364   0.241   4.383  0.00  0.00    -0.299 N 
ATOM      5  H   UNL     1       3.605   0.299   1.972  0.00  0.00    +0.151 HD
ATOM      6  H   UNL     1       3.736  -0.467   4.173  0.00  0.00    +0.150 HD
ENDROOT
BRANCH   1   9
ATOM      7  C   UNL     1       3.672   2.186  -0.021  0.00  0.00    +0.041 C 
ATOM      8  C   UNL     1       4.964   1.398  -0.241  0.00  0.00    +0.033 C 
ATOM      9  C   UNL     1       4.637   1.960   1.144  0.00  0.00    +0.082 C 
BRANCH   7  12
ATOM     10  C   UNL     1      -0.017   1.377   0.010  0.00  0.00    +0.003 A 
ATOM     11  C   UNL     1       1.171   2.086   0.002  0.00  0.00    +0.004 A 
ATOM     12  C   UNL     1       2.378   1.413  -0.013  0.00  0.00    -0.040 A 
ATOM     13  C   UNL     1       2.399   0.030  -0.021  0.00  0.00    +0.042 A 
ATOM     14  C   UNL     1       1.211  -0.679  -0.013  0.00  0.00    +0.124 A 
ATOM     15  C   UNL     1       0.002  -0.004   0.002  0.00  0.00    +0.038 A 
ATOM     16  F   UNL     1       1.230  -2.030  -0.022  0.00  0.00    -0.205 F 
ENDBRANCH   7  12
ENDBRANCH   1   9
BRANCH   4  17
ATOM     17  C   UNL     1       4.910   0.360   5.737  0.00  0.00    +0.110 C 
BRANCH  17  18
ATOM     18  C   UNL     1       4.331  -0.749   6.619  0.00  0.00    +0.054 C 
BRANCH  18  19
ATOM     19  C   UNL     1       4.892  -0.627   8.012  0.00  0.00    -0.046 A 
ATOM     20  C   UNL     1       6.062  -1.283   8.346  0.00  0.00    +0.005 A 
ATOM     21  C   UNL     1       6.577  -1.171   9.624  0.00  0.00    +0.029 A 
ATOM     22  C   UNL     1       5.922  -0.403  10.568  0.00  0.00    +0.105 A 
ATOM     23  C   UNL     1       4.753   0.254  10.234  0.00  0.00    +0.029 A 
ATOM     24  C   UNL     1       4.240   0.146   8.955  0.00  0.00    +0.005 A 
BRANCH  22  25
ATOM     25  S   UNL     1       6.578  -0.261  12.198  0.00  0.00    +0.056 S 
ATOM     26  O   UNL     1       5.488   0.073  13.046  0.00  0.00    -0.153 OA
ATOM     27  O   UNL     1       7.385  -1.411  12.412  0.00  0.00    -0.153 OA
BRANCH  25  28
ATOM     28  N   UNL     1       7.599   1.042  12.203  0.00  0.00    -0.204 NA
ATOM     29  H   UNL     1       7.731   1.558  11.392  0.00  0.00    +0.144 HD
ATOM     30  H   UNL     1       8.065   1.290  13.017  0.00  0.00    +0.144 HD
ENDBRANCH  25  28
ENDBRANCH  22  25
ENDBRANCH  18  19
ENDBRANCH  17  18
ENDBRANCH   4  17
TORSDOF 7
