REMARK  Name = ZINC23576073
REMARK  8 active torsions:
REMARK  status: ('A' for Active; 'I' for Inactive)
REMARK    1  A    between atoms: C_3  and  C_6
REMARK    2  A    between atoms: N_8  and  C_9
REMARK    3  A    between atoms: C_12  and  C_14
REMARK    4  A    between atoms: C_14  and  O_16
REMARK    5  A    between atoms: O_16  and  C_17
REMARK    6  A    between atoms: C_17  and  C_18
REMARK    7  A    between atoms: N_20  and  C_21
REMARK    8  A    between atoms: C_22  and  C_29
REMARK                            x       y       z     vdW  Elec       q    Type
REMARK                         _______ _______ _______ _____ _____    ______ ____
ROOT
ATOM      1  C   UNL     1       1.121   3.579   0.011  0.00  0.00    +0.328 C 
ENDROOT
BRANCH   1   2
ATOM      2  C   UNL     1       1.141   2.072   0.002  0.00  0.00    +0.255 C 
ATOM      3  O   UNL     1       2.200   1.480  -0.011  0.00  0.00    -0.272 OA
ATOM      4  N   UNL     1      -0.017   1.382   0.010  0.00  0.00    -0.277 N 
ATOM      5  H   UNL     1      -0.977   1.919   0.022  0.00  0.00    +0.155 HD
BRANCH   4   6
ATOM      6  C   UNL     1       0.002  -0.004   0.002  0.00  0.00    +0.084 A 
ATOM      7  C   UNL     1      -1.071  -0.879   0.013  0.00  0.00    +0.068 A 
ATOM      8  C   UNL     1      -0.776  -2.312  -0.003  0.00  0.00    -0.023 A 
ATOM      9  C   UNL     1       0.532  -2.626  -0.017  0.00  0.00    -0.004 A 
ATOM     10  S   UNL     1       1.372  -1.061  -0.016  0.00  0.00    -0.077 S 
ATOM     11  C   UNL     1       0.754  -4.114  -0.030  0.00  0.00    +0.043 C 
ATOM     12  C   UNL     1      -0.606  -4.707  -0.459  0.00  0.00    +0.010 C 
ATOM     13  C   UNL     1      -1.586  -3.609  -0.000  0.00  0.00    +0.037 C 
BRANCH   7  14
ATOM     14  C   UNL     1      -2.452  -0.388   0.036  0.00  0.00    +0.244 C 
ATOM     15  O   UNL     1      -3.041  -0.178  -1.008  0.00  0.00    -0.270 OA
ATOM     16  N   UNL     1      -3.069  -0.167   1.214  0.00  0.00    -0.325 N 
ATOM     17  H   UNL     1      -4.105   0.202   1.231  0.00  0.00    +0.145 HD
ATOM     18  H   UNL     1      -2.537  -0.356   2.158  0.00  0.00    +0.145 HD
ENDBRANCH   7  14
ENDBRANCH   4   6
ENDBRANCH   1   2
BRANCH   1  19
ATOM     19  O   UNL     1       2.461   4.074   0.000  0.00  0.00    -0.451 OA
BRANCH  19  20
ATOM     20  C   UNL     1       2.620   5.414   0.006  0.00  0.00    +0.346 C 
ATOM     21  O   UNL     1       1.645   6.142   0.019  0.00  0.00    -0.244 OA
BRANCH  20  25
ATOM     22  C   UNL     1       6.530   6.534  -0.024  0.00  0.00    +0.073 A 
ATOM     23  C   UNL     1       5.637   7.585  -0.011  0.00  0.00    +0.032 A 
ATOM     24  C   UNL     1       4.297   7.310   0.000  0.00  0.00    +0.024 A 
ATOM     25  C   UNL     1       3.921   5.973  -0.003  0.00  0.00    +0.098 A 
ATOM     26  S   UNL     1       5.499   5.141  -0.015  0.00  0.00    -0.067 S 
BRANCH  22  29
ATOM     27  C   UNL     1       8.630   5.437  -0.049  0.00  0.00    +0.284 C 
ATOM     28  O   UNL     1       8.057   4.363  -0.050  0.00  0.00    -0.266 OA
ATOM     29  N   UNL     1       7.917   6.581  -0.036  0.00  0.00    -0.273 N 
ATOM     30  H   UNL     1       8.435   7.551  -0.036  0.00  0.00    +0.156 HD
BRANCH  27  33
ATOM     31  C   UNL     1      12.242   4.917  -0.085  0.00  0.00    +0.042 A 
ATOM     32  C   UNL     1      10.934   4.409  -0.075  0.00  0.00    +0.054 A 
ATOM     33  C   UNL     1      10.095   5.486  -0.062  0.00  0.00    +0.189 A 
ATOM     34  O   UNL     1      10.851   6.604  -0.068  0.00  0.00    -0.458 OA
ATOM     35  C   UNL     1      12.146   6.265  -0.077  0.00  0.00    +0.196 A 
ENDBRANCH  27  33
ENDBRANCH  22  29
ENDBRANCH  20  25
ENDBRANCH  19  20
ENDBRANCH   1  19
TORSDOF 8
