REMARK  Name = ZINC13685162
REMARK  14 active torsions:
REMARK  status: ('A' for Active; 'I' for Inactive)
REMARK    1  A    between atoms: C_1  and  C_2
REMARK    2  A    between atoms: C_2  and  C_3
REMARK    3  A    between atoms: C_3  and  C_4
REMARK    4  A    between atoms: C_4  and  N_5
REMARK    5  A    between atoms: N_5  and  C_6
REMARK    6  A    between atoms: N_5  and  C_19
REMARK    7  A    between atoms: C_7  and  N_18
REMARK    8  A    between atoms: N_8  and  C_15
REMARK    9  A    between atoms: C_15  and  C_16
REMARK   10  A    between atoms: C_16  and  C_17
REMARK   11  A    between atoms: C_19  and  N_20
REMARK   12  A    between atoms: N_20  and  C_21
REMARK   13  A    between atoms: C_25  and  C_28
REMARK   14  A    between atoms: C_26  and  C_27
REMARK                            x       y       z     vdW  Elec       q    Type
REMARK                         _______ _______ _______ _____ _____    ______ ____
ROOT
ATOM      1  N   UNL     1       1.312  -2.736  -2.234  0.00  0.00    -0.275 N 
ENDROOT
BRANCH   1   2
ATOM      2  C   UNL     1       2.644  -3.071  -1.907  0.00  0.00    +0.139 A 
ATOM      3  C   UNL     1       2.917  -3.897  -0.836  0.00  0.00    +0.127 A 
ATOM      4  N   UNL     1       4.225  -4.206  -0.542  0.00  0.00    -0.280 N 
ATOM      5  C   UNL     1       5.226  -3.708  -1.290  0.00  0.00    +0.331 A 
ATOM      6  O   UNL     1       6.376  -3.993  -1.014  0.00  0.00    -0.246 OA
ATOM      7  N   UNL     1       4.979  -2.902  -2.338  0.00  0.00    -0.273 N 
ATOM      8  H   UNL     1       5.718  -2.557  -2.862  0.00  0.00    +0.173 HD
ATOM      9  C   UNL     1       3.716  -2.574  -2.671  0.00  0.00    +0.277 A 
ATOM     10  O   UNL     1       3.502  -1.846  -3.626  0.00  0.00    -0.266 OA
BRANCH   3  11
ATOM     11  N   UNL     1       1.893  -4.404  -0.070  0.00  0.00    -0.343 N 
ATOM     12  H   UNL     1       0.979  -4.125  -0.237  0.00  0.00    +0.144 HD
ATOM     13  H   UNL     1       2.086  -5.040   0.636  0.00  0.00    +0.144 HD
ENDBRANCH   3  11
BRANCH   4  14
ATOM     14  C   UNL     1       4.529  -5.081   0.593  0.00  0.00    +0.128 C 
BRANCH  14  15
ATOM     15  C   UNL     1       4.558  -6.536   0.121  0.00  0.00    +0.018 C 
ATOM     16  C   UNL     1       4.875  -7.450   1.306  0.00  0.00    +0.005 C 
ENDBRANCH  14  15
ENDBRANCH   4  14
ENDBRANCH   1   2
BRANCH   1  17
ATOM     17  C   UNL     1       0.774  -3.166  -3.392  0.00  0.00    +0.142 C 
ATOM     18  S   UNL     1       1.658  -4.225  -4.405  0.00  0.00    -0.018 S 
BRANCH  17  19
ATOM     19  N   UNL     1      -0.461  -2.763  -3.752  0.00  0.00    -0.296 N 
ATOM     20  H   UNL     1      -0.931  -2.103  -3.218  0.00  0.00    +0.154 HD
BRANCH  19  21
ATOM     21  C   UNL     1      -1.064  -3.294  -4.897  0.00  0.00    +0.036 A 
ATOM     22  C   UNL     1      -0.319  -3.479  -6.055  0.00  0.00    +0.023 A 
ATOM     23  C   UNL     1      -0.917  -4.004  -7.183  0.00  0.00    +0.002 A 
ATOM     24  C   UNL     1      -2.257  -4.346  -7.161  0.00  0.00    +0.004 A 
ATOM     25  C   UNL     1      -3.001  -4.163  -6.011  0.00  0.00    -0.046 A 
ATOM     26  C   UNL     1      -2.407  -3.644  -4.877  0.00  0.00    -0.026 A 
ATOM     27  C   UNL     1      -3.218  -3.451  -3.621  0.00  0.00    +0.046 C 
ATOM     28  C   UNL     1      -4.461  -4.537  -5.992  0.00  0.00    +0.044 C 
ENDBRANCH  19  21
ENDBRANCH  17  19
ENDBRANCH   1  17
BRANCH   1  29
ATOM     29  C   UNL     1       0.515  -1.920  -1.314  0.00  0.00    +0.113 C 
BRANCH  29  30
ATOM     30  C   UNL     1       0.783  -0.438  -1.584  0.00  0.00    +0.019 C 
BRANCH  30  32
ATOM     31  C   UNL     1       0.218   1.896  -0.893  0.00  0.00    +0.004 C 
ATOM     32  C   UNL     1      -0.050   0.414  -0.624  0.00  0.00    -0.002 C 
ENDBRANCH  30  32
ENDBRANCH  29  30
ENDBRANCH   1  29
TORSDOF 10
