REMARK  Name = ZINC12343413
REMARK  2 active torsions:
REMARK  status: ('A' for Active; 'I' for Inactive)
REMARK    1  A    between atoms: C_5  and  O_20
REMARK    2  A    between atoms: N_10  and  N_11
REMARK                            x       y       z     vdW  Elec       q    Type
REMARK                         _______ _______ _______ _____ _____    ______ ____
ROOT
ATOM      1  C   UNL     1      -0.019   1.523   0.010  0.00  0.00    +0.013 C 
ATOM      2  C   UNL     1       1.416   2.065  -0.000  0.00  0.00    +0.038 C 
ATOM      3  C   UNL     1       2.130   1.566  -1.263  0.00  0.00    +0.044 C 
ATOM      4  C   UNL     1       2.142   0.039  -1.284  0.00  0.00    +0.068 C 
ATOM      5  C   UNL     1       2.881  -0.514  -0.067  0.00  0.00    +0.044 C 
ATOM      6  C   UNL     1       2.182  -0.058   1.220  0.00  0.00    +0.038 C 
ATOM      7  C   UNL     1       2.132   1.477   1.206  0.00  0.00    +0.043 C 
ATOM      8  N   UNL     1       2.657   2.206   2.118  0.00  0.00    -0.188 NA
ATOM      9  C   UNL     1       0.737  -0.572   1.216  0.00  0.00    +0.013 C 
ATOM     10  C   UNL     1       0.002  -0.004   0.002  0.00  0.00    -0.007 C 
ATOM     11  C   UNL     1       0.704  -0.484  -1.288  0.00  0.00    +0.038 C 
ENDROOT
BRANCH   8  12
ATOM     12  N   UNL     1       3.304   1.608   3.207  0.00  0.00    -0.203 N 
ATOM     13  C   UNL     1       3.872   2.396   4.192  0.00  0.00    +0.277 A 
ATOM     14  N   UNL     1       3.877   3.727   4.242  0.00  0.00    -0.089 NA
ATOM     15  N   UNL     1       4.505   4.072   5.315  0.00  0.00    -0.020 NA
ATOM     16  N   UNL     1       4.892   3.014   5.937  0.00  0.00    -0.020 NA
ATOM     17  N   UNL     1       4.515   1.972   5.279  0.00  0.00    -0.089 NA
ATOM     18  H   UNL     1       3.354   0.642   3.271  0.00  0.00    +0.178 HD
ENDBRANCH   8  12
BRANCH   4  19
ATOM     19  O   UNL     1       2.810  -0.410  -2.465  0.00  0.00    -0.389 OA
ATOM     20  H   UNL     1       3.728  -0.115  -2.534  0.00  0.00    +0.210 HD
ENDBRANCH   4  19
TORSDOF 2
