REMARK  Name = ZINC40332335
REMARK  8 active torsions:
REMARK  status: ('A' for Active; 'I' for Inactive)
REMARK    1  A    between atoms: C_2  and  C_10
REMARK    2  A    between atoms: C_6  and  N_7
REMARK    3  A    between atoms: N_12  and  C_13
REMARK    4  A    between atoms: N_12  and  C_16
REMARK    5  A    between atoms: C_13  and  C_14
REMARK    6  A    between atoms: C_14  and  O_15
REMARK    7  A    between atoms: C_16  and  C_17
REMARK    8  A    between atoms: C_17  and  O_18
REMARK                            x       y       z     vdW  Elec       q    Type
REMARK                         _______ _______ _______ _____ _____    ______ ____
ROOT
ATOM      1  C   UNL     1       2.748   5.178   1.072  0.00  0.00    +0.041 A 
ATOM      2  C   UNL     1       2.446   4.314   0.016  0.00  0.00    +0.074 A 
ATOM      3  C   UNL     1       3.354   4.160  -1.036  0.00  0.00    +0.138 A 
ATOM      4  C   UNL     1       4.545   4.863  -1.029  0.00  0.00    +0.079 A 
ATOM      5  C   UNL     1       4.841   5.717   0.018  0.00  0.00    +0.147 A 
ATOM      6  C   UNL     1       3.942   5.876   1.071  0.00  0.00    +0.061 A 
ATOM      7  F   UNL     1       6.007   6.400   0.020  0.00  0.00    -0.203 F 
ATOM      8  F   UNL     1       3.067   3.326  -2.060  0.00  0.00    -0.205 F 
ENDROOT
BRANCH   6   9
ATOM      9  N   UNL     1       4.247   6.743   2.127  0.00  0.00    -0.356 N 
ATOM     10  H   UNL     1       3.622   6.854   2.860  0.00  0.00    +0.142 HD
ATOM     11  H   UNL     1       5.085   7.232   2.126  0.00  0.00    +0.142 HD
ENDBRANCH   6   9
BRANCH   2  12
ATOM     12  C   UNL     1       1.174   3.566   0.012  0.00  0.00    +0.250 C 
ATOM     13  O   UNL     1       1.181   2.355  -0.093  0.00  0.00    -0.270 OA
ATOM     14  N   UNL     1       0.004   4.226   0.126  0.00  0.00    -0.293 N 
BRANCH  14  15
ATOM     15  C   UNL     1      -1.250   3.478   0.244  0.00  0.00    +0.136 C 
BRANCH  15  16
ATOM     16  C   UNL     1      -1.612   3.319   1.722  0.00  0.00    +0.174 C 
BRANCH  16  17
ATOM     17  O   UNL     1      -1.883   4.604   2.286  0.00  0.00    -0.393 OA
ATOM     18  H   UNL     1      -2.121   4.580   3.223  0.00  0.00    +0.209 HD
ENDBRANCH  16  17
ENDBRANCH  15  16
ENDBRANCH  14  15
BRANCH  14  19
ATOM     19  C   UNL     1      -0.014   5.691   0.130  0.00  0.00    +0.136 C 
BRANCH  19  20
ATOM     20  C   UNL     1      -0.157   6.204  -1.304  0.00  0.00    +0.174 C 
BRANCH  20  21
ATOM     21  O   UNL     1      -1.429   5.812  -1.825  0.00  0.00    -0.393 OA
ATOM     22  H   UNL     1      -1.589   6.104  -2.733  0.00  0.00    +0.209 HD
ENDBRANCH  20  21
ENDBRANCH  19  20
ENDBRANCH  14  19
ENDBRANCH   2  12
TORSDOF 8
