REMARK  Name = ZINC49419593
REMARK  4 active torsions:
REMARK  status: ('A' for Active; 'I' for Inactive)
REMARK    1  A    between atoms: C_6  and  S_7
REMARK    2  A    between atoms: S_7  and  N_10
REMARK    3  A    between atoms: N_10  and  N_11
REMARK    4  A    between atoms: N_14  and  C_15
REMARK                            x       y       z     vdW  Elec       q    Type
REMARK                         _______ _______ _______ _____ _____    ______ ____
ROOT
ATOM      1  N   UNL     1      -1.948  -1.147  -1.567  0.00  0.00    -0.107 NA
ATOM      2  H   UNL     1      -2.791  -0.799  -1.897  0.00  0.00    +0.172 HD
ENDROOT
BRANCH   1   3
ATOM      3  N   UNL     1      -1.098  -1.855  -2.428  0.00  0.00    -0.216 N 
ATOM      4  C   UNL     1      -1.560  -2.930  -3.097  0.00  0.00    +0.315 C 
ATOM      5  O   UNL     1      -0.823  -3.544  -3.844  0.00  0.00    -0.251 OA
ATOM      6  N   UNL     1      -2.839  -3.324  -2.938  0.00  0.00    -0.296 N 
ATOM      7  H   UNL     1      -0.178  -1.572  -2.542  0.00  0.00    +0.172 HD
ATOM      8  H   UNL     1      -3.428  -2.834  -2.343  0.00  0.00    +0.151 HD
BRANCH   6   9
ATOM      9  C   UNL     1      -3.342  -4.492  -3.666  0.00  0.00    +0.074 C 
ATOM     10  C   UNL     1      -3.873  -4.065  -5.049  0.00  0.00    +0.022 C 
ATOM     11  C   UNL     1      -5.113  -4.966  -5.275  0.00  0.00    +0.002 C 
ATOM     12  C   UNL     1      -5.743  -5.041  -3.861  0.00  0.00    +0.002 C 
ATOM     13  C   UNL     1      -4.530  -5.113  -2.910  0.00  0.00    +0.022 C 
ENDBRANCH   6   9
ENDBRANCH   1   3
BRANCH   1  14
ATOM     14  S   UNL     1      -1.512  -0.905   0.012  0.00  0.00    +0.074 S 
ATOM     15  O   UNL     1      -1.218  -2.186   0.553  0.00  0.00    -0.152 OA
ATOM     16  O   UNL     1      -2.493  -0.046   0.577  0.00  0.00    -0.152 OA
BRANCH  14  22
ATOM     17  C   UNL     1      -0.017   1.378   0.010  0.00  0.00    +0.029 A 
ATOM     18  C   UNL     1       1.171   2.086   0.002  0.00  0.00    +0.017 A 
ATOM     19  C   UNL     1       2.378   1.411  -0.013  0.00  0.00    +0.018 A 
ATOM     20  C   UNL     1       2.396   0.027  -0.021  0.00  0.00    +0.017 A 
ATOM     21  C   UNL     1       1.208  -0.679  -0.013  0.00  0.00    +0.029 A 
ATOM     22  C   UNL     1       0.002  -0.004   0.002  0.00  0.00    +0.107 A 
ATOM     23 BR   UNL     1       4.003   2.378  -0.024  0.00  0.00    -0.050 Br
ENDBRANCH  14  22
ENDBRANCH   1  14
TORSDOF 4
