REMARK  Name = ZINC50032475
REMARK  5 active torsions:
REMARK  status: ('A' for Active; 'I' for Inactive)
REMARK    1  A    between atoms: C_1  and  N_2
REMARK    2  A    between atoms: C_3  and  C_5
REMARK    3  A    between atoms: N_11  and  C_12
REMARK    4  A    between atoms: C_14  and  C_20
REMARK    5  A    between atoms: C_15  and  N_19
REMARK                            x       y       z     vdW  Elec       q    Type
REMARK                         _______ _______ _______ _____ _____    ______ ____
ROOT
ATOM      1  C   UNL     1       1.732  -1.725  -3.190  0.00  0.00    +0.067 A 
ATOM      2  C   UNL     1       2.933  -1.099  -2.920  0.00  0.00    +0.043 A 
ATOM      3  C   UNL     1       3.486  -0.218  -3.857  0.00  0.00    +0.086 A 
ATOM      4  C   UNL     1       2.813   0.024  -5.066  0.00  0.00    +0.042 A 
ATOM      5  C   UNL     1       1.606  -0.613  -5.323  0.00  0.00    +0.063 A 
ATOM      6  C   UNL     1       1.071  -1.485  -4.395  0.00  0.00    +0.146 A 
ATOM      7  F   UNL     1      -0.101  -2.105  -4.654  0.00  0.00    -0.203 F 
ENDROOT
BRANCH   1  13
ATOM      8  C   UNL     1       0.255  -2.120  -1.219  0.00  0.00    +0.159 C 
ATOM      9  C   UNL     1      -1.034  -2.946  -1.273  0.00  0.00    +0.032 C 
ATOM     10  C   UNL     1      -0.687  -4.432  -1.156  0.00  0.00    +0.004 C 
ATOM     11  C   UNL     1       0.201  -4.845  -2.332  0.00  0.00    +0.019 C 
ATOM     12  C   UNL     1       1.504  -4.040  -2.289  0.00  0.00    +0.106 C 
ATOM     13  N   UNL     1       1.177  -2.608  -2.253  0.00  0.00    -0.316 N 
BRANCH   8  16
ATOM     14  C   UNL     1      -0.444   1.605  -0.682  0.00  0.00    +0.128 C 
ATOM     15  N   UNL     1      -0.133   0.195  -0.438  0.00  0.00    -0.317 N 
ATOM     16  C   UNL     1      -0.064  -0.669  -1.470  0.00  0.00    +0.233 C 
ATOM     17  O   UNL     1      -0.258  -0.278  -2.602  0.00  0.00    -0.274 OA
ATOM     18  H   UNL     1       0.022  -0.118   0.467  0.00  0.00    +0.148 HD
ENDBRANCH   8  16
ENDBRANCH   1  13
BRANCH   4  19
ATOM     19  N   UNL     1       3.353   0.897  -6.003  0.00  0.00    -0.357 N 
ATOM     20  H   UNL     1       4.307   1.073  -6.008  0.00  0.00    +0.142 HD
ATOM     21  H   UNL     1       2.776   1.331  -6.651  0.00  0.00    +0.142 HD
ENDBRANCH   4  19
BRANCH   3  22
ATOM     22  C   UNL     1       4.763   0.452  -3.576  0.00  0.00    +0.388 C 
ATOM     23  O   UNL     1       5.404   0.154  -2.577  0.00  0.00    -0.241 OA
ATOM     24  O   UNL     1       5.187   1.307  -4.342  0.00  0.00    -0.241 OA
ENDBRANCH   3  22
TORSDOF 4
