REMARK  Name = ZINC08763654
REMARK  7 active torsions:
REMARK  status: ('A' for Active; 'I' for Inactive)
REMARK    1  A    between atoms: C_4  and  O_7
REMARK    2  A    between atoms: O_7  and  C_8
REMARK    3  A    between atoms: C_12  and  C_14
REMARK    4  A    between atoms: C_16  and  C_28
REMARK    5  A    between atoms: C_18  and  C_23
REMARK    6  A    between atoms: C_18  and  O_27
REMARK    7  A    between atoms: C_28  and  C_30
REMARK                            x       y       z     vdW  Elec       q    Type
REMARK                         _______ _______ _______ _____ _____    ______ ____
ROOT
ATOM      1  C   UNL     1       0.260  -0.309   0.133  0.00  0.00    +0.118 C 
ATOM      2  C   UNL     1       1.557  -1.063   0.449  0.00  0.00    +0.144 C 
ATOM      3  C   UNL     1       2.713  -0.372  -0.281  0.00  0.00    +0.241 C 
ATOM      4  N   UNL     1       2.745   1.041   0.101  0.00  0.00    -0.291 N 
ATOM      5  C   UNL     1       1.627   1.694   0.454  0.00  0.00    +0.133 C 
ATOM      6  S   UNL     1       1.740   3.350   0.873  0.00  0.00    -0.019 S 
ATOM      7  N   UNL     1       0.425   1.100   0.492  0.00  0.00    -0.319 N 
ATOM      8  H   UNL     1       3.591   1.515   0.097  0.00  0.00    +0.151 HD
ATOM      9  H   UNL     1      -0.351   1.616   0.759  0.00  0.00    +0.148 HD
ENDROOT
BRANCH   1  14
ATOM     10  C   UNL     1      -2.798  -2.328   1.058  0.00  0.00    +0.129 A 
ATOM     11  C   UNL     1      -2.958  -1.986   2.393  0.00  0.00    +0.046 A 
ATOM     12  C   UNL     1      -2.078  -1.105   2.990  0.00  0.00    +0.004 A 
ATOM     13  C   UNL     1      -1.037  -0.564   2.258  0.00  0.00    +0.006 A 
ATOM     14  C   UNL     1      -0.875  -0.902   0.928  0.00  0.00    -0.023 A 
ATOM     15  C   UNL     1      -1.756  -1.779   0.325  0.00  0.00    +0.051 A 
BRANCH  10  16
ATOM     16  O   UNL     1      -3.663  -3.194   0.468  0.00  0.00    -0.456 OA
BRANCH  16  20
ATOM     17  C   UNL     1      -6.745  -4.710   2.753  0.00  0.00    +0.000 A 
ATOM     18  C   UNL     1      -6.925  -3.537   2.042  0.00  0.00    +0.004 A 
ATOM     19  C   UNL     1      -5.894  -3.027   1.276  0.00  0.00    +0.046 A 
ATOM     20  C   UNL     1      -4.678  -3.693   1.221  0.00  0.00    +0.128 A 
ATOM     21  C   UNL     1      -4.502  -4.872   1.931  0.00  0.00    +0.046 A 
ATOM     22  C   UNL     1      -5.534  -5.375   2.699  0.00  0.00    +0.004 A 
ENDBRANCH  16  20
ENDBRANCH  10  16
ENDBRANCH   1  14
BRANCH   3  23
ATOM     23  C   UNL     1       4.035  -1.036   0.110  0.00  0.00    +0.436 C 
ATOM     24  F   UNL     1       4.000  -2.388  -0.248  0.00  0.00    -0.166 F 
ATOM     25  F   UNL     1       5.090  -0.404  -0.556  0.00  0.00    -0.166 F 
ATOM     26  F   UNL     1       4.222  -0.925   1.492  0.00  0.00    -0.166 F 
ENDBRANCH   3  23
BRANCH   3  27
ATOM     27  O   UNL     1       2.522  -0.482  -1.692  0.00  0.00    -0.364 OA
ATOM     28  H   UNL     1       3.219  -0.066  -2.218  0.00  0.00    +0.212 HD
ENDBRANCH   3  27
BRANCH   2  29
ATOM     29  C   UNL     1       1.440  -2.490  -0.025  0.00  0.00    +0.179 C 
ATOM     30  O   UNL     1       0.746  -2.756  -0.985  0.00  0.00    -0.291 OA
BRANCH  29  31
ATOM     31  C   UNL     1       2.140  -3.516   0.648  0.00  0.00    +0.055 A 
ATOM     32  C   UNL     1       2.165  -4.881   0.380  0.00  0.00    +0.019 A 
ATOM     33  C   UNL     1       2.940  -5.661   1.197  0.00  0.00    +0.008 A 
ATOM     34  C   UNL     1       3.626  -5.079   2.218  0.00  0.00    +0.046 A 
ATOM     35  S   UNL     1       3.215  -3.401   2.067  0.00  0.00    -0.094 S 
ENDBRANCH  29  31
ENDBRANCH   2  29
TORSDOF 7
