REMARK  Name = ZINC56157843
REMARK  7 active torsions:
REMARK  status: ('A' for Active; 'I' for Inactive)
REMARK    1  A    between atoms: C_1  and  C_2
REMARK    2  A    between atoms: C_2  and  C_4
REMARK    3  A    between atoms: C_2  and  N_17
REMARK    4  A    between atoms: N_6  and  C_7
REMARK    5  A    between atoms: C_10  and  C_13
REMARK    6  A    between atoms: N_17  and  C_18
REMARK    7  A    between atoms: C_22  and  N_24
REMARK                            x       y       z     vdW  Elec       q    Type
REMARK                         _______ _______ _______ _____ _____    ______ ____
ROOT
ATOM      1  C   UNL     1      -0.095   1.437  -0.617  0.00  0.00    +0.038 C 
ATOM      2  C   UNL     1      -0.122  -0.093  -0.595  0.00  0.00    +0.154 C 
ENDROOT
BRANCH   2   3
ATOM      3  C   UNL     1       0.499  -0.624  -1.861  0.00  0.00    +0.237 C 
ATOM      4  O   UNL     1      -0.153  -1.321  -2.610  0.00  0.00    -0.273 OA
ATOM      5  N   UNL     1       1.778  -0.325  -2.161  0.00  0.00    -0.284 N 
ATOM      6  H   UNL     1       2.280   0.284  -1.597  0.00  0.00    +0.155 HD
BRANCH   5   7
ATOM      7  C   UNL     1       2.383  -0.893  -3.288  0.00  0.00    +0.033 A 
ATOM      8  C   UNL     1       3.730  -1.232  -3.258  0.00  0.00    +0.024 A 
ATOM      9  C   UNL     1       4.324  -1.793  -4.372  0.00  0.00    +0.014 A 
ATOM     10  C   UNL     1       3.580  -2.017  -5.515  0.00  0.00    +0.055 A 
ATOM     11  C   UNL     1       2.239  -1.680  -5.548  0.00  0.00    +0.014 A 
ATOM     12  C   UNL     1       1.637  -1.125  -4.436  0.00  0.00    +0.024 A 
BRANCH  10  13
ATOM     13  C   UNL     1       4.232  -2.628  -6.729  0.00  0.00    +0.417 C 
ATOM     14  F   UNL     1       4.121  -4.021  -6.665  0.00  0.00    -0.166 F 
ATOM     15  F   UNL     1       3.596  -2.162  -7.884  0.00  0.00    -0.166 F 
ATOM     16  F   UNL     1       5.584  -2.269  -6.763  0.00  0.00    -0.166 F 
ENDBRANCH  10  13
ENDBRANCH   5   7
ENDBRANCH   2   3
BRANCH   2  17
ATOM     17  N   UNL     1      -1.508  -0.555  -0.499  0.00  0.00    -0.333 N 
ATOM     18  H   UNL     1      -1.998  -0.789  -1.303  0.00  0.00    +0.147 HD
BRANCH  17  19
ATOM     19  C   UNL     1      -2.125  -0.660   0.750  0.00  0.00    +0.029 A 
ATOM     20  C   UNL     1      -1.426  -0.320   1.902  0.00  0.00    +0.023 A 
ATOM     21  C   UNL     1      -2.035  -0.423   3.137  0.00  0.00    +0.004 A 
ATOM     22  C   UNL     1      -3.341  -0.864   3.232  0.00  0.00    +0.024 A 
ATOM     23  C   UNL     1      -4.045  -1.206   2.085  0.00  0.00    +0.040 A 
ATOM     24  C   UNL     1      -3.438  -1.098   0.842  0.00  0.00    +0.046 A 
BRANCH  23  25
ATOM     25  N   UNL     1      -5.368  -1.653   2.182  0.00  0.00    -0.254 N 
ATOM     26  C   UNL     1      -6.166  -1.693   3.417  0.00  0.00    +0.134 C 
ATOM     27  C   UNL     1      -7.524  -2.261   2.961  0.00  0.00    +0.125 C 
ATOM     28  N   UNL     1      -7.347  -2.482   1.518  0.00  0.00    -0.297 N 
ATOM     29  C   UNL     1      -6.110  -2.109   1.164  0.00  0.00    +0.307 C 
ATOM     30  O   UNL     1      -5.697  -2.180   0.023  0.00  0.00    -0.252 OA
ATOM     31  H   UNL     1      -8.020  -2.837   0.917  0.00  0.00    +0.150 HD
ENDBRANCH  23  25
ENDBRANCH  17  19
ENDBRANCH   2  17
TORSDOF 6
