REMARK  Name = ZINC15086118
REMARK  5 active torsions:
REMARK  status: ('A' for Active; 'I' for Inactive)
REMARK    1  A    between atoms: C_3  and  N_8
REMARK    2  A    between atoms: N_8  and  C_9
REMARK    3  A    between atoms: C_11  and  O_21
REMARK    4  A    between atoms: C_13  and  O_20
REMARK    5  A    between atoms: C_15  and  O_19
REMARK                            x       y       z     vdW  Elec       q    Type
REMARK                         _______ _______ _______ _____ _____    ______ ____
ROOT
ATOM      1  C   UNL     1       3.629   3.461  -0.125  0.00  0.00    +0.236 C 
ATOM      2  C   UNL     1       4.693   3.876  -1.144  0.00  0.00    +0.192 C 
ATOM      3  C   UNL     1       4.765   5.405  -1.202  0.00  0.00    +0.178 C 
ATOM      4  C   UNL     1       5.062   5.944   0.201  0.00  0.00    +0.171 C 
ATOM      5  C   UNL     1       3.983   5.450   1.168  0.00  0.00    +0.196 C 
ATOM      6  O   UNL     1       3.948   4.021   1.150  0.00  0.00    -0.354 OA
ENDROOT
BRANCH   1   7
ATOM      7  N   UNL     1       3.594   2.000  -0.022  0.00  0.00    -0.302 N 
ATOM      8  H   UNL     1       4.520   1.418  -0.139  0.00  0.00    +0.150 HD
BRANCH   7  11
ATOM      9  C   UNL     1       0.056   1.433   0.736  0.00  0.00    +0.020 A 
ATOM     10  C   UNL     1       1.247   2.093   0.494  0.00  0.00    +0.044 A 
ATOM     11  C   UNL     1       2.390   1.349   0.224  0.00  0.00    +0.121 A 
ATOM     12  N   UNL     1       2.343   0.026   0.198  0.00  0.00    -0.239 NA
ATOM     13  C   UNL     1       1.222  -0.631   0.424  0.00  0.00    +0.128 A 
ATOM     14  C   UNL     1       0.048   0.044   0.699  0.00  0.00    +0.036 A 
ATOM     15 BR   UNL     1      -1.551  -0.912   1.023  0.00  0.00    -0.049 Br
ENDBRANCH   7  11
ENDBRANCH   1   7
BRANCH   4  16
ATOM     16  O   UNL     1       6.342   5.477   0.631  0.00  0.00    -0.387 OA
ATOM     17  H   UNL     1       6.728   5.764   1.621  0.00  0.00    +0.210 HD
ENDBRANCH   4  16
BRANCH   3  18
ATOM     18  O   UNL     1       5.807   5.801  -2.097  0.00  0.00    -0.386 OA
ATOM     19  H   UNL     1       6.009   6.868  -2.268  0.00  0.00    +0.210 HD
ENDBRANCH   3  18
BRANCH   2  20
ATOM     20  O   UNL     1       4.346   3.364  -2.432  0.00  0.00    -0.385 OA
ATOM     21  H   UNL     1       4.997   3.561  -3.296  0.00  0.00    +0.210 HD
ENDBRANCH   2  20
TORSDOF 5
