REMARK  Name = ZINC20218263
REMARK  5 active torsions:
REMARK  status: ('A' for Active; 'I' for Inactive)
REMARK    1  A    between atoms: C_1  and  C_2
REMARK    2  A    between atoms: C_7  and  N_12
REMARK    3  A    between atoms: C_9  and  C_11
REMARK    4  A    between atoms: C_16  and  C_18
REMARK    5  A    between atoms: C_19  and  C_20
REMARK                            x       y       z     vdW  Elec       q    Type
REMARK                         _______ _______ _______ _____ _____    ______ ____
ROOT
ATOM      1  N   UNL     1       1.142   2.033   0.002  0.00  0.00    -0.296 N 
ATOM      2  C   UNL     1      -0.016   1.344   0.009  0.00  0.00    +0.306 C 
ATOM      3  O   UNL     1      -1.077   1.937   0.018  0.00  0.00    -0.252 OA
ATOM      4  N   UNL     1       0.002  -0.004   0.002  0.00  0.00    -0.237 N 
ATOM      5  C   UNL     1      -1.156  -0.694   0.009  0.00  0.00    +0.244 C 
ATOM      6  O   UNL     1      -2.216  -0.101   0.023  0.00  0.00    -0.270 OA
ATOM      7  H   UNL     1       2.102   1.496  -0.010  0.00  0.00    +0.151 HD
ATOM      8  H   UNL     1       0.962  -0.541  -0.010  0.00  0.00    +0.159 HD
ENDROOT
BRANCH   1  14
ATOM      9  C   UNL     1       3.690   6.090  -1.220  0.00  0.00    +0.008 C 
ATOM     10  C   UNL     1       2.396   5.559  -0.601  0.00  0.00    -0.009 C 
ATOM     11  C   UNL     1       2.277   6.059   0.840  0.00  0.00    +0.003 C 
ATOM     12  C   UNL     1       0.982   5.528   1.460  0.00  0.00    +0.002 C 
ATOM     13  C   UNL     1       1.003   3.999   1.451  0.00  0.00    +0.022 C 
ATOM     14  C   UNL     1       1.122   3.498   0.010  0.00  0.00    +0.078 C 
ATOM     15  C   UNL     1       2.416   4.029  -0.609  0.00  0.00    +0.009 C 
ATOM     16  C   UNL     1       3.612   3.531   0.204  0.00  0.00    +0.009 C 
ENDBRANCH   1  14
BRANCH   5  17
ATOM     17  C   UNL     1      -1.136  -2.170   0.001  0.00  0.00    +0.075 C 
ATOM     18  C   UNL     1      -2.290  -2.857   0.009  0.00  0.00    +0.101 C 
BRANCH  18  19
ATOM     19  C   UNL     1      -2.270  -4.332   0.001  0.00  0.00    +0.380 C 
ATOM     20  O   UNL     1      -1.210  -4.925  -0.013  0.00  0.00    -0.241 OA
ATOM     21  O   UNL     1      -3.427  -5.022   0.008  0.00  0.00    -0.241 OA
ENDBRANCH  18  19
ENDBRANCH   5  17
TORSDOF 3
