REMARK  Name = ZINC04256208
REMARK  3 active torsions:
REMARK  status: ('A' for Active; 'I' for Inactive)
REMARK    1  A    between atoms: C_9  and  O_20
REMARK    2  A    between atoms: C_10  and  O_19
REMARK    3  A    between atoms: C_14  and  O_18
REMARK                            x       y       z     vdW  Elec       q    Type
REMARK                         _______ _______ _______ _____ _____    ______ ____
ROOT
ATOM      1  C   UNL     1      -5.370   6.318   1.583  0.00  0.00    +0.001 A 
ATOM      2  C   UNL     1      -4.117   6.813   1.265  0.00  0.00    +0.000 A 
ATOM      3  C   UNL     1      -3.146   5.981   0.741  0.00  0.00    +0.007 A 
ATOM      4  C   UNL     1      -3.403   4.645   0.522  0.00  0.00    +0.004 A 
ATOM      5  C   UNL     1      -4.678   4.128   0.881  0.00  0.00    +0.029 A 
ATOM      6  C   UNL     1      -5.649   4.981   1.393  0.00  0.00    +0.012 A 
ATOM      7  C   UNL     1      -4.697   2.654   0.607  0.00  0.00    +0.217 C 
ATOM      8  O   UNL     1      -5.631   1.941   0.311  0.00  0.00    -0.287 OA
ATOM      9  C   UNL     1      -3.259   2.299   0.796  0.00  0.00    +0.233 C 
ATOM     10  C   UNL     1      -2.660   3.509  -0.030  0.00  0.00    +0.171 C 
ATOM     11  C   UNL     1      -1.236   3.159   0.005  0.00  0.00    +0.014 A 
ATOM     12  C   UNL     1      -0.041   3.845   0.008  0.00  0.00    +0.012 A 
ATOM     13  C   UNL     1       1.162   3.168   0.007  0.00  0.00    +0.046 A 
ATOM     14  C   UNL     1       1.180   1.780   0.000  0.00  0.00    +0.119 A 
ATOM     15  C   UNL     1      -0.013   1.076   0.008  0.00  0.00    +0.068 A 
ATOM     16  C   UNL     1      -1.222   1.746   0.017  0.00  0.00    +0.039 A 
ATOM     17  N   UNL     1      -2.556   1.249   0.091  0.00  0.00    -0.307 N 
ATOM     18  H   UNL     1      -2.907   0.413  -0.252  0.00  0.00    +0.149 HD
ENDROOT
BRANCH  14  19
ATOM     19  O   UNL     1       2.365   1.114  -0.013  0.00  0.00    -0.507 OA
ATOM     20  H   UNL     1       2.700   0.925  -0.900  0.00  0.00    +0.292 HD
ENDBRANCH  14  19
BRANCH  10  21
ATOM     21  O   UNL     1      -3.117   3.320  -1.371  0.00  0.00    -0.374 OA
ATOM     22  H   UNL     1      -2.667   3.875  -2.021  0.00  0.00    +0.211 HD
ENDBRANCH  10  21
BRANCH   9  23
ATOM     23  O   UNL     1      -2.888   2.353   2.174  0.00  0.00    -0.363 OA
ATOM     24  H   UNL     1      -3.239   1.626   2.706  0.00  0.00    +0.213 HD
ENDBRANCH   9  23
TORSDOF 3
