REMARK  Name = ZINC64757278
REMARK  7 active torsions:
REMARK  status: ('A' for Active; 'I' for Inactive)
REMARK    1  A    between atoms: C_1  and  C_2
REMARK    2  A    between atoms: C_2  and  C_3
REMARK    3  A    between atoms: C_2  and  C_4
REMARK    4  A    between atoms: C_10  and  N_13
REMARK    5  A    between atoms: N_16  and  C_17
REMARK    6  A    between atoms: C_20  and  O_24
REMARK    7  A    between atoms: O_24  and  C_25
REMARK                            x       y       z     vdW  Elec       q    Type
REMARK                         _______ _______ _______ _____ _____    ______ ____
ROOT
ATOM      1  N   UNL     1      -1.978  -3.282  -4.037  0.00  0.00    -0.268 N 
ATOM      2  C   UNL     1      -2.684  -3.145  -5.177  0.00  0.00    +0.308 C 
ATOM      3  O   UNL     1      -3.758  -2.575  -5.162  0.00  0.00    -0.252 OA
ATOM      4  N   UNL     1      -2.200  -3.641  -6.333  0.00  0.00    -0.269 N 
ATOM      5  H   UNL     1      -1.090  -3.672  -4.060  0.00  0.00    +0.156 HD
ATOM      6  H   UNL     1      -1.379  -4.159  -6.333  0.00  0.00    +0.156 HD
ENDROOT
BRANCH   1  13
ATOM      7  C   UNL     1      -1.988  -0.634   0.070  0.00  0.00    +0.140 A 
ATOM      8  N   UNL     1      -2.893  -0.619   1.015  0.00  0.00    -0.133 NA
ATOM      9  N   UNL     1      -3.844  -1.438   0.734  0.00  0.00    -0.129 NA
ATOM     10  C   UNL     1      -3.592  -2.028  -0.424  0.00  0.00    +0.161 A 
ATOM     11  N   UNL     1      -2.400  -1.520  -0.877  0.00  0.00    -0.284 N 
ATOM     12  C   UNL     1      -1.875  -1.938  -2.066  0.00  0.00    +0.117 A 
ATOM     13  C   UNL     1      -2.527  -2.859  -2.817  0.00  0.00    +0.052 A 
ATOM     14  C   UNL     1      -3.755  -3.394  -2.377  0.00  0.00    +0.028 A 
ATOM     15  C   UNL     1      -4.280  -2.989  -1.190  0.00  0.00    +0.050 A 
BRANCH   7  17
ATOM     16  C   UNL     1      -1.081   1.674   0.064  0.00  0.00    +0.015 C 
ATOM     17  C   UNL     1      -0.725   0.186   0.033  0.00  0.00    +0.051 C 
ATOM     18  C   UNL     1       0.141  -0.157   1.247  0.00  0.00    +0.015 C 
ENDBRANCH   7  17
ENDBRANCH   1  13
BRANCH   4  19
ATOM     19  C   UNL     1      -2.881  -3.408  -7.535  0.00  0.00    +0.036 A 
ATOM     20  C   UNL     1      -2.854  -4.361  -8.544  0.00  0.00    +0.027 A 
ATOM     21  C   UNL     1      -3.526  -4.131  -9.729  0.00  0.00    +0.049 A 
ATOM     22  C   UNL     1      -4.228  -2.949  -9.911  0.00  0.00    +0.138 A 
ATOM     23  C   UNL     1      -4.255  -1.995  -8.903  0.00  0.00    +0.084 A 
ATOM     24  C   UNL     1      -3.588  -2.227  -7.715  0.00  0.00    +0.047 A 
ATOM     25 CL   UNL     1      -5.132  -0.515  -9.132  0.00  0.00    -0.080 Cl
BRANCH  22  26
ATOM     26  O   UNL     1      -4.889  -2.724 -11.078  0.00  0.00    -0.494 OA
ATOM     27  C   UNL     1      -4.818  -3.748 -12.072  0.00  0.00    +0.277 C 
ENDBRANCH  22  26
ENDBRANCH   4  19
TORSDOF 4
