REMARK  Name = ZINC01839686
REMARK  7 active torsions:
REMARK  status: ('A' for Active; 'I' for Inactive)
REMARK    1  A    between atoms: C_1  and  C_2
REMARK    2  A    between atoms: C_9  and  N_14
REMARK    3  A    between atoms: C_10  and  C_11
REMARK    4  A    between atoms: N_14  and  C_15
REMARK    5  A    between atoms: C_15  and  N_17
REMARK    6  A    between atoms: C_18  and  C_20
REMARK    7  A    between atoms: C_23  and  C_25
REMARK                            x       y       z     vdW  Elec       q    Type
REMARK                         _______ _______ _______ _____ _____    ______ ____
ROOT
ATOM      1  C   UNL     1      -2.349   1.181   0.020  0.00  0.00    +0.142 C 
ATOM      2  S   UNL     1      -2.325  -0.531   0.010  0.00  0.00    -0.018 S 
ENDROOT
BRANCH   1   3
ATOM      3  N   UNL     1      -1.191   1.871   0.018  0.00  0.00    -0.261 N 
ATOM      4  C   UNL     1      -0.014   1.213   0.009  0.00  0.00    +0.285 C 
ATOM      5  O   UNL     1       0.002  -0.004   0.002  0.00  0.00    -0.266 OA
ATOM      6  H   UNL     1      -1.204   2.841   0.023  0.00  0.00    +0.157 HD
BRANCH   4   7
ATOM      7  C   UNL     1       1.243   1.962   0.001  0.00  0.00    +0.190 A 
ATOM      8  C   UNL     1       2.510   1.417  -0.014  0.00  0.00    +0.055 A 
ATOM      9  C   UNL     1       3.409   2.488  -0.017  0.00  0.00    +0.050 A 
ATOM     10  C   UNL     1       2.668   3.635  -0.004  0.00  0.00    +0.136 A 
ATOM     11  O   UNL     1       1.365   3.306   0.001  0.00  0.00    -0.450 OA
BRANCH  10  12
ATOM     12  C   UNL     1       3.208   5.009  -0.001  0.00  0.00    +0.017 A 
ATOM     13  C   UNL     1       4.589   5.220  -0.006  0.00  0.00    +0.013 A 
ATOM     14  C   UNL     1       5.088   6.505  -0.009  0.00  0.00    +0.021 A 
ATOM     15  C   UNL     1       4.223   7.587   0.005  0.00  0.00    +0.041 A 
ATOM     16  C   UNL     1       2.853   7.385   0.016  0.00  0.00    +0.021 A 
ATOM     17  C   UNL     1       2.341   6.104   0.013  0.00  0.00    +0.013 A 
ATOM     18 CL   UNL     1       4.859   9.202   0.009  0.00  0.00    -0.084 Cl
ENDBRANCH  10  12
ENDBRANCH   4   7
ENDBRANCH   1   3
BRANCH   1  19
ATOM     19  N   UNL     1      -3.525   1.839   0.029  0.00  0.00    -0.291 N 
ATOM     20  H   UNL     1      -3.538   2.809   0.034  0.00  0.00    +0.154 HD
BRANCH  19  28
ATOM     21  C   UNL     1     -10.012  -2.529  -0.057  0.00  0.00    +0.008 C 
ATOM     22  C   UNL     1      -9.026  -1.394  -0.342  0.00  0.00    -0.009 C 
ATOM     23  C   UNL     1      -9.392  -0.171   0.504  0.00  0.00    +0.008 C 
ATOM     24  C   UNL     1      -8.573   1.039   0.050  0.00  0.00    +0.037 C 
ATOM     25  C   UNL     1      -7.098   0.657   0.040  0.00  0.00    -0.023 A 
ATOM     26  C   UNL     1      -6.715  -0.638   0.031  0.00  0.00    -0.004 A 
ATOM     27  S   UNL     1      -4.946  -0.587   0.023  0.00  0.00    -0.077 S 
ATOM     28  C   UNL     1      -4.715   1.130   0.031  0.00  0.00    +0.084 A 
ATOM     29  C   UNL     1      -6.013   1.623   0.045  0.00  0.00    +0.068 A 
ATOM     30  C   UNL     1      -7.605  -1.843   0.028  0.00  0.00    +0.046 C 
BRANCH  29  31
ATOM     31  C   UNL     1      -6.278   3.064   0.061  0.00  0.00    +0.244 C 
ATOM     32  O   UNL     1      -6.397   3.673  -0.987  0.00  0.00    -0.270 OA
ATOM     33  N   UNL     1      -6.391   3.716   1.235  0.00  0.00    -0.325 N 
ATOM     34  H   UNL     1      -6.296   3.231   2.070  0.00  0.00    +0.145 HD
ATOM     35  H   UNL     1      -6.567   4.670   1.246  0.00  0.00    +0.145 HD
ENDBRANCH  29  31
ENDBRANCH  19  28
ENDBRANCH   1  19
TORSDOF 6
