REMARK  Name = ZINC67274092
REMARK  6 active torsions:
REMARK  status: ('A' for Active; 'I' for Inactive)
REMARK    1  A    between atoms: C_1  and  C_2
REMARK    2  A    between atoms: C_2  and  C_3
REMARK    3  A    between atoms: C_2  and  C_4
REMARK    4  A    between atoms: C_2  and  N_14
REMARK    5  A    between atoms: C_8  and  C_10
REMARK    6  A    between atoms: C_15  and  C_17
REMARK                            x       y       z     vdW  Elec       q    Type
REMARK                         _______ _______ _______ _____ _____    ______ ____
ROOT
ATOM      1  N   UNL     1       0.556  -0.272  -1.328  0.00  0.00    -0.306 N 
ATOM      2  C   UNL     1       1.849   0.006  -1.588  0.00  0.00    +0.217 C 
ATOM      3  O   UNL     1       2.554   0.478  -0.721  0.00  0.00    -0.275 OA
ATOM      4  H   UNL     1      -0.008  -0.650  -2.021  0.00  0.00    +0.150 HD
ENDROOT
BRANCH   2   5
ATOM      5  C   UNL     1       2.418  -0.270  -2.956  0.00  0.00    +0.075 C 
ATOM      6  C   UNL     1       2.289  -1.762  -3.270  0.00  0.00    +0.015 C 
ATOM      7  C   UNL     1       2.857  -2.039  -4.665  0.00  0.00    +0.036 C 
ATOM      8  C   UNL     1       4.321  -1.616  -4.714  0.00  0.00    +0.112 C 
ATOM      9  C   UNL     1       4.468  -0.137  -4.377  0.00  0.00    +0.036 C 
ATOM     10  C   UNL     1       3.894   0.132  -2.984  0.00  0.00    +0.015 C 
ATOM     11  C   UNL     1       5.145  -2.458  -3.767  0.00  0.00    +0.244 C 
ATOM     12  O   UNL     1       5.026  -2.538  -2.563  0.00  0.00    -0.273 OA
ATOM     13  N   UNL     1       6.042  -3.100  -4.543  0.00  0.00    -0.238 N 
ATOM     14  C   UNL     1       5.895  -2.780  -5.835  0.00  0.00    +0.307 C 
ATOM     15  O   UNL     1       6.587  -3.232  -6.726  0.00  0.00    -0.252 OA
ATOM     16  N   UNL     1       4.894  -1.902  -6.035  0.00  0.00    -0.285 N 
ATOM     17  H   UNL     1       6.711  -3.717  -4.207  0.00  0.00    +0.159 HD
ATOM     18  H   UNL     1       4.608  -1.532  -6.885  0.00  0.00    +0.151 HD
ENDBRANCH   2   5
BRANCH   1  20
ATOM     19  C   UNL     1       0.156   1.483   0.328  0.00  0.00    +0.036 C 
ATOM     20  C   UNL     1       0.002  -0.004   0.002  0.00  0.00    +0.054 C 
ATOM     21  C   UNL     1       0.753  -0.835   1.044  0.00  0.00    +0.036 C 
BRANCH  20  22
ATOM     22  C   UNL     1      -1.458  -0.374   0.022  0.00  0.00    -0.024 A 
ATOM     23  C   UNL     1      -2.073  -0.700   1.217  0.00  0.00    +0.006 A 
ATOM     24  C   UNL     1      -3.413  -1.039   1.236  0.00  0.00    +0.001 A 
ATOM     25  C   UNL     1      -4.138  -1.054   0.059  0.00  0.00    +0.012 A 
ATOM     26  C   UNL     1      -3.524  -0.728  -1.136  0.00  0.00    +0.055 A 
ATOM     27  C   UNL     1      -2.185  -0.384  -1.154  0.00  0.00    +0.018 A 
BRANCH  26  28
ATOM     28  C   UNL     1      -4.315  -0.744  -2.418  0.00  0.00    +0.417 C 
ATOM     29  F   UNL     1      -5.636  -1.116  -2.147  0.00  0.00    -0.166 F 
ATOM     30  F   UNL     1      -4.299   0.531  -2.993  0.00  0.00    -0.166 F 
ATOM     31  F   UNL     1      -3.745  -1.663  -3.306  0.00  0.00    -0.166 F 
ENDBRANCH  26  28
ENDBRANCH  20  22
ENDBRANCH   1  20
TORSDOF 4
