REMARK  Name = ZINC20694331
REMARK  8 active torsions:
REMARK  status: ('A' for Active; 'I' for Inactive)
REMARK    1  A    between atoms: C_1  and  O_2
REMARK    2  A    between atoms: O_2  and  C_3
REMARK    3  A    between atoms: C_7  and  C_10
REMARK    4  A    between atoms: C_8  and  O_9
REMARK    5  A    between atoms: C_23  and  C_26
REMARK    6  A    between atoms: N_28  and  C_29
REMARK    7  A    between atoms: C_32  and  N_35
REMARK    8  A    between atoms: N_35  and  C_36
REMARK                            x       y       z     vdW  Elec       q    Type
REMARK                         _______ _______ _______ _____ _____    ______ ____
ROOT
ATOM      1  C   UNL     1       6.872   9.715   0.028  0.00  0.00    +0.109 C 
ATOM      2  C   UNL     1       8.075  10.191   0.815  0.00  0.00    +0.029 C 
ATOM      3  C   UNL     1       8.312  11.702   0.928  0.00  0.00    +0.033 C 
ATOM      4  C   UNL     1       9.836  11.762   1.058  0.00  0.00    -0.030 C 
ATOM      5  C   UNL     1      10.381  10.695   0.484  0.00  0.00    -0.023 C 
ATOM      6  C   UNL     1       9.297   9.867  -0.100  0.00  0.00    +0.049 C 
ATOM      7  C   UNL     1       9.379   8.393  -0.191  0.00  0.00    -0.019 A 
ATOM      8  C   UNL     1      10.587   7.740  -0.306  0.00  0.00    +0.006 A 
ATOM      9  C   UNL     1      10.642   6.361  -0.410  0.00  0.00    +0.001 A 
ATOM     10  C   UNL     1       9.477   5.626  -0.406  0.00  0.00    +0.015 A 
ATOM     11  C   UNL     1       8.246   6.269  -0.289  0.00  0.00    +0.058 A 
ATOM     12  C   UNL     1       8.182   7.673  -0.172  0.00  0.00    +0.044 A 
ATOM     13  N   UNL     1       6.931   8.245  -0.006  0.00  0.00    -0.336 N 
ATOM     14  H   UNL     1       6.009   7.655   0.097  0.00  0.00    +0.147 HD
ENDROOT
BRANCH   1  19
ATOM     15  C   UNL     1       3.923  11.840   1.085  0.00  0.00    +0.162 A 
ATOM     16  C   UNL     1       3.271  10.984   1.958  0.00  0.00    +0.049 A 
ATOM     17  C   UNL     1       3.785   9.724   2.203  0.00  0.00    +0.004 A 
ATOM     18  C   UNL     1       4.949   9.315   1.579  0.00  0.00    +0.009 A 
ATOM     19  C   UNL     1       5.604  10.164   0.707  0.00  0.00    +0.018 A 
ATOM     20  C   UNL     1       5.097  11.430   0.460  0.00  0.00    +0.163 A 
BRANCH  15  22
ATOM     21  C   UNL     1       2.213  13.434   1.523  0.00  0.00    +0.277 C 
ATOM     22  O   UNL     1       3.419  13.079   0.843  0.00  0.00    -0.491 OA
ENDBRANCH  15  22
BRANCH  20  23
ATOM     23  O   UNL     1       5.743  12.269  -0.393  0.00  0.00    -0.503 OA
ATOM     24  H   UNL     1       6.671  11.944  -0.886  0.00  0.00    +0.292 HD
ENDBRANCH  20  23
ENDBRANCH   1  19
BRANCH  11  25
ATOM     25  C   UNL     1       7.003   5.477  -0.295  0.00  0.00    +0.250 C 
ATOM     26  O   UNL     1       5.926   6.034  -0.194  0.00  0.00    -0.270 OA
ATOM     27  N   UNL     1       7.059   4.135  -0.412  0.00  0.00    -0.281 N 
ATOM     28  H   UNL     1       8.025   3.638  -0.581  0.00  0.00    +0.155 HD
BRANCH  27  29
ATOM     29  C   UNL     1       5.886   3.374  -0.319  0.00  0.00    +0.034 A 
ATOM     30  C   UNL     1       5.921   2.115   0.266  0.00  0.00    +0.025 A 
ATOM     31  C   UNL     1       4.765   1.365   0.358  0.00  0.00    +0.025 A 
ATOM     32  C   UNL     1       3.569   1.870  -0.134  0.00  0.00    +0.031 A 
ATOM     33  C   UNL     1       3.536   3.127  -0.724  0.00  0.00    +0.025 A 
ATOM     34  C   UNL     1       4.690   3.879  -0.811  0.00  0.00    +0.025 A 
BRANCH  32  35
ATOM     35  N   UNL     1       2.397   1.110  -0.041  0.00  0.00    -0.314 N 
ATOM     36  H   UNL     1       2.440   0.018  -0.163  0.00  0.00    +0.152 HD
BRANCH  35  37
ATOM     37  C   UNL     1       1.175   1.739   0.206  0.00  0.00    +0.031 A 
ATOM     38  C   UNL     1      -0.009   1.150  -0.219  0.00  0.00    +0.023 A 
ATOM     39  C   UNL     1      -1.216   1.777   0.022  0.00  0.00    +0.002 A 
ATOM     40  C   UNL     1      -1.247   2.985   0.696  0.00  0.00    +0.000 A 
ATOM     41  C   UNL     1      -0.070   3.573   1.121  0.00  0.00    +0.002 A 
ATOM     42  C   UNL     1       1.140   2.955   0.878  0.00  0.00    +0.023 A 
ENDBRANCH  35  37
ENDBRANCH  32  35
ENDBRANCH  27  29
ENDBRANCH  11  25
TORSDOF 7
