REMARK  Name = ZINC35310613
REMARK  7 active torsions:
REMARK  status: ('A' for Active; 'I' for Inactive)
REMARK    1  A    between atoms: C_1  and  N_2
REMARK    2  A    between atoms: N_5  and  S_8
REMARK    3  A    between atoms: S_8  and  C_11
REMARK    4  A    between atoms: C_14  and  S_17
REMARK    5  A    between atoms: S_17  and  C_18
REMARK    6  A    between atoms: C_18  and  C_19
REMARK    7  A    between atoms: N_21  and  N_22
REMARK                            x       y       z     vdW  Elec       q    Type
REMARK                         _______ _______ _______ _____ _____    ______ ____
ROOT
ATOM      1  C   UNL     1       2.537  -9.453  -0.267  0.00  0.00    +0.173 C 
ENDROOT
BRANCH   1   2
ATOM      2  C   UNL     1       3.143 -10.709  -0.837  0.00  0.00    +0.240 C 
ATOM      3  O   UNL     1       2.546 -11.342  -1.681  0.00  0.00    -0.273 OA
ATOM      4  N   UNL     1       4.351 -11.128  -0.408  0.00  0.00    -0.223 N 
ATOM      5  H   UNL     1       4.829 -10.621   0.267  0.00  0.00    +0.174 HD
BRANCH   4   6
ATOM      6  N   UNL     1       4.915 -12.296  -0.938  0.00  0.00    -0.137 N 
ATOM      7  C   UNL     1       4.971 -13.475  -0.284  0.00  0.00    +0.263 C 
ATOM      8  O   UNL     1       4.559 -13.716   0.830  0.00  0.00    -0.271 OA
ATOM      9  C   UNL     1       5.655 -14.431  -1.234  0.00  0.00    +0.114 C 
ATOM     10  C   UNL     1       4.726 -15.588  -1.585  0.00  0.00    +0.035 C 
ATOM     11  C   UNL     1       5.427 -16.527  -2.571  0.00  0.00    +0.003 C 
ATOM     12  C   UNL     1       6.714 -17.059  -1.938  0.00  0.00    +0.000 C 
ATOM     13  C   UNL     1       7.645 -15.890  -1.613  0.00  0.00    +0.003 C 
ATOM     14  C   UNL     1       6.954 -14.948  -0.624  0.00  0.00    +0.035 C 
ATOM     15  N   UNL     1       5.934 -13.615  -2.422  0.00  0.00    -0.284 N 
ATOM     16  C   UNL     1       5.460 -12.382  -2.157  0.00  0.00    +0.326 C 
ATOM     17  O   UNL     1       5.524 -11.452  -2.937  0.00  0.00    -0.251 OA
ATOM     18  H   UNL     1       6.370 -13.907  -3.238  0.00  0.00    +0.151 HD
ENDBRANCH   4   6
ENDBRANCH   1   2
BRANCH   1  19
ATOM     19  S   UNL     1       0.922  -9.157  -1.040  0.00  0.00    -0.097 S 
BRANCH  19  23
ATOM     20  C   UNL     1      -0.505  -5.382   0.916  0.00  0.00    +0.124 A 
ATOM     21  C   UNL     1      -1.321  -5.981  -0.036  0.00  0.00    +0.032 A 
ATOM     22  C   UNL     1      -0.885  -7.145  -0.641  0.00  0.00    +0.037 A 
ATOM     23  C   UNL     1       0.350  -7.674  -0.279  0.00  0.00    +0.097 A 
ATOM     24  N   UNL     1       1.099  -7.074   0.634  0.00  0.00    -0.247 NA
ATOM     25  C   UNL     1       0.711  -5.959   1.223  0.00  0.00    +0.140 A 
BRANCH  20  26
ATOM     26  S   UNL     1      -1.014  -3.897   1.717  0.00  0.00    +0.062 S 
ATOM     27  O   UNL     1      -0.312  -3.841   2.951  0.00  0.00    -0.153 OA
ATOM     28  O   UNL     1      -2.433  -3.863   1.645  0.00  0.00    -0.153 OA
BRANCH  26  33
ATOM     29  C   UNL     1      -0.018   1.465   0.010  0.00  0.00    +0.105 C 
ATOM     30  N   UNL     1       0.002  -0.004   0.002  0.00  0.00    -0.303 NA
ATOM     31  C   UNL     1      -1.359  -0.548  -0.091  0.00  0.00    +0.101 C 
ATOM     32  C   UNL     1      -1.286  -2.068  -0.279  0.00  0.00    +0.125 C 
ATOM     33  N   UNL     1      -0.463  -2.633   0.801  0.00  0.00    -0.174 NA
ATOM     34  C   UNL     1       0.864  -2.046   1.044  0.00  0.00    +0.125 C 
ATOM     35  C   UNL     1       0.706  -0.527   1.180  0.00  0.00    +0.101 C 
ENDBRANCH  26  33
ENDBRANCH  20  26
ENDBRANCH  19  23
ENDBRANCH   1  19
TORSDOF 6
