REMARK  Name = ZINC17114063
REMARK  9 active torsions:
REMARK  status: ('A' for Active; 'I' for Inactive)
REMARK    1  A    between atoms: C_1  and  C_2
REMARK    2  A    between atoms: C_2  and  C_3
REMARK    3  A    between atoms: C_2  and  C_4
REMARK    4  A    between atoms: C_2  and  C_5
REMARK    5  A    between atoms: C_8  and  C_11
REMARK    6  A    between atoms: N_13  and  C_14
REMARK    7  A    between atoms: C_14  and  C_15
REMARK    8  A    between atoms: C_15  and  C_16
REMARK    9  A    between atoms: N_18  and  N_19
REMARK                            x       y       z     vdW  Elec       q    Type
REMARK                         _______ _______ _______ _____ _____    ______ ____
ROOT
ATOM      1  C   UNL     1      -1.576   2.734   1.152  0.00  0.00    +0.231 C 
ATOM      2  O   UNL     1      -0.915   2.621   2.163  0.00  0.00    -0.274 OA
ATOM      3  N   UNL     1      -1.186   2.116   0.019  0.00  0.00    -0.224 N 
ATOM      4  H   UNL     1      -1.714   2.207  -0.789  0.00  0.00    +0.174 HD
ENDROOT
BRANCH   3   5
ATOM      5  N   UNL     1      -0.016   1.345   0.009  0.00  0.00    -0.137 N 
ATOM      6  C   UNL     1       0.002  -0.004   0.002  0.00  0.00    +0.263 C 
ATOM      7  O   UNL     1      -0.953  -0.751   0.007  0.00  0.00    -0.271 OA
ATOM      8  C   UNL     1       1.464  -0.388  -0.014  0.00  0.00    +0.114 C 
ATOM      9  C   UNL     1       1.792  -1.178  -1.276  0.00  0.00    +0.035 C 
ATOM     10  C   UNL     1       3.281  -1.532  -1.287  0.00  0.00    +0.003 C 
ATOM     11  C   UNL     1       3.616  -2.361  -0.045  0.00  0.00    +0.000 C 
ATOM     12  C   UNL     1       3.305  -1.546   1.212  0.00  0.00    +0.003 C 
ATOM     13  C   UNL     1       1.816  -1.192   1.233  0.00  0.00    +0.035 C 
ATOM     14  N   UNL     1       2.171   0.899  -0.014  0.00  0.00    -0.284 N 
ATOM     15  C   UNL     1       1.222   1.855   0.000  0.00  0.00    +0.326 C 
ATOM     16  O   UNL     1       1.462   3.046   0.004  0.00  0.00    -0.251 OA
ATOM     17  H   UNL     1       3.131   1.035  -0.023  0.00  0.00    +0.151 HD
ENDBRANCH   3   5
BRANCH   1  18
ATOM     18  C   UNL     1      -2.834   3.564   1.163  0.00  0.00    +0.116 C 
BRANCH  18  19
ATOM     19  C   UNL     1      -3.047   4.149   2.560  0.00  0.00    +0.114 C 
BRANCH  19  22
ATOM     20  C   UNL     1      -4.660   5.572   3.704  0.00  0.00    +0.244 C 
ATOM     21  O   UNL     1      -3.998   5.460   4.716  0.00  0.00    -0.270 OA
ATOM     22  N   UNL     1      -4.270   4.955   2.571  0.00  0.00    -0.311 N 
ATOM     23  H   UNL     1      -4.798   5.045   1.762  0.00  0.00    +0.149 HD
BRANCH  20  27
ATOM     24  C   UNL     1      -8.205   7.913   3.733  0.00  0.00    -0.042 A 
ATOM     25  C   UNL     1      -7.454   7.786   4.888  0.00  0.00    +0.005 A 
ATOM     26  C   UNL     1      -6.302   7.027   4.885  0.00  0.00    +0.013 A 
ATOM     27  C   UNL     1      -5.894   6.387   3.714  0.00  0.00    +0.037 A 
ATOM     28  C   UNL     1      -6.654   6.523   2.551  0.00  0.00    +0.013 A 
ATOM     29  C   UNL     1      -7.807   7.281   2.569  0.00  0.00    +0.005 A 
BRANCH  24  31
ATOM     30  C   UNL     1      -9.119  10.185   4.124  0.00  0.00    +0.015 C 
ATOM     31  C   UNL     1      -9.463   8.743   3.744  0.00  0.00    -0.013 C 
ATOM     32  C   UNL     1     -10.100   8.721   2.353  0.00  0.00    +0.015 C 
ATOM     33  C   UNL     1     -10.446   8.167   4.765  0.00  0.00    +0.015 C 
ENDBRANCH  24  31
ENDBRANCH  20  27
ENDBRANCH  19  22
ENDBRANCH  18  19
ENDBRANCH   1  18
TORSDOF 6
