REMARK  Name = ZINC44550566
REMARK  7 active torsions:
REMARK  status: ('A' for Active; 'I' for Inactive)
REMARK    1  A    between atoms: C_1  and  C_2
REMARK    2  A    between atoms: C_5  and  S_8
REMARK    3  A    between atoms: S_8  and  N_11
REMARK    4  A    between atoms: N_11  and  C_12
REMARK    5  A    between atoms: C_12  and  N_14
REMARK    6  A    between atoms: N_14  and  N_15
REMARK    7  A    between atoms: C_16  and  C_18
REMARK                            x       y       z     vdW  Elec       q    Type
REMARK                         _______ _______ _______ _____ _____    ______ ____
ROOT
ATOM      1  C   UNL     1       2.443  -4.723   1.021  0.00  0.00    +0.166 C 
ATOM      2  S   UNL     1       1.807  -3.887   2.373  0.00  0.00    -0.016 S 
ENDROOT
BRANCH   1   3
ATOM      3  N   UNL     1       1.651  -4.999  -0.034  0.00  0.00    -0.196 N 
ATOM      4  H   UNL     1       2.011  -5.473  -0.800  0.00  0.00    +0.176 HD
BRANCH   3   5
ATOM      5  S   UNL     1       0.063  -4.530  -0.023  0.00  0.00    +0.074 S 
ATOM      6  O   UNL     1      -0.476  -4.950   1.223  0.00  0.00    -0.150 OA
ATOM      7  O   UNL     1      -0.490  -4.937  -1.267  0.00  0.00    -0.150 OA
BRANCH   5  12
ATOM      8  C   UNL     1      -0.018   1.503   0.010  0.00  0.00    +0.044 C 
ATOM      9  C   UNL     1       0.002  -0.004   0.002  0.00  0.00    -0.050 A 
ATOM     10  C   UNL     1       0.006  -0.689  -1.199  0.00  0.00    +0.005 A 
ATOM     11  C   UNL     1       0.025  -2.071  -1.206  0.00  0.00    +0.029 A 
ATOM     12  C   UNL     1       0.040  -2.768  -0.013  0.00  0.00    +0.109 A 
ATOM     13  C   UNL     1       0.037  -2.084   1.188  0.00  0.00    +0.029 A 
ATOM     14  C   UNL     1       0.023  -0.702   1.195  0.00  0.00    +0.005 A 
ENDBRANCH   5  12
ENDBRANCH   3   5
ENDBRANCH   1   3
BRANCH   1  15
ATOM     15  N   UNL     1       3.735  -5.105   1.012  0.00  0.00    -0.244 N 
ATOM     16  H   UNL     1       4.305  -4.906   1.771  0.00  0.00    +0.172 HD
BRANCH  15  17
ATOM     17  N   UNL     1       4.256  -5.789  -0.095  0.00  0.00    -0.231 N 
ATOM     18  C   UNL     1       5.548  -6.171  -0.104  0.00  0.00    +0.260 C 
ATOM     19  O   UNL     1       6.262  -5.921   0.848  0.00  0.00    -0.269 OA
ATOM     20  H   UNL     1       3.686  -5.988  -0.854  0.00  0.00    +0.173 HD
BRANCH  18  21
ATOM     21  C   UNL     1       6.097  -6.893  -1.271  0.00  0.00    +0.038 A 
ATOM     22  C   UNL     1       5.281  -7.175  -2.368  0.00  0.00    +0.014 A 
ATOM     23  C   UNL     1       5.799  -7.849  -3.454  0.00  0.00    +0.021 A 
ATOM     24  C   UNL     1       7.126  -8.244  -3.458  0.00  0.00    +0.041 A 
ATOM     25  C   UNL     1       7.941  -7.967  -2.373  0.00  0.00    +0.021 A 
ATOM     26  C   UNL     1       7.436  -7.289  -1.283  0.00  0.00    +0.014 A 
ATOM     27 CL   UNL     1       7.771  -9.092  -4.829  0.00  0.00    -0.084 Cl
ENDBRANCH  18  21
ENDBRANCH  15  17
ENDBRANCH   1  15
TORSDOF 6
