REMARK  Name = ZINC32803710
REMARK  9 active torsions:
REMARK  status: ('A' for Active; 'I' for Inactive)
REMARK    1  A    between atoms: C_1  and  C_2
REMARK    2  A    between atoms: C_2  and  C_3
REMARK    3  A    between atoms: C_3  and  N_4
REMARK    4  A    between atoms: N_4  and  C_5
REMARK    5  A    between atoms: C_8  and  S_25
REMARK    6  A    between atoms: C_10  and  N_11
REMARK    7  A    between atoms: N_11  and  S_12
REMARK    8  A    between atoms: S_12  and  C_15
REMARK    9  A    between atoms: S_25  and  N_28
REMARK                            x       y       z     vdW  Elec       q    Type
REMARK                         _______ _______ _______ _____ _____    ______ ____
ROOT
ATOM      1  C   UNL     1       1.063  -4.331  -4.103  0.00  0.00    +0.050 A 
ATOM      2  C   UNL     1       2.142  -3.967  -4.894  0.00  0.00    +0.027 A 
ATOM      3  C   UNL     1       3.419  -3.968  -4.364  0.00  0.00    +0.030 A 
ATOM      4  C   UNL     1       3.624  -4.331  -3.046  0.00  0.00    +0.107 A 
ATOM      5  C   UNL     1       2.554  -4.691  -2.249  0.00  0.00    +0.054 A 
ATOM      6  C   UNL     1       1.270  -4.697  -2.773  0.00  0.00    +0.071 A 
ENDROOT
BRANCH   4   7
ATOM      7  S   UNL     1       5.255  -4.330  -2.379  0.00  0.00    +0.056 S 
ATOM      8  O   UNL     1       5.245  -5.232  -1.281  0.00  0.00    -0.153 OA
ATOM      9  O   UNL     1       6.144  -4.476  -3.478  0.00  0.00    -0.153 OA
BRANCH   7  10
ATOM     10  N   UNL     1       5.526  -2.822  -1.750  0.00  0.00    -0.204 NA
ATOM     11  H   UNL     1       6.538  -2.779  -1.321  0.00  0.00    +0.144 HD
ATOM     12  H   UNL     1       4.785  -2.614  -0.963  0.00  0.00    +0.144 HD
ENDBRANCH   7  10
ENDBRANCH   4   7
BRANCH   1  13
ATOM     13  N   UNL     1      -0.232  -4.331  -4.637  0.00  0.00    -0.342 N 
ATOM     14  H   UNL     1      -1.086  -4.620  -4.008  0.00  0.00    +0.146 HD
BRANCH  13  15
ATOM     15  C   UNL     1      -0.447  -3.946  -6.034  0.00  0.00    +0.101 C 
BRANCH  15  17
ATOM     16  C   UNL     1      -2.164  -3.628  -7.821  0.00  0.00    +0.005 C 
ATOM     17  C   UNL     1      -1.939  -4.030  -6.362  0.00  0.00    +0.015 C 
ENDBRANCH  15  17
ENDBRANCH  13  15
ENDBRANCH   1  13
BRANCH   6  18
ATOM     18  N   UNL     1       0.185  -5.066  -1.969  0.00  0.00    -0.215 N 
ATOM     19  H   UNL     1      -0.657  -5.624  -2.403  0.00  0.00    +0.174 HD
BRANCH  18  20
ATOM     20  S   UNL     1       0.169  -4.660  -0.363  0.00  0.00    +0.069 S 
ATOM     21  O   UNL     1       1.386  -5.142   0.189  0.00  0.00    -0.150 OA
ATOM     22  O   UNL     1      -1.102  -5.046   0.141  0.00  0.00    -0.150 OA
BRANCH  20  23
ATOM     23  C   UNL     1       0.234  -2.902  -0.270  0.00  0.00    +0.087 C 
ATOM     24  C   UNL     1       1.365  -2.311   0.084  0.00  0.00    +0.032 C 
ATOM     25  C   UNL     1       1.417  -0.840   0.201  0.00  0.00    -0.020 A 
ATOM     26  C   UNL     1       2.637  -0.167   0.216  0.00  0.00    +0.008 A 
ATOM     27  C   UNL     1       2.656   1.211   0.302  0.00  0.00    +0.001 A 
ATOM     28  C   UNL     1       1.470   1.919   0.377  0.00  0.00    +0.000 A 
ATOM     29  C   UNL     1       0.256   1.255   0.371  0.00  0.00    +0.004 A 
ATOM     30  C   UNL     1       0.225  -0.121   0.286  0.00  0.00    -0.040 A 
ATOM     31  C   UNL     1      -1.087  -0.862   0.298  0.00  0.00    +0.042 C 
ATOM     32  C   UNL     1      -0.995  -2.098  -0.594  0.00  0.00    +0.061 C 
ENDBRANCH  20  23
ENDBRANCH  18  20
ENDBRANCH   6  18
TORSDOF 8
