REMARK  Name = ZINC09720922
REMARK  7 active torsions:
REMARK  status: ('A' for Active; 'I' for Inactive)
REMARK    1  A    between atoms: C_1  and  C_2
REMARK    2  A    between atoms: C_2  and  C_3
REMARK    3  A    between atoms: C_6  and  N_9
REMARK    4  A    between atoms: C_15  and  C_16
REMARK    5  A    between atoms: C_21  and  O_22
REMARK    6  A    between atoms: O_22  and  C_23
REMARK    7  A    between atoms: C_23  and  C_24
REMARK                            x       y       z     vdW  Elec       q    Type
REMARK                         _______ _______ _______ _____ _____    ______ ____
ROOT
ATOM      1  N   UNL     1      -0.895   2.140   1.266  0.00  0.00    -0.226 NA
ATOM      2  C   UNL     1       0.112   1.345   0.980  0.00  0.00    +0.166 C 
ATOM      3  N   UNL     1       0.135  -0.033   0.954  0.00  0.00    -0.260 N 
ATOM      4  C   UNL     1       1.243  -0.682   0.637  0.00  0.00    +0.256 C 
ATOM      5  O   UNL     1       1.281  -1.898   0.610  0.00  0.00    -0.269 OA
ATOM      6  C   UNL     1       2.429   0.134   0.319  0.00  0.00    +0.078 C 
ATOM      7  C   UNL     1       3.679  -0.263  -0.034  0.00  0.00    +0.032 C 
ATOM      8  S   UNL     1       1.780   1.787   0.522  0.00  0.00    -0.049 S 
ATOM      9  H   UNL     1      -0.668  -0.531   1.171  0.00  0.00    +0.157 HD
ENDROOT
BRANCH   7  10
ATOM     10  C   UNL     1       4.758   0.726  -0.150  0.00  0.00    +0.019 A 
ATOM     11  C   UNL     1       4.629   1.983   0.453  0.00  0.00    +0.026 A 
ATOM     12  C   UNL     1       5.650   2.903   0.344  0.00  0.00    +0.019 A 
ATOM     13  C   UNL     1       6.798   2.594  -0.369  0.00  0.00    +0.019 A 
ATOM     14  C   UNL     1       6.935   1.359  -0.973  0.00  0.00    +0.047 A 
ATOM     15  C   UNL     1       5.923   0.418  -0.871  0.00  0.00    +0.128 A 
ATOM     16 BR   UNL     1       5.479   4.598   1.165  0.00  0.00    -0.050 Br
BRANCH  15  17
ATOM     17  O   UNL     1       6.058  -0.795  -1.465  0.00  0.00    -0.482 OA
BRANCH  17  18
ATOM     18  C   UNL     1       7.270  -1.036  -2.181  0.00  0.00    +0.324 C 
BRANCH  18  19
ATOM     19  C   UNL     1       7.240  -2.424  -2.768  0.00  0.00    +0.248 C 
ATOM     20  O   UNL     1       6.275  -3.136  -2.590  0.00  0.00    -0.272 OA
ATOM     21  N   UNL     1       8.286  -2.873  -3.490  0.00  0.00    -0.327 N 
ATOM     22  H   UNL     1       9.058  -2.303  -3.632  0.00  0.00    +0.145 HD
ATOM     23  H   UNL     1       8.266  -3.766  -3.867  0.00  0.00    +0.145 HD
ENDBRANCH  18  19
ENDBRANCH  17  18
ENDBRANCH  15  17
ENDBRANCH   7  10
BRANCH   1  27
ATOM     24  C   UNL     1      -0.379   6.244   1.181  0.00  0.00    -0.047 A 
ATOM     25  C   UNL     1      -1.500   5.679   0.600  0.00  0.00    +0.006 A 
ATOM     26  C   UNL     1      -1.679   4.312   0.625  0.00  0.00    +0.028 A 
ATOM     27  C   UNL     1      -0.724   3.497   1.238  0.00  0.00    +0.067 A 
ATOM     28  C   UNL     1       0.403   4.075   1.828  0.00  0.00    +0.028 A 
ATOM     29  C   UNL     1       0.571   5.443   1.791  0.00  0.00    +0.006 A 
BRANCH  24  31
ATOM     30  C   UNL     1      -0.834   8.360   2.393  0.00  0.00    +0.009 C 
ATOM     31  C   UNL     1      -0.191   7.739   1.151  0.00  0.00    +0.032 C 
ENDBRANCH  24  31
ENDBRANCH   1  27
TORSDOF 6
