REMARK  Name = ZINC39122098
REMARK  2 active torsions:
REMARK  status: ('A' for Active; 'I' for Inactive)
REMARK    1  A    between atoms: C_5  and  N_8
REMARK    2  A    between atoms: N_6  and  O_7
REMARK                            x       y       z     vdW  Elec       q    Type
REMARK                         _______ _______ _______ _____ _____    ______ ____
ROOT
ATOM      1  N   UNL     1       0.578  -1.901   1.384  0.00  0.00    -0.178 N 
ATOM      2  C   UNL     1       1.645  -2.742   1.647  0.00  0.00    +0.195 C 
ATOM      3  N   UNL     1       1.576  -3.593   2.629  0.00  0.00    -0.270 NA
ATOM      4  N   UNL     1       2.777  -2.680   0.870  0.00  0.00    -0.371 N 
ATOM      5  C   UNL     1      -0.685  -2.353   1.515  0.00  0.00    +0.312 C 
ATOM      6  O   UNL     1      -1.620  -1.636   1.217  0.00  0.00    -0.252 OA
ATOM      7  N   UNL     1      -0.910  -3.599   1.976  0.00  0.00    -0.313 N 
ATOM      8  H   UNL     1       2.800  -2.101   0.091  0.00  0.00    +0.159 HD
ATOM      9  H   UNL     1       3.554  -3.214   1.100  0.00  0.00    +0.159 HD
ATOM     10  H   UNL     1      -0.168  -4.145   2.281  0.00  0.00    +0.147 HD
ATOM     11  H   UNL     1      -1.814  -3.949   2.004  0.00  0.00    +0.147 HD
ATOM     12  H   UNL     1       2.324  -4.183   2.813  0.00  0.00    +0.190 HD
ENDROOT
BRANCH   1  17
ATOM     13  C   UNL     1      -0.226   1.468   0.134  0.00  0.00    +0.177 C 
ATOM     14  C   UNL     1       1.093   2.149   0.404  0.00  0.00    -0.003 C 
ATOM     15  C   UNL     1       2.056   1.499   1.058  0.00  0.00    +0.001 C 
ATOM     16  C   UNL     1       1.837   0.122   1.508  0.00  0.00    +0.044 C 
ATOM     17  C   UNL     1       0.809  -0.590   0.985  0.00  0.00    +0.136 C 
ATOM     18  N   UNL     1      -0.007   0.019   0.043  0.00  0.00    -0.237 N 
BRANCH  18  19
ATOM     19  O   UNL     1      -0.617  -0.741  -0.984  0.00  0.00    -0.285 OA
ATOM     20  H   UNL     1      -1.165  -0.220  -1.586  0.00  0.00    +0.244 HD
ENDBRANCH  18  19
ENDBRANCH   1  17
TORSDOF 2
