REMARK  Name = ZINC02616802
REMARK  5 active torsions:
REMARK  status: ('A' for Active; 'I' for Inactive)
REMARK    1  A    between atoms: C_1  and  O_2
REMARK    2  A    between atoms: O_2  and  C_3
REMARK    3  A    between atoms: C_6  and  N_9
REMARK    4  A    between atoms: C_10  and  C_12
REMARK    5  A    between atoms: C_12  and  N_13
REMARK                            x       y       z     vdW  Elec       q    Type
REMARK                         _______ _______ _______ _____ _____    ______ ____
ROOT
ATOM      1  N   UNL     1       2.952  -5.968   5.420  0.00  0.00    -0.215 N 
ATOM      2  C   UNL     1       1.879  -6.679   5.830  0.00  0.00    +0.247 C 
ATOM      3  O   UNL     1       0.760  -6.286   6.050  0.00  0.00    -0.273 OA
ATOM      4  C   UNL     1       2.410  -8.092   5.997  0.00  0.00    +0.113 C 
ATOM      5  C   UNL     1       3.076  -8.199   7.367  0.00  0.00    +0.035 C 
ATOM      6  C   UNL     1       3.280  -9.655   7.784  0.00  0.00    +0.003 C 
ATOM      7  C   UNL     1       4.552 -10.274   7.177  0.00  0.00    +0.000 C 
ATOM      8  C   UNL     1       4.273 -10.607   5.701  0.00  0.00    +0.000 C 
ATOM      9  C   UNL     1       2.881 -11.226   5.566  0.00  0.00    +0.000 C 
ATOM     10  C   UNL     1       1.916 -10.279   4.862  0.00  0.00    +0.003 C 
ATOM     11  C   UNL     1       1.378  -9.172   5.768  0.00  0.00    +0.035 C 
ATOM     12  N   UNL     1       3.411  -8.073   4.910  0.00  0.00    -0.285 N 
ATOM     13  C   UNL     1       3.839  -6.789   4.845  0.00  0.00    +0.310 C 
ATOM     14  O   UNL     1       4.879  -6.440   4.336  0.00  0.00    -0.252 OA
ATOM     15  H   UNL     1       3.649  -8.753   4.281  0.00  0.00    +0.151 HD
ENDROOT
BRANCH   1  16
ATOM     16  C   UNL     1       3.106  -4.522   5.545  0.00  0.00    +0.214 C 
BRANCH  16  18
ATOM     17  N   UNL     1       2.540  -2.503   4.231  0.00  0.00    -0.284 N 
ATOM     18  C   UNL     1       2.513  -3.847   4.335  0.00  0.00    +0.235 C 
ATOM     19  O   UNL     1       2.010  -4.513   3.455  0.00  0.00    -0.274 OA
ATOM     20  H   UNL     1       3.009  -1.975   4.896  0.00  0.00    +0.155 HD
BRANCH  17  24
ATOM     21  C   UNL     1       0.610  -0.617   1.052  0.00  0.00    +0.120 A 
ATOM     22  C   UNL     1       0.087  -1.786   1.587  0.00  0.00    +0.047 A 
ATOM     23  C   UNL     1       0.726  -2.411   2.639  0.00  0.00    +0.027 A 
ATOM     24  C   UNL     1       1.892  -1.870   3.163  0.00  0.00    +0.034 A 
ATOM     25  C   UNL     1       2.416  -0.700   2.628  0.00  0.00    +0.027 A 
ATOM     26  C   UNL     1       1.779  -0.079   1.572  0.00  0.00    +0.047 A 
BRANCH  21  28
ATOM     27  C   UNL     1      -1.218  -0.611  -0.469  0.00  0.00    +0.277 C 
ATOM     28  O   UNL     1      -0.019  -0.002   0.016  0.00  0.00    -0.495 OA
ENDBRANCH  21  28
ENDBRANCH  17  24
ENDBRANCH  16  18
ENDBRANCH   1  16
TORSDOF 4
