REMARK  Name = ZINC02325645
REMARK  6 active torsions:
REMARK  status: ('A' for Active; 'I' for Inactive)
REMARK    1  A    between atoms: C_1  and  C_2
REMARK    2  A    between atoms: C_5  and  S_8
REMARK    3  A    between atoms: S_8  and  N_11
REMARK    4  A    between atoms: C_15  and  O_24
REMARK    5  A    between atoms: C_21  and  C_23
REMARK    6  A    between atoms: O_24  and  C_25
REMARK                            x       y       z     vdW  Elec       q    Type
REMARK                         _______ _______ _______ _____ _____    ______ ____
ROOT
ATOM      1  N   UNL     1      -0.020   1.652   0.011  0.00  0.00    -0.202 N 
ATOM      2  C   UNL     1      -1.164   2.433   0.020  0.00  0.00    +0.076 A 
ATOM      3  C   UNL     1      -2.520   2.120   0.038  0.00  0.00    +0.032 A 
ATOM      4  C   UNL     1      -3.458   3.129   0.053  0.00  0.00    +0.048 A 
ATOM      5  C   UNL     1      -3.064   4.463   0.055  0.00  0.00    +0.121 A 
ATOM      6  C   UNL     1      -1.721   4.791   0.043  0.00  0.00    +0.057 A 
ATOM      7  C   UNL     1      -0.767   3.776   0.029  0.00  0.00    +0.032 A 
ATOM      8  C   UNL     1       0.721   3.792   0.015  0.00  0.00    +0.106 A 
ATOM      9  C   UNL     1       1.083   2.450   0.005  0.00  0.00    +0.130 A 
ATOM     10  S   UNL     1       2.859   2.546  -0.011  0.00  0.00    -0.053 S 
ATOM     11  C   UNL     1       2.986   4.328  -0.004  0.00  0.00    +0.078 A 
ATOM     12  N   UNL     1       1.730   4.688   0.009  0.00  0.00    -0.242 NA
ATOM     13  C   UNL     1       4.220   5.192  -0.012  0.00  0.00    +0.074 C 
ENDROOT
BRANCH   1  14
ATOM     14  S   UNL     1       0.002  -0.004   0.002  0.00  0.00    +0.085 S 
ATOM     15  O   UNL     1      -1.243  -0.424  -0.540  0.00  0.00    -0.148 OA
ATOM     16  O   UNL     1       1.248  -0.390  -0.562  0.00  0.00    -0.148 OA
BRANCH  14  21
ATOM     17  C   UNL     1       0.079  -1.818   5.756  0.00  0.00    +0.044 C 
ATOM     18  C   UNL     1       0.060  -1.366   4.319  0.00  0.00    -0.050 A 
ATOM     19  C   UNL     1      -1.146  -1.174   3.671  0.00  0.00    +0.005 A 
ATOM     20  C   UNL     1      -1.164  -0.758   2.352  0.00  0.00    +0.029 A 
ATOM     21  C   UNL     1       0.025  -0.534   1.682  0.00  0.00    +0.111 A 
ATOM     22  C   UNL     1       1.230  -0.731   2.329  0.00  0.00    +0.029 A 
ATOM     23  C   UNL     1       1.248  -1.143   3.648  0.00  0.00    +0.005 A 
ENDBRANCH  14  21
ENDBRANCH   1  14
BRANCH   5  24
ATOM     24  O   UNL     1      -4.003   5.447   0.069  0.00  0.00    -0.495 OA
ATOM     25  C   UNL     1      -5.372   5.038   0.081  0.00  0.00    +0.277 C 
ENDBRANCH   5  24
TORSDOF 3
