REMARK  Name = ZINC08053751
REMARK  6 active torsions:
REMARK  status: ('A' for Active; 'I' for Inactive)
REMARK    1  A    between atoms: C_6  and  N_11
REMARK    2  A    between atoms: C_7  and  C_8
REMARK    3  A    between atoms: N_11  and  C_12
REMARK    4  A    between atoms: C_12  and  N_14
REMARK    5  A    between atoms: C_15  and  C_17
REMARK    6  A    between atoms: C_17  and  C_18
REMARK                            x       y       z     vdW  Elec       q    Type
REMARK                         _______ _______ _______ _____ _____    ______ ____
ROOT
ATOM      1  C   UNL     1       4.831  -2.727   2.695  0.00  0.00    +0.141 C 
ATOM      2  S   UNL     1       3.453  -3.716   2.462  0.00  0.00    -0.018 S 
ENDROOT
BRANCH   1   3
ATOM      3  N   UNL     1       5.934  -3.235   3.278  0.00  0.00    -0.268 N 
ATOM      4  C   UNL     1       5.954  -4.522   3.677  0.00  0.00    +0.219 C 
ATOM      5  O   UNL     1       4.978  -5.223   3.512  0.00  0.00    -0.275 OA
ATOM      6  H   UNL     1       6.715  -2.674   3.411  0.00  0.00    +0.156 HD
BRANCH   4   7
ATOM      7  C   UNL     1       7.188  -5.090   4.329  0.00  0.00    +0.103 C 
BRANCH   7   8
ATOM      8  C   UNL     1       6.948  -6.559   4.683  0.00  0.00    -0.020 C 
ATOM      9  C   UNL     1       5.766  -6.665   5.649  0.00  0.00    +0.011 C 
ATOM     10  C   UNL     1       5.526  -8.134   6.002  0.00  0.00    -0.010 C 
ATOM     11  C   UNL     1       6.779  -8.711   6.664  0.00  0.00    +0.007 C 
ATOM     12  C   UNL     1       7.960  -8.605   5.698  0.00  0.00    -0.010 C 
ATOM     13  C   UNL     1       8.201  -7.136   5.345  0.00  0.00    +0.011 C 
ATOM     14  C   UNL     1       7.649  -9.392   4.423  0.00  0.00    +0.007 C 
ATOM     15  C   UNL     1       6.396  -8.815   3.762  0.00  0.00    -0.010 C 
ATOM     16  C   UNL     1       5.214  -8.921   4.728  0.00  0.00    +0.007 C 
ATOM     17  C   UNL     1       6.636  -7.346   3.408  0.00  0.00    +0.011 C 
ENDBRANCH   7   8
ENDBRANCH   4   7
ENDBRANCH   1   3
BRANCH   1  18
ATOM     18  N   UNL     1       4.811  -1.440   2.296  0.00  0.00    -0.291 N 
ATOM     19  H   UNL     1       5.592  -0.879   2.429  0.00  0.00    +0.154 HD
BRANCH  18  25
ATOM     20  C   UNL     1      -0.019   1.541   0.011  0.00  0.00    +0.010 C 
ATOM     21  C   UNL     1       1.486   1.876  -0.002  0.00  0.00    +0.037 C 
ATOM     22  C   UNL     1       2.176   0.671   0.633  0.00  0.00    -0.023 A 
ATOM     23  C   UNL     1       1.324  -0.370   0.621  0.00  0.00    -0.004 A 
ATOM     24  S   UNL     1       2.228  -1.699   1.373  0.00  0.00    -0.077 S 
ATOM     25  C   UNL     1       3.676  -0.917   1.697  0.00  0.00    +0.084 A 
ATOM     26  C   UNL     1       3.477   0.369   1.229  0.00  0.00    +0.068 A 
ATOM     27  C   UNL     1       0.002  -0.004   0.002  0.00  0.00    +0.043 C 
BRANCH  26  28
ATOM     28  C   UNL     1       4.527   1.387   1.327  0.00  0.00    +0.244 C 
ATOM     29  O   UNL     1       4.596   2.098   2.312  0.00  0.00    -0.270 OA
ATOM     30  N   UNL     1       5.415   1.537   0.324  0.00  0.00    -0.325 N 
ATOM     31  H   UNL     1       5.360   0.971  -0.461  0.00  0.00    +0.145 HD
ATOM     32  H   UNL     1       6.110   2.211   0.389  0.00  0.00    +0.145 HD
ENDBRANCH  26  28
ENDBRANCH  18  25
ENDBRANCH   1  18
TORSDOF 6
