REMARK  Name = ZINC39534049
REMARK  6 active torsions:
REMARK  status: ('A' for Active; 'I' for Inactive)
REMARK    1  A    between atoms: C_4  and  O_26
REMARK    2  A    between atoms: C_5  and  C_7
REMARK    3  A    between atoms: C_10  and  C_13
REMARK    4  A    between atoms: C_13  and  C_15
REMARK    5  A    between atoms: C_13  and  N_18
REMARK    6  A    between atoms: C_15  and  N_16
REMARK                            x       y       z     vdW  Elec       q    Type
REMARK                         _______ _______ _______ _____ _____    ______ ____
ROOT
ATOM      1  C   UNL     1       1.229  -2.180  -0.265  0.00  0.00    -0.014 A 
ATOM      2  C   UNL     1       2.292  -2.870  -0.845  0.00  0.00    +0.009 A 
ATOM      3  C   UNL     1       2.332  -4.249  -0.782  0.00  0.00    +0.006 A 
ATOM      4  C   UNL     1       1.321  -4.945  -0.146  0.00  0.00    -0.029 A 
ATOM      5  C   UNL     1       0.263  -4.265   0.431  0.00  0.00    +0.006 A 
ATOM      6  C   UNL     1       0.215  -2.886   0.380  0.00  0.00    +0.009 A 
ENDROOT
BRANCH   1  11
ATOM      7  C   UNL     1      -0.018   1.323  -0.815  0.00  0.00    +0.001 A 
ATOM      8  C   UNL     1       1.088   2.069  -0.449  0.00  0.00    +0.004 A 
ATOM      9  C   UNL     1       2.243   1.440  -0.022  0.00  0.00    +0.046 A 
ATOM     10  C   UNL     1       2.297   0.057   0.041  0.00  0.00    +0.125 A 
ATOM     11  C   UNL     1       1.180  -0.699  -0.329  0.00  0.00    +0.024 A 
ATOM     12  C   UNL     1       0.022  -0.055  -0.757  0.00  0.00    +0.012 A 
BRANCH  10  13
ATOM     13  O   UNL     1       3.431  -0.563   0.459  0.00  0.00    -0.506 OA
ATOM     14  H   UNL     1       3.466  -0.716   1.413  0.00  0.00    +0.292 HD
ENDBRANCH  10  13
ENDBRANCH   1  11
BRANCH   4  15
ATOM     15  C   UNL     1       1.370  -6.449  -0.081  0.00  0.00    +0.101 C 
BRANCH  15  16
ATOM     16  N   UNL     1       0.028  -6.972   0.206  0.00  0.00    -0.295 NA
ATOM     17  C   UNL     1      -0.238  -6.976   1.651  0.00  0.00    +0.066 C 
ATOM     18  C   UNL     1      -1.664  -7.469   1.903  0.00  0.00    -0.063 C 
ATOM     19  N   UNL     1      -1.818  -8.824   1.357  0.00  0.00    +0.400 N 
ATOM     20  C   UNL     1      -1.574  -8.800  -0.091  0.00  0.00    +0.116 C 
ATOM     21  C   UNL     1      -0.146  -8.317  -0.360  0.00  0.00    +0.100 C 
ATOM     22  O   UNL     1      -1.740 -10.115  -0.625  0.00  0.00    -0.251 OA
ATOM     23  H   UNL     1      -1.155  -9.442   1.799  0.00  0.00    -0.082 HD
ATOM     24  H   UNL     1      -2.755  -9.154   1.534  0.00  0.00    -0.082 HD
ENDBRANCH  15  16
BRANCH  15  25
ATOM     25  C   UNL     1       2.333  -6.881   1.026  0.00  0.00    +0.115 C 
BRANCH  25  26
ATOM     26  N   UNL     1       2.386  -8.348   1.085  0.00  0.00    -0.259 NA
ATOM     27  I   UNL     1       3.843  -8.979   2.382  0.00  0.00    +0.018 I 
ATOM     28  H   UNL     1       1.488  -8.732   1.336  0.00  0.00    +0.134 HD
ENDBRANCH  25  26
ENDBRANCH  15  25
ENDBRANCH   4  15
TORSDOF 6
