REMARK  Name = ZINC08753930
REMARK  11 active torsions:
REMARK  status: ('A' for Active; 'I' for Inactive)
REMARK    1  A    between atoms: C_1  and  O_2
REMARK    2  A    between atoms: O_2  and  C_3
REMARK    3  A    between atoms: C_5  and  C_30
REMARK    4  A    between atoms: C_8  and  O_9
REMARK    5  A    between atoms: O_9  and  C_10
REMARK    6  A    between atoms: C_10  and  C_11
REMARK    7  A    between atoms: C_11  and  C_13
REMARK    8  A    between atoms: C_11  and  O_29
REMARK    9  A    between atoms: C_13  and  O_14
REMARK   10  A    between atoms: O_14  and  N_15
REMARK   11  A    between atoms: N_31  and  N_32
REMARK                            x       y       z     vdW  Elec       q    Type
REMARK                         _______ _______ _______ _____ _____    ______ ____
ROOT
ATOM      1  C   UNL     1       4.763   1.345  -0.036  0.00  0.00    +0.264 C 
ENDROOT
BRANCH   1   2
ATOM      2  O   UNL     1       3.555   2.108  -0.021  0.00  0.00    -0.486 OA
BRANCH   2   8
ATOM      3  C   UNL     1       1.173   2.097   0.002  0.00  0.00    +0.162 A 
ATOM      4  C   UNL     1      -0.017   1.393   0.010  0.00  0.00    +0.059 A 
ATOM      5  C   UNL     1       0.002  -0.004   0.002  0.00  0.00    -0.002 A 
ATOM      6  C   UNL     1       1.223  -0.683  -0.013  0.00  0.00    +0.013 A 
ATOM      7  C   UNL     1       2.406   0.027  -0.021  0.00  0.00    +0.050 A 
ATOM      8  C   UNL     1       2.387   1.414  -0.013  0.00  0.00    +0.162 A 
BRANCH   3  10
ATOM      9  C   UNL     1      -0.122   4.092   0.024  0.00  0.00    +0.277 C 
ATOM     10  O   UNL     1       1.158   3.457   0.009  0.00  0.00    -0.491 OA
ENDBRANCH   3  10
BRANCH   5  11
ATOM     11  C   UNL     1      -1.264  -0.760   0.010  0.00  0.00    +0.138 C 
ATOM     12  N   UNL     1      -1.244  -2.058   0.002  0.00  0.00    -0.186 NA
BRANCH  12  13
ATOM     13  N   UNL     1      -2.447  -2.776   0.010  0.00  0.00    -0.191 N 
ATOM     14  C   UNL     1      -2.427  -4.124   0.002  0.00  0.00    +0.317 C 
ATOM     15  O   UNL     1      -3.470  -4.748   0.008  0.00  0.00    -0.251 OA
ATOM     16  N   UNL     1      -1.250  -4.780  -0.012  0.00  0.00    -0.312 N 
ATOM     17  H   UNL     1      -3.294  -2.304   0.020  0.00  0.00    +0.179 HD
ATOM     18  H   UNL     1      -0.417  -4.283  -0.017  0.00  0.00    +0.147 HD
ATOM     19  H   UNL     1      -1.235  -5.750  -0.018  0.00  0.00    +0.147 HD
ENDBRANCH  12  13
ENDBRANCH   5  11
ENDBRANCH   2   8
ENDBRANCH   1   2
BRANCH   1  20
ATOM     20  C   UNL     1       5.965   2.292  -0.043  0.00  0.00    +0.192 C 
BRANCH  20  21
ATOM     21  O   UNL     1       5.975   3.040  -1.260  0.00  0.00    -0.385 OA
ATOM     22  H   UNL     1       6.037   2.495  -2.056  0.00  0.00    +0.210 HD
ENDBRANCH  20  21
BRANCH  20  23
ATOM     23  C   UNL     1       7.256   1.478   0.066  0.00  0.00    +0.297 C 
BRANCH  23  24
ATOM     24  O   UNL     1       8.370   2.366   0.178  0.00  0.00    -0.391 OA
BRANCH  24  25
ATOM     25  N   UNL     1       9.621   1.710   0.285  0.00  0.00    -0.084 NA
ATOM     26  C   UNL     1      10.714   2.407   0.392  0.00  0.00    +0.118 C 
ATOM     27  C   UNL     1      12.092   1.874   0.518  0.00  0.00    +0.012 A 
ATOM     28  C   UNL     1      12.595   0.578   0.545  0.00  0.00    +0.011 A 
ATOM     29  C   UNL     1      13.956   0.370   0.667  0.00  0.00    +0.001 A 
ATOM     30  C   UNL     1      14.821   1.445   0.758  0.00  0.00    +0.001 A 
ATOM     31  C   UNL     1      14.337   2.739   0.728  0.00  0.00    +0.009 A 
ATOM     32  C   UNL     1      12.969   2.967   0.605  0.00  0.00    -0.008 A 
ATOM     33  C   UNL     1      12.177   4.218   0.545  0.00  0.00    -0.008 A 
ATOM     34  C   UNL     1      10.819   3.885   0.417  0.00  0.00    +0.012 A 
ATOM     35  C   UNL     1       9.863   4.893   0.340  0.00  0.00    +0.011 A 
ATOM     36  C   UNL     1      10.254   6.218   0.391  0.00  0.00    +0.001 A 
ATOM     37  C   UNL     1      11.592   6.547   0.517  0.00  0.00    +0.001 A 
ATOM     38  C   UNL     1      12.553   5.558   0.594  0.00  0.00    +0.009 A 
ENDBRANCH  24  25
ENDBRANCH  23  24
ENDBRANCH  20  23
ENDBRANCH   1  20
TORSDOF 10
