REMARK  Name = ZINC13634060
REMARK  7 active torsions:
REMARK  status: ('A' for Active; 'I' for Inactive)
REMARK    1  A    between atoms: C_1  and  C_2
REMARK    2  A    between atoms: C_5  and  S_8
REMARK    3  A    between atoms: S_8  and  C_9
REMARK    4  A    between atoms: C_9  and  C_10
REMARK    5  A    between atoms: C_15  and  N_17
REMARK    6  A    between atoms: N_20  and  C_21
REMARK    7  A    between atoms: C_24  and  C_28
REMARK                            x       y       z     vdW  Elec       q    Type
REMARK                         _______ _______ _______ _____ _____    ______ ____
ROOT
ATOM      1  C   UNL     1      -0.826  -6.377   0.689  0.00  0.00    +0.034 A 
ATOM      2  C   UNL     1       0.181  -6.891  -0.048  0.00  0.00    +0.094 A 
ATOM      3  C   UNL     1       0.353  -8.299  -0.093  0.00  0.00    +0.275 A 
ATOM      4  O   UNL     1       1.258  -8.786  -0.754  0.00  0.00    -0.266 OA
ATOM      5  N   UNL     1      -0.479  -9.091   0.593  0.00  0.00    -0.173 NA
ATOM      6  C   UNL     1      -1.463  -8.573   1.312  0.00  0.00    +0.234 A 
ATOM      7  N   UNL     1      -1.650  -7.221   1.379  0.00  0.00    -0.327 N 
ATOM      8  H   UNL     1      -2.373  -6.859   1.914  0.00  0.00    +0.169 HD
ENDROOT
BRANCH   6   9
ATOM      9  N   UNL     1      -2.286  -9.388   1.992  0.00  0.00    -0.179 NA
ATOM     10  C   UNL     1      -2.037 -10.685   2.044  0.00  0.00    +0.203 C 
ATOM     11  N   UNL     1      -3.031 -11.559   2.382  0.00  0.00    -0.369 N 
ATOM     12  N   UNL     1      -0.784 -11.152   1.759  0.00  0.00    -0.326 N 
ATOM     13  H   UNL     1      -3.941 -11.240   2.489  0.00  0.00    +0.159 HD
ATOM     14  H   UNL     1      -0.059 -10.529   1.596  0.00  0.00    +0.169 HD
ATOM     15  H   UNL     1      -2.828 -12.498   2.514  0.00  0.00    +0.159 HD
BRANCH  12  16
ATOM     16  C   UNL     1      -0.548 -12.530   1.701  0.00  0.00    +0.043 A 
ATOM     17  C   UNL     1      -1.544 -13.389   1.253  0.00  0.00    +0.026 A 
ATOM     18  C   UNL     1      -1.308 -14.748   1.198  0.00  0.00    +0.007 A 
ATOM     19  C   UNL     1      -0.082 -15.256   1.588  0.00  0.00    -0.032 A 
ATOM     20  C   UNL     1       0.912 -14.403   2.035  0.00  0.00    +0.046 A 
ATOM     21  C   UNL     1       0.684 -13.041   2.087  0.00  0.00    +0.046 A 
ATOM     22 CL   UNL     1       2.449 -15.045   2.524  0.00  0.00    -0.083 Cl
ATOM     23  C   UNL     1       0.172 -16.740   1.526  0.00  0.00    +0.045 C 
ENDBRANCH  12  16
ENDBRANCH   6   9
BRANCH   1  24
ATOM     24  C   UNL     1      -1.035  -4.886   0.757  0.00  0.00    +0.127 C 
BRANCH  24  25
ATOM     25  S   UNL     1      -2.472  -4.431  -0.252  0.00  0.00    -0.119 S 
BRANCH  25  30
ATOM     26  C   UNL     1      -2.851   1.562   0.367  0.00  0.00    +0.044 C 
ATOM     27  C   UNL     1      -2.756   0.066   0.212  0.00  0.00    -0.050 A 
ATOM     28  C   UNL     1      -3.673  -0.606  -0.577  0.00  0.00    +0.004 A 
ATOM     29  C   UNL     1      -3.589  -1.976  -0.721  0.00  0.00    +0.015 A 
ATOM     30  C   UNL     1      -2.582  -2.681  -0.072  0.00  0.00    +0.008 A 
ATOM     31  C   UNL     1      -1.663  -2.003   0.720  0.00  0.00    +0.015 A 
ATOM     32  C   UNL     1      -1.750  -0.632   0.855  0.00  0.00    +0.004 A 
ENDBRANCH  25  30
ENDBRANCH  24  25
ENDBRANCH   1  24
TORSDOF 5
