REMARK  Name = ZINC35646605
REMARK  14 active torsions:
REMARK  status: ('A' for Active; 'I' for Inactive)
REMARK    1  A    between atoms: C_1  and  C_2
REMARK    2  A    between atoms: C_2  and  N_3
REMARK    3  A    between atoms: C_4  and  C_24
REMARK    4  A    between atoms: C_5  and  C_19
REMARK    5  A    between atoms: C_6  and  C_11
REMARK    6  A    between atoms: C_14  and  C_18
REMARK    7  A    between atoms: C_16  and  C_17
REMARK    8  A    between atoms: C_19  and  O_21
REMARK    9  A    between atoms: O_21  and  C_22
REMARK   10  A    between atoms: C_22  and  C_23
REMARK   11  A    between atoms: C_24  and  N_25
REMARK   12  A    between atoms: C_32  and  C_34
REMARK   13  A    between atoms: C_34  and  C_35
REMARK   14  A    between atoms: C_34  and  C_36
REMARK                            x       y       z     vdW  Elec       q    Type
REMARK                         _______ _______ _______ _____ _____    ______ ____
ROOT
ATOM      1  N   UNL     1      -1.839  -0.278  -0.179  0.00  0.00    -0.261 N 
ATOM      2  C   UNL     1      -2.277  -1.213   0.715  0.00  0.00    +0.010 C 
ATOM      3  C   UNL     1      -3.406  -1.920   0.488  0.00  0.00    +0.076 C 
ATOM      4  C   UNL     1      -4.168  -1.639  -0.791  0.00  0.00    +0.144 C 
ATOM      5  N   UNL     1      -3.612  -0.612  -1.688  0.00  0.00    -0.288 N 
ATOM      6  C   UNL     1      -2.476   0.013  -1.320  0.00  0.00    +0.307 C 
ATOM      7  O   UNL     1      -2.011   0.865  -2.052  0.00  0.00    -0.252 OA
ATOM      8  H   UNL     1      -4.055  -0.388  -2.521  0.00  0.00    +0.151 HD
ENDROOT
BRANCH   4   9
ATOM      9  C   UNL     1      -5.566  -1.220  -0.416  0.00  0.00    -0.020 A 
ATOM     10  C   UNL     1      -5.829  -0.749   0.857  0.00  0.00    +0.006 A 
ATOM     11  C   UNL     1      -7.111  -0.364   1.201  0.00  0.00    +0.004 A 
ATOM     12  C   UNL     1      -8.131  -0.451   0.272  0.00  0.00    -0.050 A 
ATOM     13  C   UNL     1      -7.869  -0.921  -1.001  0.00  0.00    +0.007 A 
ATOM     14  C   UNL     1      -6.585  -1.301  -1.346  0.00  0.00    -0.045 A 
ATOM     15  C   UNL     1      -6.298  -1.809  -2.736  0.00  0.00    +0.044 C 
ATOM     16  C   UNL     1      -9.529  -0.032   0.647  0.00  0.00    +0.044 C 
ENDBRANCH   4   9
BRANCH   1  18
ATOM     17  C   UNL     1      -0.954   1.747   0.868  0.00  0.00    +0.025 C 
ATOM     18  C   UNL     1      -0.608   0.451   0.131  0.00  0.00    +0.111 C 
ENDBRANCH   1  18
BRANCH   3  19
ATOM     19  C   UNL     1      -3.860  -2.889   1.412  0.00  0.00    +0.339 C 
ATOM     20  O   UNL     1      -3.280  -3.039   2.472  0.00  0.00    -0.245 OA
BRANCH  19  21
ATOM     21  O   UNL     1      -4.937  -3.648   1.120  0.00  0.00    -0.462 OA
BRANCH  21  22
ATOM     22  C   UNL     1      -5.408  -4.528   2.143  0.00  0.00    +0.229 C 
ATOM     23  C   UNL     1      -6.547  -5.388   1.591  0.00  0.00    +0.048 C 
ENDBRANCH  21  22
ENDBRANCH  19  21
ENDBRANCH   3  19
BRANCH   2  24
ATOM     24  C   UNL     1      -1.489  -1.461   1.975  0.00  0.00    -0.026 C 
BRANCH  24  25
ATOM     25  N   UNL     1      -0.670  -2.670   1.810  0.00  0.00    +0.384 N 
ATOM     26  C   UNL     1      -0.129  -3.041   3.116  0.00  0.00    -0.077 C 
ATOM     27  C   UNL     1       0.071  -4.540   3.166  0.00  0.00    +0.000 C 
ATOM     28  C   UNL     1       1.516  -4.878   2.753  0.00  0.00    +0.106 C 
ATOM     29  N   UNL     1       1.960  -4.027   1.630  0.00  0.00    -0.303 N 
ATOM     30  C   UNL     1       1.098  -3.708   0.510  0.00  0.00    +0.089 C 
ATOM     31  C   UNL     1       0.298  -2.421   0.813  0.00  0.00    -0.059 C 
ATOM     32  C   UNL     1       3.212  -3.528   1.649  0.00  0.00    +0.218 C 
ATOM     33  O   UNL     1       3.599  -2.826   0.739  0.00  0.00    -0.275 OA
ATOM     34  H   UNL     1      -1.269  -3.417   1.493  0.00  0.00    -0.081 HD
BRANCH  32  35
ATOM     35  C   UNL     1       4.130  -3.841   2.802  0.00  0.00    +0.069 C 
ATOM     36  C   UNL     1       4.334  -5.355   2.894  0.00  0.00    +0.017 C 
ATOM     37  C   UNL     1       5.481  -3.158   2.578  0.00  0.00    +0.017 C 
ENDBRANCH  32  35
ENDBRANCH  24  25
ENDBRANCH   2  24
TORSDOF 8
