REMARK  Name = ZINC09970564
REMARK  8 active torsions:
REMARK  status: ('A' for Active; 'I' for Inactive)
REMARK    1  A    between atoms: C_1  and  C_2
REMARK    2  A    between atoms: C_5  and  C_8
REMARK    3  A    between atoms: C_11  and  C_13
REMARK    4  A    between atoms: C_13  and  C_14
REMARK    5  A    between atoms: C_14  and  C_15
REMARK    6  A    between atoms: N_17  and  C_18
REMARK    7  A    between atoms: C_21  and  S_24
REMARK    8  A    between atoms: S_24  and  N_27
REMARK                            x       y       z     vdW  Elec       q    Type
REMARK                         _______ _______ _______ _____ _____    ______ ____
ROOT
ATOM      1  C   UNL     1      -2.899   3.352   1.477  0.00  0.00    +0.218 C 
ATOM      2  O   UNL     1      -3.396   3.712   0.431  0.00  0.00    -0.275 OA
ATOM      3  N   UNL     1      -3.447   3.730   2.649  0.00  0.00    -0.285 N 
ATOM      4  H   UNL     1      -3.090   3.388   3.484  0.00  0.00    +0.155 HD
ENDROOT
BRANCH   3   5
ATOM      5  C   UNL     1      -4.531   4.614   2.662  0.00  0.00    +0.033 A 
ATOM      6  C   UNL     1      -4.658   5.544   3.685  0.00  0.00    +0.025 A 
ATOM      7  C   UNL     1      -5.726   6.420   3.691  0.00  0.00    +0.030 A 
ATOM      8  C   UNL     1      -6.674   6.364   2.686  0.00  0.00    +0.105 A 
ATOM      9  C   UNL     1      -6.553   5.435   1.669  0.00  0.00    +0.030 A 
ATOM     10  C   UNL     1      -5.484   4.561   1.654  0.00  0.00    +0.025 A 
BRANCH   8  11
ATOM     11  S   UNL     1      -8.039   7.478   2.701  0.00  0.00    +0.056 S 
ATOM     12  O   UNL     1      -7.632   8.609   3.460  0.00  0.00    -0.153 OA
ATOM     13  O   UNL     1      -8.491   7.585   1.359  0.00  0.00    -0.153 OA
BRANCH  11  14
ATOM     14  N   UNL     1      -9.257   6.749   3.554  0.00  0.00    -0.204 NA
ATOM     15  H   UNL     1      -9.893   7.289   4.049  0.00  0.00    +0.144 HD
ATOM     16  H   UNL     1      -9.334   5.782   3.559  0.00  0.00    +0.144 HD
ENDBRANCH  11  14
ENDBRANCH   8  11
ENDBRANCH   3   5
BRANCH   1  17
ATOM     17  C   UNL     1      -1.667   2.483   1.467  0.00  0.00    +0.104 C 
BRANCH  17  18
ATOM     18  C   UNL     1      -1.254   2.203   0.021  0.00  0.00    +0.083 C 
BRANCH  18  22
ATOM     19  C   UNL     1       2.086   0.720  -0.010  0.00  0.00    +0.135 A 
ATOM     20  C   UNL     1       1.339  -0.416  -0.015  0.00  0.00    +0.050 A 
ATOM     21  C   UNL     1      -0.012  -0.014  -0.003  0.00  0.00    +0.045 A 
ATOM     22  C   UNL     1      -0.022   1.334   0.010  0.00  0.00    +0.106 A 
ATOM     23  O   UNL     1       1.246   1.774   0.005  0.00  0.00    -0.460 OA
BRANCH  19  28
ATOM     24  C   UNL     1       7.834   0.983  -0.046  0.00  0.00    +0.044 C 
ATOM     25  C   UNL     1       6.328   0.914  -0.037  0.00  0.00    -0.050 A 
ATOM     26  C   UNL     1       5.586   2.081  -0.021  0.00  0.00    +0.004 A 
ATOM     27  C   UNL     1       4.207   2.025  -0.012  0.00  0.00    +0.012 A 
ATOM     28  C   UNL     1       3.562   0.788  -0.019  0.00  0.00    +0.017 A 
ATOM     29  C   UNL     1       4.317  -0.386  -0.029  0.00  0.00    +0.012 A 
ATOM     30  C   UNL     1       5.695  -0.316  -0.043  0.00  0.00    +0.004 A 
ENDBRANCH  19  28
ENDBRANCH  18  22
ENDBRANCH  17  18
ENDBRANCH   1  17
TORSDOF 7
