REMARK  Name = ZINC04406886
REMARK  6 active torsions:
REMARK  status: ('A' for Active; 'I' for Inactive)
REMARK    1  A    between atoms: C_1  and  C_2
REMARK    2  A    between atoms: C_3  and  C_26
REMARK    3  A    between atoms: C_11  and  C_13
REMARK    4  A    between atoms: C_13  and  C_14
REMARK    5  A    between atoms: C_13  and  S_15
REMARK    6  A    between atoms: S_15  and  C_16
REMARK                            x       y       z     vdW  Elec       q    Type
REMARK                         _______ _______ _______ _____ _____    ______ ____
ROOT
ATOM      1  C   UNL     1       0.090  -3.432   4.547  0.00  0.00    +0.117 C 
ATOM      2  C   UNL     1       1.535  -3.832   4.850  0.00  0.00    +0.027 C 
ENDROOT
BRANCH   1  13
ATOM      3  C   UNL     1      -0.018   1.503   0.010  0.00  0.00    +0.045 C 
ATOM      4  C   UNL     1       0.002  -0.004   0.002  0.00  0.00    -0.026 A 
ATOM      5  C   UNL     1       0.006  -0.677  -1.160  0.00  0.00    -0.008 A 
ATOM      6  S   UNL     1       0.032  -2.385  -0.648  0.00  0.00    -0.073 S 
ATOM      7  C   UNL     1       0.037  -2.144   1.110  0.00  0.00    +0.116 A 
ATOM      8  C   UNL     1       0.024  -0.745   1.250  0.00  0.00    +0.075 A 
ATOM      9  C   UNL     1       0.029  -0.257   2.597  0.00  0.00    +0.260 A 
ATOM     10  O   UNL     1       0.014   0.942   2.821  0.00  0.00    -0.267 OA
ATOM     11  N   UNL     1       0.051  -1.142   3.611  0.00  0.00    -0.309 N 
ATOM     12  H   UNL     1       0.054  -0.817   4.525  0.00  0.00    +0.170 HD
ATOM     13  C   UNL     1       0.067  -2.480   3.380  0.00  0.00    +0.124 A 
ATOM     14  N   UNL     1       0.053  -2.956   2.163  0.00  0.00    -0.225 NA
ATOM     15  C   UNL     1      -0.009  -0.122  -2.561  0.00  0.00    +0.052 C 
ENDBRANCH   1  13
BRANCH   1  16
ATOM     16  S   UNL     1      -0.875  -4.913   4.139  0.00  0.00    -0.077 S 
BRANCH  16  17
ATOM     17  C   UNL     1      -0.876  -5.847   5.633  0.00  0.00    +0.168 A 
ATOM     18  N   UNL     1      -0.293  -5.482   6.749  0.00  0.00    -0.222 NA
ATOM     19  C   UNL     1      -0.491  -6.433   7.699  0.00  0.00    +0.091 A 
ATOM     20  C   UNL     1      -0.099  -6.552   9.035  0.00  0.00    +0.050 A 
ATOM     21  C   UNL     1      -0.463  -7.666   9.759  0.00  0.00    +0.043 A 
ATOM     22  C   UNL     1      -1.217  -8.672   9.171  0.00  0.00    +0.022 A 
ATOM     23  C   UNL     1      -1.612  -8.569   7.853  0.00  0.00    +0.029 A 
ATOM     24  C   UNL     1      -1.254  -7.455   7.110  0.00  0.00    +0.067 A 
ATOM     25  N   UNL     1      -1.489  -7.056   5.803  0.00  0.00    -0.333 N 
ATOM     26 CL   UNL     1       0.025  -7.813  11.418  0.00  0.00    -0.083 Cl
ATOM     27  H   UNL     1      -1.992  -7.545   5.134  0.00  0.00    +0.168 HD
ENDBRANCH  16  17
ENDBRANCH   1  16
TORSDOF 3
