REMARK  Name = ZINC58411999
REMARK  7 active torsions:
REMARK  status: ('A' for Active; 'I' for Inactive)
REMARK    1  A    between atoms: C_4  and  O_10
REMARK    2  A    between atoms: C_5  and  C_7
REMARK    3  A    between atoms: O_10  and  C_11
REMARK    4  A    between atoms: C_11  and  C_12
REMARK    5  A    between atoms: N_14  and  C_15
REMARK    6  A    between atoms: C_18  and  O_21
REMARK    7  A    between atoms: O_21  and  C_22
REMARK                            x       y       z     vdW  Elec       q    Type
REMARK                         _______ _______ _______ _____ _____    ______ ____
ROOT
ATOM      1  C   UNL     1       6.193  -0.318   0.535  0.00  0.00    +0.255 C 
ATOM      2  O   UNL     1       6.085  -1.378   1.115  0.00  0.00    -0.272 OA
ATOM      3  N   UNL     1       7.338  -0.015  -0.108  0.00  0.00    -0.283 N 
ATOM      4  H   UNL     1       7.396   0.794  -0.639  0.00  0.00    +0.155 HD
ENDROOT
BRANCH   3   5
ATOM      5  C   UNL     1       8.444  -0.869  -0.009  0.00  0.00    +0.034 A 
ATOM      6  C   UNL     1       9.728  -0.342   0.028  0.00  0.00    +0.027 A 
ATOM      7  C   UNL     1      10.817  -1.184   0.126  0.00  0.00    +0.048 A 
ATOM      8  C   UNL     1      10.630  -2.558   0.186  0.00  0.00    +0.129 A 
ATOM      9  C   UNL     1       9.347  -3.085   0.149  0.00  0.00    +0.048 A 
ATOM     10  C   UNL     1       8.256  -2.244   0.057  0.00  0.00    +0.027 A 
BRANCH   8  11
ATOM     11  O   UNL     1      11.703  -3.387   0.282  0.00  0.00    -0.455 OA
BRANCH  11  12
ATOM     12  C   UNL     1      12.308  -3.510   1.492  0.00  0.00    +0.147 A 
ATOM     13  C   UNL     1      11.869  -2.754   2.569  0.00  0.00    +0.048 A 
ATOM     14  C   UNL     1      12.486  -2.881   3.799  0.00  0.00    +0.004 A 
ATOM     15  C   UNL     1      13.541  -3.760   3.957  0.00  0.00    +0.002 A 
ATOM     16  C   UNL     1      13.982  -4.515   2.886  0.00  0.00    +0.024 A 
ATOM     17  C   UNL     1      13.364  -4.397   1.655  0.00  0.00    +0.083 A 
ATOM     18 CL   UNL     1      13.912  -5.351   0.312  0.00  0.00    -0.080 Cl
ENDBRANCH  11  12
ENDBRANCH   8  11
ENDBRANCH   3   5
BRANCH   1  19
ATOM     19  C   UNL     1       5.046   0.660   0.533  0.00  0.00    +0.324 C 
BRANCH  19  20
ATOM     20  O   UNL     1       3.954   0.115   1.276  0.00  0.00    -0.482 OA
BRANCH  20  24
ATOM     21  C   UNL     1       0.544   2.432   1.569  0.00  0.00    +0.001 A 
ATOM     22  C   UNL     1       1.645   2.894   0.866  0.00  0.00    +0.004 A 
ATOM     23  C   UNL     1       2.785   2.122   0.767  0.00  0.00    +0.046 A 
ATOM     24  C   UNL     1       2.835   0.875   1.373  0.00  0.00    +0.133 A 
ATOM     25  C   UNL     1       1.724   0.405   2.085  0.00  0.00    +0.078 A 
ATOM     26  C   UNL     1       0.576   1.196   2.177  0.00  0.00    +0.017 A 
BRANCH  25  27
ATOM     27  C   UNL     1       1.765  -0.920   2.734  0.00  0.00    +0.245 C 
ATOM     28  O   UNL     1       2.765  -1.607   2.651  0.00  0.00    -0.270 OA
ATOM     29  N   UNL     1       0.694  -1.369   3.418  0.00  0.00    -0.325 N 
ATOM     30  H   UNL     1      -0.104  -0.821   3.484  0.00  0.00    +0.145 HD
ATOM     31  H   UNL     1       0.721  -2.240   3.844  0.00  0.00    +0.145 HD
ENDBRANCH  25  27
ENDBRANCH  20  24
ENDBRANCH  19  20
ENDBRANCH   1  19
TORSDOF 7
