REMARK  Name = ZINC13064606
REMARK  11 active torsions:
REMARK  status: ('A' for Active; 'I' for Inactive)
REMARK    1  A    between atoms: C_1  and  C_2
REMARK    2  A    between atoms: C_2  and  C_3
REMARK    3  A    between atoms: C_3  and  C_5
REMARK    4  A    between atoms: C_3  and  N_75
REMARK    5  A    between atoms: N_9  and  C_10
REMARK    6  A    between atoms: C_16  and  C_17
REMARK    7  A    between atoms: C_16  and  N_75
REMARK    8  A    between atoms: C_26  and  C_27
REMARK    9  A    between atoms: C_26  and  N_75
REMARK   10  A    between atoms: C_31  and  C_40
REMARK   11  A    between atoms: C_32  and  C_39
REMARK                            x       y       z     vdW  Elec       q    Type
REMARK                         _______ _______ _______ _____ _____    ______ ____
ROOT
ATOM      1  N   UNL     1      -6.128   3.457  -0.964  0.00  0.00    +0.392 N 
ATOM      2  H   UNL     1      -6.280   2.615  -1.532  0.00  0.00    -0.080 HD
ENDROOT
BRANCH   1   3
ATOM      3  C   UNL     1      -7.434   3.953  -0.480  0.00  0.00    +0.003 C 
BRANCH   3   4
ATOM      4  C   UNL     1      -7.245   5.137   0.433  0.00  0.00    +0.138 A 
ATOM      5  N   UNL     1      -6.247   5.336   1.259  0.00  0.00    -0.115 NA
ATOM      6  N   UNL     1      -6.447   6.458   1.860  0.00  0.00    -0.023 NA
ATOM      7  N   UNL     1      -7.545   6.980   1.438  0.00  0.00    -0.044 NA
ATOM      8  N   UNL     1      -8.064   6.198   0.553  0.00  0.00    -0.228 N 
BRANCH   8   9
ATOM      9  C   UNL     1      -9.313   6.421  -0.180  0.00  0.00    +0.111 C 
ATOM     10  C   UNL     1      -9.280   7.803  -0.834  0.00  0.00    +0.027 C 
ATOM     11  C   UNL     1     -10.584   8.036  -1.600  0.00  0.00    +0.002 C 
ATOM     12  C   UNL     1     -11.765   7.958  -0.631  0.00  0.00    +0.000 C 
ATOM     13  C   UNL     1     -11.798   6.576   0.023  0.00  0.00    +0.002 C 
ATOM     14  C   UNL     1     -10.494   6.343   0.789  0.00  0.00    +0.027 C 
ENDBRANCH   8   9
ENDBRANCH   3   4
BRANCH   3  16
ATOM     15  C   UNL     1      -8.405   1.658  -0.667  0.00  0.00    +0.002 C 
ATOM     16  C   UNL     1      -8.140   2.829   0.281  0.00  0.00    -0.011 C 
ENDBRANCH   3  16
ENDBRANCH   1   3
BRANCH   1  17
ATOM     17  C   UNL     1      -5.474   4.487  -1.797  0.00  0.00    -0.041 C 
BRANCH  17  18
ATOM     18  C   UNL     1      -6.171   4.544  -3.132  0.00  0.00    -0.060 A 
ATOM     19  C   UNL     1      -5.831   3.647  -4.127  0.00  0.00    +0.005 A 
ATOM     20  C   UNL     1      -6.472   3.692  -5.351  0.00  0.00    +0.050 A 
ATOM     21  C   UNL     1      -7.450   4.645  -5.587  0.00  0.00    +0.166 A 
ATOM     22  C   UNL     1      -7.789   5.552  -4.586  0.00  0.00    +0.166 A 
ATOM     23  C   UNL     1      -7.146   5.497  -3.360  0.00  0.00    +0.051 A 
ATOM     24  O   UNL     1      -8.767   6.378  -5.059  0.00  0.00    -0.453 OA
ATOM     25  C   UNL     1      -8.735   6.232  -6.491  0.00  0.00    +0.466 C 
ATOM     26  O   UNL     1      -8.215   4.903  -6.688  0.00  0.00    -0.453 OA
ENDBRANCH  17  18
ENDBRANCH   1  17
BRANCH   1  27
ATOM     27  C   UNL     1      -5.263   3.111   0.184  0.00  0.00    -0.036 C 
BRANCH  27  28
ATOM     28  C   UNL     1      -4.126   2.254  -0.308  0.00  0.00    +0.001 A 
ATOM     29  C   UNL     1      -2.929   2.822  -0.601  0.00  0.00    +0.017 A 
ATOM     30  C   UNL     1      -1.846   1.962  -1.081  0.00  0.00    -0.001 A 
ATOM     31  C   UNL     1      -0.596   2.492  -1.415  0.00  0.00    +0.013 A 
ATOM     32  C   UNL     1       0.394   1.663  -1.861  0.00  0.00    -0.047 A 
ATOM     33  C   UNL     1       0.170   0.298  -1.986  0.00  0.00    -0.046 A 
ATOM     34  C   UNL     1      -1.054  -0.246  -1.663  0.00  0.00    +0.030 A 
ATOM     35  C   UNL     1      -2.079   0.580  -1.212  0.00  0.00    +0.049 A 
ATOM     36  N   UNL     1      -3.316   0.063  -0.888  0.00  0.00    -0.322 N 
ATOM     37  H   UNL     1      -3.473  -0.890  -0.975  0.00  0.00    +0.169 HD
ATOM     38  C   UNL     1      -4.306   0.862  -0.452  0.00  0.00    +0.251 A 
ATOM     39  O   UNL     1      -5.386   0.370  -0.174  0.00  0.00    -0.268 OA
ATOM     40  C   UNL     1       1.277  -0.597  -2.480  0.00  0.00    +0.044 C 
ATOM     41  C   UNL     1       1.742   2.234  -2.220  0.00  0.00    +0.044 C 
ENDBRANCH  27  28
ENDBRANCH   1  27
TORSDOF 8
