REMARK  Name = ZINC07612068
REMARK  10 active torsions:
REMARK  status: ('A' for Active; 'I' for Inactive)
REMARK    1  A    between atoms: C_1  and  C_2
REMARK    2  A    between atoms: C_2  and  N_3
REMARK    3  A    between atoms: N_5  and  N_19
REMARK    4  A    between atoms: C_6  and  C_9
REMARK    5  A    between atoms: C_12  and  O_18
REMARK    6  A    between atoms: C_13  and  C_15
REMARK    7  A    between atoms: C_20  and  C_21
REMARK    8  A    between atoms: C_24  and  O_29
REMARK    9  A    between atoms: C_25  and  O_27
REMARK   10  A    between atoms: O_27  and  C_28
REMARK                            x       y       z     vdW  Elec       q    Type
REMARK                         _______ _______ _______ _____ _____    ______ ____
ROOT
ATOM      1  N   UNL     1       0.715  -7.146   2.077  0.00  0.00    -0.260 NA
ATOM      2  C   UNL     1       0.391  -6.316   1.118  0.00  0.00    +0.190 A 
ATOM      3  N   UNL     1       0.179  -4.953   1.178  0.00  0.00    -0.208 N 
ATOM      4  C   UNL     1      -0.160  -4.293   0.027  0.00  0.00    +0.082 A 
ATOM      5  C   UNL     1      -0.267  -4.979  -1.129  0.00  0.00    +0.077 A 
ATOM      6  S   UNL     1       0.113  -6.646  -0.615  0.00  0.00    -0.056 S 
ENDROOT
BRANCH   4   7
ATOM      7  C   UNL     1      -0.401  -2.834   0.050  0.00  0.00    +0.002 A 
ATOM      8  C   UNL     1      -0.913  -2.228   1.201  0.00  0.00    +0.013 A 
ATOM      9  C   UNL     1      -1.139  -0.869   1.228  0.00  0.00    +0.047 A 
ATOM     10  C   UNL     1      -0.861  -0.091   0.112  0.00  0.00    +0.129 A 
ATOM     11  C   UNL     1      -0.353  -0.690  -1.050  0.00  0.00    +0.078 A 
ATOM     12  C   UNL     1      -0.118  -2.064  -1.075  0.00  0.00    +0.026 A 
BRANCH  11  13
ATOM     13  C   UNL     1      -0.062   0.133  -2.240  0.00  0.00    +0.245 C 
ATOM     14  O   UNL     1      -0.263   1.332  -2.214  0.00  0.00    -0.270 OA
ATOM     15  N   UNL     1       0.427  -0.444  -3.355  0.00  0.00    -0.325 N 
ATOM     16  H   UNL     1       0.588  -1.401  -3.376  0.00  0.00    +0.145 HD
ATOM     17  H   UNL     1       0.618   0.097  -4.137  0.00  0.00    +0.145 HD
ENDBRANCH  11  13
BRANCH  10  18
ATOM     18  O   UNL     1      -1.087   1.246   0.144  0.00  0.00    -0.506 OA
ATOM     19  H   UNL     1      -0.330   1.765   0.449  0.00  0.00    +0.292 HD
ENDBRANCH  10  18
ENDBRANCH   4   7
BRANCH   1  21
ATOM     20  C   UNL     1       2.327  -8.984   2.142  0.00  0.00    +0.029 C 
ATOM     21  C   UNL     1       0.899  -8.569   1.783  0.00  0.00    +0.141 C 
ENDBRANCH   1  21
BRANCH   3  22
ATOM     22  N   UNL     1       0.302  -4.261   2.390  0.00  0.00    -0.172 NA
ATOM     23  C   UNL     1       1.053  -4.738   3.337  0.00  0.00    +0.141 C 
BRANCH  23  24
ATOM     24  C   UNL     1       1.088  -4.077   4.653  0.00  0.00    -0.002 A 
ATOM     25  C   UNL     1       0.314  -2.937   4.886  0.00  0.00    +0.013 A 
ATOM     26  C   UNL     1       0.348  -2.320   6.118  0.00  0.00    +0.050 A 
ATOM     27  C   UNL     1       1.150  -2.828   7.130  0.00  0.00    +0.158 A 
ATOM     28  C   UNL     1       1.924  -3.964   6.906  0.00  0.00    +0.162 A 
ATOM     29  C   UNL     1       1.891  -4.591   5.675  0.00  0.00    +0.059 A 
BRANCH  28  30
ATOM     30  O   UNL     1       2.708  -4.460   7.900  0.00  0.00    -0.491 OA
ATOM     31  C   UNL     1       3.475  -5.628   7.601  0.00  0.00    +0.277 C 
ENDBRANCH  28  30
BRANCH  27  32
ATOM     32  O   UNL     1       1.180  -2.215   8.343  0.00  0.00    -0.503 OA
ATOM     33  H   UNL     1       0.521  -2.547   8.968  0.00  0.00    +0.292 HD
ENDBRANCH  27  32
ENDBRANCH  23  24
ENDBRANCH   3  22
TORSDOF 8
