REMARK  Name = ZINC40232039
REMARK  4 active torsions:
REMARK  status: ('A' for Active; 'I' for Inactive)
REMARK    1  A    between atoms: C_3  and  N_11
REMARK    2  A    between atoms: C_4  and  N_8
REMARK    3  A    between atoms: C_6  and  O_7
REMARK    4  A    between atoms: C_12  and  C_14
REMARK                            x       y       z     vdW  Elec       q    Type
REMARK                         _______ _______ _______ _____ _____    ______ ____
ROOT
ATOM      1  C   UNL     1      -0.147   1.157  -0.136  0.00  0.00    +0.047 A 
ATOM      2  C   UNL     1       1.010   1.910  -0.110  0.00  0.00    +0.029 A 
ATOM      3  C   UNL     1       2.247   1.281  -0.060  0.00  0.00    +0.064 A 
ATOM      4  C   UNL     1       2.318  -0.106  -0.036  0.00  0.00    +0.151 A 
ATOM      5  C   UNL     1       1.161  -0.858  -0.062  0.00  0.00    +0.080 A 
ATOM      6  C   UNL     1      -0.075  -0.228  -0.112  0.00  0.00    +0.119 A 
ENDROOT
BRANCH   3   7
ATOM      7  N   UNL     1       3.421   2.043  -0.034  0.00  0.00    -0.279 N 
ATOM      8  C   UNL     1       3.395   3.304   0.443  0.00  0.00    +0.255 C 
ATOM      9  O   UNL     1       2.377   3.744   0.945  0.00  0.00    -0.269 OA
ATOM     10  H   UNL     1       4.252   1.665  -0.359  0.00  0.00    +0.155 HD
BRANCH   8  11
ATOM     11  C   UNL     1       4.592   4.144   0.358  0.00  0.00    +0.075 A 
ATOM     12  C   UNL     1       4.776   5.449   0.788  0.00  0.00    +0.022 A 
ATOM     13  C   UNL     1       6.024   5.979   0.569  0.00  0.00    +0.024 A 
ATOM     14  C   UNL     1       6.968   5.215  -0.037  0.00  0.00    +0.056 A 
ATOM     15  S   UNL     1       6.194   3.751  -0.320  0.00  0.00    -0.077 S 
ATOM     16 BR   UNL     1       8.751   5.686  -0.458  0.00  0.00    -0.043 Br
ENDBRANCH   8  11
ENDBRANCH   3   7
BRANCH   4  17
ATOM     17  N   UNL     1       3.636  -0.778   0.018  0.00  0.00    +0.058 N 
ATOM     18  O   UNL     1       3.704  -1.983  -0.058  0.00  0.00    -0.126 OA
ATOM     19  O   UNL     1       4.645  -0.123   0.137  0.00  0.00    -0.126 OA
ENDBRANCH   4  17
BRANCH   6  20
ATOM     20  O   UNL     1      -1.215  -0.969  -0.138  0.00  0.00    -0.507 OA
ATOM     21  H   UNL     1      -1.516  -1.197  -1.028  0.00  0.00    +0.292 HD
ENDBRANCH   6  20
TORSDOF 4
