REMARK  Name = ZINC09723366
REMARK  9 active torsions:
REMARK  status: ('A' for Active; 'I' for Inactive)
REMARK    1  A    between atoms: C_1  and  O_2
REMARK    2  A    between atoms: O_2  and  C_3
REMARK    3  A    between atoms: C_3  and  C_4
REMARK    4  A    between atoms: C_4  and  N_5
REMARK    5  A    between atoms: C_9  and  S_30
REMARK    6  A    between atoms: N_14  and  C_15
REMARK    7  A    between atoms: C_15  and  C_17
REMARK    8  A    between atoms: C_20  and  N_23
REMARK    9  A    between atoms: S_30  and  N_33
REMARK                            x       y       z     vdW  Elec       q    Type
REMARK                         _______ _______ _______ _____ _____    ______ ____
ROOT
ATOM      1  N   UNL     1      -6.116   3.406  -0.057  0.00  0.00    -0.319 N 
ATOM      2  C   UNL     1      -7.170   4.269  -0.295  0.00  0.00    +0.058 A 
ATOM      3  C   UNL     1      -8.506   3.952  -0.586  0.00  0.00    +0.029 A 
ATOM      4  C   UNL     1      -9.434   4.944  -0.798  0.00  0.00    +0.030 A 
ATOM      5  C   UNL     1      -9.082   6.282  -0.732  0.00  0.00    +0.106 A 
ATOM      6  C   UNL     1      -7.772   6.623  -0.447  0.00  0.00    +0.045 A 
ATOM      7  C   UNL     1      -6.843   5.631  -0.235  0.00  0.00    +0.041 A 
ATOM      8  S   UNL     1      -5.111   5.619   0.154  0.00  0.00    -0.052 S 
ATOM      9  C   UNL     1      -4.878   3.901   0.212  0.00  0.00    +0.167 A 
ATOM     10  N   UNL     1      -3.759   3.230   0.464  0.00  0.00    -0.152 NA
ENDROOT
BRANCH   5  11
ATOM     11  S   UNL     1     -10.290   7.535  -1.007  0.00  0.00    +0.056 S 
ATOM     12  O   UNL     1     -11.553   6.953  -0.716  0.00  0.00    -0.153 OA
ATOM     13  O   UNL     1      -9.820   8.703  -0.349  0.00  0.00    -0.153 OA
BRANCH  11  14
ATOM     14  N   UNL     1     -10.286   7.871  -2.629  0.00  0.00    -0.204 NA
ATOM     15  H   UNL     1     -11.099   8.171  -3.064  0.00  0.00    +0.144 HD
ATOM     16  H   UNL     1      -9.470   7.769  -3.143  0.00  0.00    +0.144 HD
ENDBRANCH  11  14
ENDBRANCH   5  11
BRANCH  10  17
ATOM     17  C   UNL     1      -2.623   3.892   0.708  0.00  0.00    +0.269 C 
ATOM     18  O   UNL     1      -2.613   5.111   0.700  0.00  0.00    -0.268 OA
BRANCH  17  19
ATOM     19  C   UNL     1      -1.377   3.144   0.988  0.00  0.00    +0.039 A 
ATOM     20  C   UNL     1      -1.385   1.748   0.993  0.00  0.00    +0.015 A 
ATOM     21  C   UNL     1      -0.225   1.055   1.260  0.00  0.00    +0.025 A 
ATOM     22  C   UNL     1       0.956   1.744   1.514  0.00  0.00    +0.044 A 
ATOM     23  C   UNL     1       0.968   3.135   1.505  0.00  0.00    +0.025 A 
ATOM     24  C   UNL     1      -0.190   3.833   1.244  0.00  0.00    +0.015 A 
BRANCH  22  25
ATOM     25  N   UNL     1       2.133   1.038   1.780  0.00  0.00    -0.210 N 
ATOM     26  C   UNL     1       2.307   0.311   2.891  0.00  0.00    +0.227 C 
ATOM     27  O   UNL     1       1.492   0.179   3.778  0.00  0.00    -0.275 OA
ATOM     28  C   UNL     1       3.681  -0.321   2.862  0.00  0.00    +0.106 C 
ATOM     29  C   UNL     1       4.281   0.179   1.532  0.00  0.00    +0.106 C 
ATOM     30  C   UNL     1       3.181   1.037   0.947  0.00  0.00    +0.227 C 
ATOM     31  O   UNL     1       3.239   1.630  -0.109  0.00  0.00    -0.275 OA
ENDBRANCH  22  25
ENDBRANCH  17  19
ENDBRANCH  10  17
BRANCH   1  32
ATOM     32  C   UNL     1      -6.333   1.958  -0.093  0.00  0.00    +0.152 C 
BRANCH  32  33
ATOM     33  C   UNL     1      -5.110   1.274  -0.707  0.00  0.00    +0.181 C 
BRANCH  33  35
ATOM     34  C   UNL     1      -4.294  -0.855  -1.446  0.00  0.00    +0.194 C 
ATOM     35  O   UNL     1      -5.378  -0.119  -0.876  0.00  0.00    -0.381 OA
ENDBRANCH  33  35
ENDBRANCH  32  33
ENDBRANCH   1  32
TORSDOF 8
