REMARK  Name = ZINC49735098
REMARK  5 active torsions:
REMARK  status: ('A' for Active; 'I' for Inactive)
REMARK    1  A    between atoms: C_1  and  C_2
REMARK    2  A    between atoms: C_2  and  O_3
REMARK    3  A    between atoms: O_3  and  C_4
REMARK    4  A    between atoms: C_9  and  C_10
REMARK    5  A    between atoms: N_28  and  C_31
REMARK                            x       y       z     vdW  Elec       q    Type
REMARK                         _______ _______ _______ _____ _____    ______ ____
ROOT
ATOM      1  C   UNL     1      -3.854  -1.427   0.136  0.00  0.00    +0.090 C 
ATOM      2  C   UNL     1      -4.257  -1.045   1.531  0.00  0.00    +0.071 C 
ATOM      3  C   UNL     1      -5.661  -0.555   1.600  0.00  0.00    +0.027 C 
ATOM      4  N   UNL     1      -6.317   0.179   0.772  0.00  0.00    -0.316 N 
ATOM      5  C   UNL     1      -6.265   0.649  -0.512  0.00  0.00    +0.045 A 
ATOM      6  C   UNL     1      -7.469   1.204  -0.981  0.00  0.00    +0.024 A 
ATOM      7  C   UNL     1      -7.581   1.724  -2.248  0.00  0.00    +0.002 A 
ATOM      8  C   UNL     1      -6.486   1.707  -3.093  0.00  0.00    +0.001 A 
ATOM      9  C   UNL     1      -5.302   1.165  -2.653  0.00  0.00    +0.016 A 
ATOM     10  C   UNL     1      -5.172   0.627  -1.365  0.00  0.00    +0.030 A 
ATOM     11  S   UNL     1      -3.606  -0.031  -0.951  0.00  0.00    -0.115 S 
ATOM     12  C   UNL     1      -6.366  -0.949   2.723  0.00  0.00    +0.116 C 
ATOM     13  C   UNL     1      -5.677  -1.422   3.937  0.00  0.00    +0.256 C 
ATOM     14  N   UNL     1      -6.429  -1.790   4.995  0.00  0.00    -0.263 N 
ATOM     15  H   UNL     1      -5.992  -2.104   5.801  0.00  0.00    +0.157 HD
ATOM     16  C   UNL     1      -7.768  -1.732   4.956  0.00  0.00    +0.146 C 
ATOM     17  S   UNL     1      -8.641  -2.220   6.346  0.00  0.00    -0.018 S 
ATOM     18  N   UNL     1      -8.460  -1.312   3.887  0.00  0.00    -0.252 N 
ATOM     19  C   UNL     1      -7.839  -0.908   2.760  0.00  0.00    +0.258 C 
ATOM     20  O   UNL     1      -8.477  -0.525   1.798  0.00  0.00    -0.269 OA
ATOM     21  C   UNL     1      -9.923  -1.287   3.947  0.00  0.00    +0.140 C 
ATOM     22  O   UNL     1      -4.463  -1.480   3.984  0.00  0.00    -0.270 OA
ATOM     23  H   UNL     1      -7.120   0.512   1.204  0.00  0.00    +0.152 HD
ENDROOT
BRANCH   1  29
ATOM     24  C   UNL     1      -1.351  -1.558   0.201  0.00  0.00    +0.125 A 
ATOM     25  C   UNL     1      -0.172  -2.286   0.270  0.00  0.00    +0.046 A 
ATOM     26  C   UNL     1      -0.217  -3.665   0.338  0.00  0.00    +0.004 A 
ATOM     27  C   UNL     1      -1.435  -4.319   0.337  0.00  0.00    +0.001 A 
ATOM     28  C   UNL     1      -2.611  -3.596   0.267  0.00  0.00    +0.008 A 
ATOM     29  C   UNL     1      -2.572  -2.216   0.205  0.00  0.00    +0.008 A 
BRANCH  24  30
ATOM     30  O   UNL     1      -1.310  -0.201   0.135  0.00  0.00    -0.492 OA
BRANCH  30  32
ATOM     31  C   UNL     1      -0.172   1.930   0.056  0.00  0.00    +0.048 C 
ATOM     32  C   UNL     1      -0.017   0.410   0.135  0.00  0.00    +0.225 C 
ENDBRANCH  30  32
ENDBRANCH  24  30
ENDBRANCH   1  29
TORSDOF 3
