REMARK  Name = ZINC61374275
REMARK  4 active torsions:
REMARK  status: ('A' for Active; 'I' for Inactive)
REMARK    1  A    between atoms: C_3  and  N_21
REMARK    2  A    between atoms: C_5  and  C_8
REMARK    3  A    between atoms: N_10  and  C_11
REMARK    4  A    between atoms: N_21  and  N_22
REMARK                            x       y       z     vdW  Elec       q    Type
REMARK                         _______ _______ _______ _____ _____    ______ ____
ROOT
ATOM      1  C   UNL     1       1.260  -2.147  -0.021  0.00  0.00    +0.264 C 
ATOM      2  O   UNL     1       0.221  -2.778  -0.015  0.00  0.00    -0.268 OA
ATOM      3  N   UNL     1       2.442  -2.795  -0.036  0.00  0.00    -0.303 N 
ATOM      4  H   UNL     1       3.271  -2.291  -0.042  0.00  0.00    +0.150 HD
ENDROOT
BRANCH   3   5
ATOM      5  C   UNL     1       2.475  -4.259  -0.044  0.00  0.00    +0.104 C 
ATOM      6  C   UNL     1       3.788  -4.739  -0.662  0.00  0.00    +0.027 C 
ATOM      7  C   UNL     1       3.915  -6.257  -0.511  0.00  0.00    +0.007 C 
ATOM      8  C   UNL     1       4.154  -6.587   0.971  0.00  0.00    +0.043 C 
ATOM      9  C   UNL     1       3.160  -5.824   1.787  0.00  0.00    -0.005 A 
ATOM     10  C   UNL     1       2.381  -4.781   1.387  0.00  0.00    -0.017 A 
ATOM     11  C   UNL     1       1.523  -4.238   2.342  0.00  0.00    +0.013 A 
ATOM     12  C   UNL     1       1.492  -4.749   3.594  0.00  0.00    +0.046 A 
ATOM     13  S   UNL     1       2.713  -6.056   3.486  0.00  0.00    -0.101 S 
ENDBRANCH   3   5
BRANCH   1  18
ATOM     14  C   UNL     1      -0.017   1.385   0.010  0.00  0.00    +0.026 A 
ATOM     15  C   UNL     1       1.188   2.063   0.002  0.00  0.00    +0.046 A 
ATOM     16  C   UNL     1       2.380   1.337  -0.013  0.00  0.00    +0.133 A 
ATOM     17  N   UNL     1       2.366   0.017  -0.020  0.00  0.00    -0.225 NA
ATOM     18  C   UNL     1       1.227  -0.667  -0.013  0.00  0.00    +0.146 A 
ATOM     19  C   UNL     1       0.002  -0.004   0.002  0.00  0.00    +0.072 A 
ATOM     20 CL   UNL     1      -1.483  -0.903   0.012  0.00  0.00    -0.081 Cl
BRANCH  16  21
ATOM     21  N   UNL     1       3.595   2.013  -0.022  0.00  0.00    -0.268 N 
ATOM     22  H   UNL     1       3.611   2.982  -0.017  0.00  0.00    +0.167 HD
BRANCH  21  23
ATOM     23  N   UNL     1       4.766   1.310  -0.037  0.00  0.00    -0.255 NA
ATOM     24  H   UNL     1       4.798   0.677  -0.822  0.00  0.00    +0.140 HD
ATOM     25  H   UNL     1       5.561   1.932  -0.042  0.00  0.00    +0.140 HD
ENDBRANCH  21  23
ENDBRANCH  16  21
ENDBRANCH   1  18
TORSDOF 4
