REMARK  Name = ZINC40418948
REMARK  5 active torsions:
REMARK  status: ('A' for Active; 'I' for Inactive)
REMARK    1  A    between atoms: C_1  and  N_2
REMARK    2  A    between atoms: C_3  and  N_20
REMARK    3  A    between atoms: C_4  and  N_11
REMARK    4  A    between atoms: C_15  and  C_18
REMARK    5  A    between atoms: C_18  and  O_19
REMARK                            x       y       z     vdW  Elec       q    Type
REMARK                         _______ _______ _______ _____ _____    ______ ____
ROOT
ATOM      1  C   UNL     1       1.888  -1.589  -2.089  0.00  0.00    +0.155 C 
ATOM      2  N   UNL     1       0.913  -1.462  -1.002  0.00  0.00    -0.284 N 
ATOM      3  C   UNL     1      -0.244  -2.207  -1.031  0.00  0.00    +0.127 A 
ATOM      4  C   UNL     1      -1.148  -2.082  -0.011  0.00  0.00    +0.133 A 
ATOM      5  C   UNL     1      -0.869  -1.192   1.042  0.00  0.00    +0.277 A 
ATOM      6  O   UNL     1      -1.659  -1.064   1.962  0.00  0.00    -0.266 OA
ATOM      7  N   UNL     1       0.277  -0.483   1.028  0.00  0.00    -0.273 N 
ATOM      8  H   UNL     1       0.471   0.130   1.754  0.00  0.00    +0.173 HD
ATOM      9  C   UNL     1       1.157  -0.623   0.021  0.00  0.00    +0.331 A 
ATOM     10  O   UNL     1       2.187   0.024   0.032  0.00  0.00    -0.246 OA
ENDROOT
BRANCH   4  11
ATOM     11  N   UNL     1      -2.345  -2.835  -0.017  0.00  0.00    -0.323 N 
ATOM     12  C   UNL     1      -3.649  -2.167  -0.123  0.00  0.00    +0.105 C 
ATOM     13  C   UNL     1      -4.536  -2.628   1.037  0.00  0.00    +0.019 C 
ATOM     14  C   UNL     1      -4.611  -4.157   1.040  0.00  0.00    +0.009 C 
ATOM     15  C   UNL     1      -3.210  -4.738   1.242  0.00  0.00    +0.032 C 
ATOM     16  C   UNL     1      -2.308  -4.300   0.078  0.00  0.00    +0.111 C 
BRANCH  15  17
ATOM     17  C   UNL     1      -3.291  -6.265   1.278  0.00  0.00    +0.160 C 
BRANCH  17  18
ATOM     18  O   UNL     1      -4.039  -6.675   2.425  0.00  0.00    -0.395 OA
ATOM     19  H   UNL     1      -4.131  -7.634   2.512  0.00  0.00    +0.209 HD
ENDBRANCH  17  18
ENDBRANCH  15  17
ENDBRANCH   4  11
BRANCH   3  20
ATOM     20  N   UNL     1      -0.490  -3.069  -2.075  0.00  0.00    -0.343 N 
ATOM     21  H   UNL     1       0.120  -3.104  -2.829  0.00  0.00    +0.144 HD
ATOM     22  H   UNL     1      -1.273  -3.642  -2.058  0.00  0.00    +0.144 HD
ENDBRANCH   3  20
TORSDOF 4
