REMARK  Name = ZINC31266273
REMARK  4 active torsions:
REMARK  status: ('A' for Active; 'I' for Inactive)
REMARK    1  A    between atoms: C_4  and  N_7
REMARK    2  A    between atoms: N_10  and  C_11
REMARK    3  A    between atoms: C_14  and  N_17
REMARK    4  A    between atoms: C_18  and  C_20
REMARK                            x       y       z     vdW  Elec       q    Type
REMARK                         _______ _______ _______ _____ _____    ______ ____
ROOT
ATOM      1  C   UNL     1       7.088   0.199   0.091  0.00  0.00    +0.035 A 
ATOM      2  C   UNL     1       7.063   1.587   0.131  0.00  0.00    +0.025 A 
ATOM      3  C   UNL     1       8.246   2.299   0.129  0.00  0.00    +0.025 A 
ATOM      4  C   UNL     1       9.460   1.628   0.075  0.00  0.00    +0.034 A 
ATOM      5  C   UNL     1       9.485   0.240   0.029  0.00  0.00    +0.025 A 
ATOM      6  C   UNL     1       8.303  -0.472   0.037  0.00  0.00    +0.025 A 
ENDROOT
BRANCH   1  10
ATOM      7  N   UNL     1       4.709  -2.471   0.617  0.00  0.00    -0.269 N 
ATOM      8  C   UNL     1       5.831  -1.729   0.699  0.00  0.00    +0.308 C 
ATOM      9  O   UNL     1       6.793  -2.148   1.314  0.00  0.00    -0.252 OA
ATOM     10  N   UNL     1       5.888  -0.524   0.099  0.00  0.00    -0.269 N 
ATOM     11  H   UNL     1       3.870  -2.132  -0.009  0.00  0.00    +0.156 HD
ATOM     12  H   UNL     1       4.992  -0.107  -0.385  0.00  0.00    +0.156 HD
BRANCH   7  16
ATOM     13  C   UNL     1       4.415  -6.046   2.735  0.00  0.00    +0.000 A 
ATOM     14  C   UNL     1       3.789  -5.917   1.509  0.00  0.00    +0.002 A 
ATOM     15  C   UNL     1       3.884  -4.733   0.804  0.00  0.00    +0.023 A 
ATOM     16  C   UNL     1       4.610  -3.671   1.329  0.00  0.00    +0.035 A 
ATOM     17  C   UNL     1       5.237  -3.804   2.560  0.00  0.00    +0.023 A 
ATOM     18  C   UNL     1       5.138  -4.990   3.260  0.00  0.00    +0.002 A 
ENDBRANCH   7  16
ENDBRANCH   1  10
BRANCH   4  19
ATOM     19  N   UNL     1      10.660   2.350   0.067  0.00  0.00    -0.285 N 
ATOM     20  C   UNL     1      10.750   3.514   0.740  0.00  0.00    +0.231 C 
ATOM     21  O   UNL     1       9.825   3.889   1.430  0.00  0.00    -0.274 OA
ATOM     22  H   UNL     1      11.529   1.968  -0.488  0.00  0.00    +0.155 HD
BRANCH  20  23
ATOM     23  C   UNL     1      12.000   4.350   0.636  0.00  0.00    +0.142 C 
ATOM     24  C   UNL     1      12.257   5.143   1.938  0.00  0.00    +0.060 C 
ATOM     25  C   UNL     1      11.619   6.510   1.897  0.00  0.00    -0.032 A 
ATOM     26  C   UNL     1      11.307   7.316   2.994  0.00  0.00    +0.005 A 
ATOM     27  C   UNL     1      10.737   8.558   2.826  0.00  0.00    +0.000 A 
ATOM     28  C   UNL     1      10.457   9.044   1.561  0.00  0.00    +0.001 A 
ATOM     29  C   UNL     1      10.750   8.261   0.461  0.00  0.00    +0.015 A 
ATOM     30  C   UNL     1      11.315   7.011   0.634  0.00  0.00    +0.012 A 
ATOM     31  S   UNL     1      11.775   5.750  -0.537  0.00  0.00    -0.112 S 
ENDBRANCH  20  23
ENDBRANCH   4  19
TORSDOF 4
