REMARK  Name = ZINC00898360
REMARK  11 active torsions:
REMARK  status: ('A' for Active; 'I' for Inactive)
REMARK    1  A    between atoms: C_1  and  C_2
REMARK    2  A    between atoms: C_2  and  C_3
REMARK    3  A    between atoms: C_6  and  N_9
REMARK    4  A    between atoms: N_9  and  C_10
REMARK    5  A    between atoms: C_10  and  C_12
REMARK    6  A    between atoms: C_10  and  C_13
REMARK    7  A    between atoms: N_15  and  C_16
REMARK    8  A    between atoms: C_22  and  C_24
REMARK    9  A    between atoms: C_25  and  N_37
REMARK   10  A    between atoms: C_26  and  C_29
REMARK   11  A    between atoms: N_31  and  C_32
REMARK                            x       y       z     vdW  Elec       q    Type
REMARK                         _______ _______ _______ _____ _____    ______ ____
ROOT
ATOM      1  N   UNL     1      -3.050   3.008   4.783  0.00  0.00    -0.255 N 
ATOM      2  C   UNL     1      -3.735   2.190   5.607  0.00  0.00    +0.261 C 
ATOM      3  O   UNL     1      -3.911   2.505   6.769  0.00  0.00    -0.269 OA
ENDROOT
BRANCH   1   7
ATOM      4  C   UNL     1      -2.716   2.085   0.735  0.00  0.00    -0.048 A 
ATOM      5  C   UNL     1      -3.703   2.953   1.166  0.00  0.00    +0.005 A 
ATOM      6  C   UNL     1      -3.819   3.257   2.508  0.00  0.00    +0.024 A 
ATOM      7  C   UNL     1      -2.938   2.697   3.424  0.00  0.00    +0.037 A 
ATOM      8  C   UNL     1      -1.945   1.830   2.987  0.00  0.00    +0.024 A 
ATOM      9  C   UNL     1      -1.837   1.526   1.645  0.00  0.00    +0.005 A 
BRANCH   4  11
ATOM     10  C   UNL     1      -3.450   0.522  -1.045  0.00  0.00    +0.009 C 
ATOM     11  C   UNL     1      -2.595   1.751  -0.730  0.00  0.00    +0.032 C 
ENDBRANCH   4  11
ENDBRANCH   1   7
BRANCH   2  12
ATOM     12  C   UNL     1      -4.269   0.924   5.103  0.00  0.00    +0.116 A 
ATOM     13  C   UNL     1      -5.084  -0.011   5.745  0.00  0.00    +0.076 A 
ATOM     14  C   UNL     1      -5.388  -1.103   4.931  0.00  0.00    +0.156 A 
ATOM     15  N   UNL     1      -4.907  -1.147   3.708  0.00  0.00    -0.203 NA
ATOM     16  S   UNL     1      -4.060   0.167   3.505  0.00  0.00    +0.019 S 
BRANCH  14  17
ATOM     17  C   UNL     1      -6.239  -2.195   5.437  0.00  0.00    +0.265 C 
ATOM     18  O   UNL     1      -6.681  -2.147   6.569  0.00  0.00    -0.268 OA
ATOM     19  N   UNL     1      -6.528  -3.246   4.645  0.00  0.00    -0.307 N 
ATOM     20  H   UNL     1      -6.176  -3.284   3.742  0.00  0.00    +0.149 HD
BRANCH  19  21
ATOM     21  C   UNL     1      -7.374  -4.331   5.148  0.00  0.00    +0.073 C 
ATOM     22  C   UNL     1      -6.508  -5.388   5.865  0.00  0.00    +0.022 C 
ATOM     23  C   UNL     1      -7.171  -6.738   5.494  0.00  0.00    +0.002 C 
ATOM     24  C   UNL     1      -7.590  -6.519   4.019  0.00  0.00    +0.002 C 
ATOM     25  C   UNL     1      -8.062  -5.051   3.974  0.00  0.00    +0.022 C 
ENDBRANCH  19  21
ENDBRANCH  14  17
BRANCH  13  26
ATOM     26  N   UNL     1      -5.542   0.131   7.048  0.00  0.00    -0.355 N 
ATOM     27  H   UNL     1      -5.297   0.914   7.565  0.00  0.00    +0.142 HD
ATOM     28  H   UNL     1      -6.106  -0.553   7.441  0.00  0.00    +0.142 HD
ENDBRANCH  13  26
ENDBRANCH   2  12
BRANCH   1  29
ATOM     29  C   UNL     1      -2.421   4.221   5.312  0.00  0.00    +0.164 C 
ATOM     30  C   UNL     1      -2.886   5.431   4.500  0.00  0.00    +0.038 C 
BRANCH  29  31
ATOM     31  C   UNL     1      -0.923   4.095   5.212  0.00  0.00    +0.234 C 
ATOM     32  O   UNL     1      -0.428   3.090   4.745  0.00  0.00    -0.274 OA
ATOM     33  N   UNL     1      -0.132   5.098   5.641  0.00  0.00    -0.311 N 
ATOM     34  H   UNL     1      -0.527   5.901   6.015  0.00  0.00    +0.149 HD
BRANCH  33  35
ATOM     35  C   UNL     1       1.325   4.975   5.545  0.00  0.00    +0.073 C 
ATOM     36  C   UNL     1       1.856   4.228   6.770  0.00  0.00    +0.022 C 
ATOM     37  C   UNL     1       3.377   4.100   6.669  0.00  0.00    +0.002 C 
ATOM     38  C   UNL     1       4.004   5.495   6.610  0.00  0.00    +0.000 C 
ATOM     39  C   UNL     1       3.473   6.242   5.385  0.00  0.00    +0.002 C 
ATOM     40  C   UNL     1       1.951   6.370   5.486  0.00  0.00    +0.022 C 
ENDBRANCH  33  35
ENDBRANCH  29  31
ENDBRANCH   1  29
TORSDOF 9
