REMARK  Name = ZINC25498203
REMARK  11 active torsions:
REMARK  status: ('A' for Active; 'I' for Inactive)
REMARK    1  A    between atoms: C_1  and  C_2
REMARK    2  A    between atoms: C_5  and  N_8
REMARK    3  A    between atoms: C_12  and  C_14
REMARK    4  A    between atoms: C_14  and  C_16
REMARK    5  A    between atoms: C_14  and  N_17
REMARK    6  A    between atoms: N_17  and  C_18
REMARK    7  A    between atoms: C_21  and  N_24
REMARK    8  A    between atoms: C_25  and  C_27
REMARK    9  A    between atoms: C_27  and  C_28
REMARK   10  A    between atoms: C_28  and  C_29
REMARK   11  A    between atoms: C_28  and  C_30
REMARK                            x       y       z     vdW  Elec       q    Type
REMARK                         _______ _______ _______ _____ _____    ______ ____
ROOT
ATOM      1  C   UNL     1      -0.337   1.829   2.197  0.00  0.00    +0.154 C 
ATOM      2  C   UNL     1       0.498   1.772   0.916  0.00  0.00    +0.038 C 
ENDROOT
BRANCH   1   7
ATOM      3  N   UNL     1       0.581   6.488   2.947  0.00  0.00    -0.269 N 
ATOM      4  C   UNL     1      -0.320   5.498   2.793  0.00  0.00    +0.310 C 
ATOM      5  O   UNL     1      -1.509   5.745   2.841  0.00  0.00    -0.252 OA
ATOM      6  N   UNL     1       0.097   4.233   2.584  0.00  0.00    -0.238 N 
ATOM      7  C   UNL     1      -0.803   3.243   2.430  0.00  0.00    +0.240 C 
ATOM      8  O   UNL     1      -1.990   3.490   2.479  0.00  0.00    -0.273 OA
ATOM      9  H   UNL     1       1.655   6.253   2.990  0.00  0.00    +0.156 HD
ATOM     10  H   UNL     1       1.173   4.010   2.540  0.00  0.00    +0.159 HD
BRANCH   3  15
ATOM     11  C   UNL     1      -1.165  11.869   3.374  0.00  0.00    +0.044 C 
ATOM     12  C   UNL     1      -0.701  10.440   3.260  0.00  0.00    -0.050 A 
ATOM     13  C   UNL     1       0.419  10.021   3.955  0.00  0.00    +0.005 A 
ATOM     14  C   UNL     1       0.846   8.711   3.854  0.00  0.00    +0.023 A 
ATOM     15  C   UNL     1       0.150   7.816   3.052  0.00  0.00    +0.035 A 
ATOM     16  C   UNL     1      -0.970   8.241   2.351  0.00  0.00    +0.023 A 
ATOM     17  C   UNL     1      -1.396   9.551   2.461  0.00  0.00    +0.005 A 
ENDBRANCH   3  15
ENDBRANCH   1   7
BRANCH   1  18
ATOM     18  N   UNL     1      -1.499   0.947   2.062  0.00  0.00    -0.333 N 
ATOM     19  H   UNL     1      -2.463   1.356   1.728  0.00  0.00    +0.147 HD
BRANCH  18  20
ATOM     20  C   UNL     1      -1.381  -0.415   2.359  0.00  0.00    +0.028 A 
ATOM     21  C   UNL     1      -0.161  -0.932   2.776  0.00  0.00    +0.025 A 
ATOM     22  C   UNL     1      -0.047  -2.275   3.075  0.00  0.00    +0.025 A 
ATOM     23  C   UNL     1      -1.148  -3.111   2.947  0.00  0.00    +0.033 A 
ATOM     24  C   UNL     1      -2.366  -2.595   2.524  0.00  0.00    +0.025 A 
ATOM     25  C   UNL     1      -2.482  -1.251   2.231  0.00  0.00    +0.025 A 
BRANCH  23  26
ATOM     26  N   UNL     1      -1.031  -4.475   3.245  0.00  0.00    -0.285 N 
ATOM     27  C   UNL     1      -2.074  -5.141   3.778  0.00  0.00    +0.217 C 
ATOM     28  O   UNL     1      -3.084  -4.542   4.084  0.00  0.00    -0.275 OA
ATOM     29  H   UNL     1      -0.087  -5.003   3.043  0.00  0.00    +0.155 HD
BRANCH  27  30
ATOM     30  C   UNL     1      -1.987  -6.630   3.995  0.00  0.00    +0.099 C 
BRANCH  30  31
ATOM     31  C   UNL     1      -3.295  -7.134   4.608  0.00  0.00    -0.008 C 
ATOM     32  C   UNL     1      -3.255  -8.660   4.713  0.00  0.00    +0.008 C 
ATOM     33  C   UNL     1      -3.470  -6.531   6.003  0.00  0.00    +0.008 C 
ENDBRANCH  30  31
ENDBRANCH  27  30
ENDBRANCH  23  26
ENDBRANCH  18  20
ENDBRANCH   1  18
TORSDOF 7
