REMARK  Name = ZINC17665223
REMARK  12 active torsions:
REMARK  status: ('A' for Active; 'I' for Inactive)
REMARK    1  A    between atoms: C_1  and  C_2
REMARK    2  A    between atoms: C_2  and  C_3
REMARK    3  A    between atoms: C_2  and  C_4
REMARK    4  A    between atoms: C_4  and  C_5
REMARK    5  A    between atoms: C_5  and  C_6
REMARK    6  A    between atoms: C_6  and  C_7
REMARK    7  A    between atoms: C_7  and  C_8
REMARK    8  A    between atoms: C_8  and  C_9
REMARK    9  A    between atoms: C_9  and  N_10
REMARK   10  A    between atoms: C_20  and  S_21
REMARK   11  A    between atoms: S_21  and  C_22
REMARK   12  A    between atoms: C_22  and  C_23
REMARK                            x       y       z     vdW  Elec       q    Type
REMARK                         _______ _______ _______ _____ _____    ______ ____
ROOT
ATOM      1  N   UNL     1      -0.020   1.094   2.454  0.00  0.00    -0.287 N 
ATOM      2  C   UNL     1      -0.364  -0.094   3.003  0.00  0.00    +0.262 A 
ATOM      3  O   UNL     1      -1.256  -0.774   2.529  0.00  0.00    -0.267 OA
ATOM      4  C   UNL     1       0.383  -0.535   4.189  0.00  0.00    +0.065 A 
ATOM      5  C   UNL     1       0.108  -1.745   4.824  0.00  0.00    +0.015 A 
ATOM      6  C   UNL     1       0.831  -2.106   5.928  0.00  0.00    +0.001 A 
ATOM      7  C   UNL     1       1.833  -1.280   6.421  0.00  0.00    +0.002 A 
ATOM      8  C   UNL     1       2.122  -0.088   5.818  0.00  0.00    +0.028 A 
ATOM      9  C   UNL     1       1.401   0.308   4.688  0.00  0.00    +0.079 A 
ATOM     10  N   UNL     1       1.654   1.475   4.062  0.00  0.00    -0.223 NA
ATOM     11  C   UNL     1       0.979   1.846   3.002  0.00  0.00    +0.173 A 
ENDROOT
BRANCH   1  12
ATOM     12  C   UNL     1      -0.729   1.579   1.267  0.00  0.00    +0.127 C 
BRANCH  12  13
ATOM     13  C   UNL     1      -0.013   1.086   0.008  0.00  0.00    +0.022 C 
BRANCH  13  14
ATOM     14  C   UNL     1      -0.753   1.593  -1.232  0.00  0.00    +0.002 C 
BRANCH  14  15
ATOM     15  C   UNL     1      -0.037   1.099  -2.490  0.00  0.00    +0.000 C 
BRANCH  15  16
ATOM     16  C   UNL     1      -0.777   1.606  -3.730  0.00  0.00    +0.000 C 
BRANCH  16  17
ATOM     17  C   UNL     1      -0.060   1.113  -4.989  0.00  0.00    +0.003 C 
BRANCH  17  19
ATOM     18  C   UNL     1      -0.714   3.146  -6.285  0.00  0.00    +0.007 C 
ATOM     19  C   UNL     1      -0.800   1.619  -6.228  0.00  0.00    -0.017 C 
ATOM     20  C   UNL     1      -0.159   1.025  -7.484  0.00  0.00    +0.007 C 
ENDBRANCH  17  19
ENDBRANCH  16  17
ENDBRANCH  15  16
ENDBRANCH  14  15
ENDBRANCH  13  14
ENDBRANCH  12  13
ENDBRANCH   1  12
BRANCH  11  21
ATOM     21  S   UNL     1       1.378   3.389   2.249  0.00  0.00    -0.080 S 
BRANCH  21  22
ATOM     22  C   UNL     1       2.714   3.935   3.342  0.00  0.00    +0.153 C 
BRANCH  22  23
ATOM     23  C   UNL     1       3.227   5.274   2.878  0.00  0.00    +0.146 A 
ATOM     24  N   UNL     1       4.219   5.334   2.007  0.00  0.00    -0.199 NA
ATOM     25  C   UNL     1       4.671   6.515   1.591  0.00  0.00    +0.217 A 
ATOM     26  N   UNL     1       4.131   7.634   2.060  0.00  0.00    -0.181 NA
ATOM     27  C   UNL     1       3.137   7.570   2.939  0.00  0.00    +0.217 A 
ATOM     28  N   UNL     1       2.686   6.385   3.347  0.00  0.00    -0.199 NA
ATOM     29  N   UNL     1       2.572   8.729   3.430  0.00  0.00    -0.327 N 
ATOM     30  N   UNL     1       5.704   6.576   0.678  0.00  0.00    -0.327 N 
ATOM     31  H   UNL     1       1.847   8.682   4.072  0.00  0.00    +0.145 HD
ATOM     32  H   UNL     1       2.901   9.592   3.133  0.00  0.00    +0.145 HD
ATOM     33  H   UNL     1       6.036   7.437   0.378  0.00  0.00    +0.145 HD
ATOM     34  H   UNL     1       6.099   5.758   0.336  0.00  0.00    +0.145 HD
ENDBRANCH  22  23
ENDBRANCH  21  22
ENDBRANCH  11  21
TORSDOF 10
