REMARK  Name = ZINC00727473
REMARK  8 active torsions:
REMARK  status: ('A' for Active; 'I' for Inactive)
REMARK    1  A    between atoms: C_1  and  C_2
REMARK    2  A    between atoms: C_2  and  O_3
REMARK    3  A    between atoms: O_3  and  C_4
REMARK    4  A    between atoms: C_4  and  C_6
REMARK    5  A    between atoms: C_7  and  N_29
REMARK    6  A    between atoms: C_11  and  C_13
REMARK    7  A    between atoms: C_25  and  C_27
REMARK    8  A    between atoms: C_25  and  C_28
REMARK                            x       y       z     vdW  Elec       q    Type
REMARK                         _______ _______ _______ _____ _____    ______ ____
ROOT
ATOM      1  C   UNL     1      -0.775   1.581   3.566  0.00  0.00    +0.105 C 
ATOM      2  C   UNL     1      -0.287   1.149   4.758  0.00  0.00    +0.195 C 
ATOM      3  O   UNL     1      -0.827   1.550   5.919  0.00  0.00    -0.446 OA
ATOM      4  C   UNL     1      -1.553   2.682   5.966  0.00  0.00    +0.115 C 
ATOM      5  C   UNL     1      -2.122   3.196   4.860  0.00  0.00    +0.045 C 
ATOM      6  C   UNL     1      -1.946   2.522   3.521  0.00  0.00    +0.098 C 
ATOM      7  C   UNL     1      -2.897   4.372   4.914  0.00  0.00    +0.164 C 
ATOM      8  O   UNL     1      -3.380   4.815   3.892  0.00  0.00    -0.292 OA
ATOM      9  C   UNL     1      -3.136   5.088   6.216  0.00  0.00    +0.086 C 
ATOM     10  C   UNL     1      -3.072   4.071   7.360  0.00  0.00    -0.021 C 
ATOM     11  C   UNL     1      -1.717   3.364   7.304  0.00  0.00    +0.081 C 
ATOM     12  C   UNL     1      -4.195   3.044   7.199  0.00  0.00    +0.012 C 
ATOM     13  C   UNL     1      -3.222   4.790   8.702  0.00  0.00    +0.012 C 
ENDROOT
BRANCH   6  14
ATOM     14  C   UNL     1      -3.196   1.750   3.186  0.00  0.00    -0.031 A 
ATOM     15  C   UNL     1      -3.618   0.727   4.014  0.00  0.00    +0.008 A 
ATOM     16  C   UNL     1      -4.764   0.016   3.711  0.00  0.00    +0.050 A 
ATOM     17  C   UNL     1      -5.493   0.327   2.575  0.00  0.00    +0.166 A 
ATOM     18  C   UNL     1      -5.068   1.357   1.740  0.00  0.00    +0.167 A 
ATOM     19  C   UNL     1      -3.921   2.069   2.052  0.00  0.00    +0.054 A 
ATOM     20  O   UNL     1      -5.945   1.467   0.700  0.00  0.00    -0.453 OA
ATOM     21  C   UNL     1      -7.131   0.768   1.123  0.00  0.00    +0.466 C 
ATOM     22  O   UNL     1      -6.637  -0.209   2.058  0.00  0.00    -0.453 OA
ENDBRANCH   6  14
BRANCH   2  23
ATOM     23  N   UNL     1       0.779   0.291   4.775  0.00  0.00    -0.329 N 
ATOM     24  H   UNL     1       1.236   0.069   3.949  0.00  0.00    +0.145 HD
ATOM     25  H   UNL     1       1.077  -0.096   5.613  0.00  0.00    +0.145 HD
ENDBRANCH   2  23
BRANCH   1  26
ATOM     26  C   UNL     1      -0.186   1.142   2.370  0.00  0.00    +0.341 C 
ATOM     27  O   UNL     1       0.577   1.872   1.763  0.00  0.00    -0.245 OA
BRANCH  26  28
ATOM     28  O   UNL     1      -0.466  -0.090   1.893  0.00  0.00    -0.462 OA
BRANCH  28  30
ATOM     29  C   UNL     1      -0.266  -1.889   0.291  0.00  0.00    +0.048 C 
ATOM     30  C   UNL     1       0.169  -0.472   0.671  0.00  0.00    +0.229 C 
ENDBRANCH  28  30
ENDBRANCH  26  28
ENDBRANCH   1  26
TORSDOF 5
