REMARK  Name = ZINC04669190
REMARK  6 active torsions:
REMARK  status: ('A' for Active; 'I' for Inactive)
REMARK    1  A    between atoms: C_1  and  C_2
REMARK    2  A    between atoms: C_6  and  N_8
REMARK    3  A    between atoms: N_8  and  C_9
REMARK    4  A    between atoms: C_9  and  N_11
REMARK    5  A    between atoms: N_11  and  N_12
REMARK    6  A    between atoms: C_25  and  O_28
REMARK                            x       y       z     vdW  Elec       q    Type
REMARK                         _______ _______ _______ _____ _____    ______ ____
ROOT
ATOM      1  N   UNL     1       1.126   2.060  -0.022  0.00  0.00    -0.185 NA
ATOM      2  C   UNL     1       1.080   3.357  -0.034  0.00  0.00    +0.074 C 
ATOM      3  C   UNL     1      -0.169   4.109  -0.458  0.00  0.00    +0.105 C 
ATOM      4  C   UNL     1       0.281   5.313  -1.290  0.00  0.00    +0.116 C 
ATOM      5  C   UNL     1       1.011   4.815  -2.538  0.00  0.00    +0.048 C 
ATOM      6  C   UNL     1       1.456   6.013  -3.380  0.00  0.00    +0.004 C 
ATOM      7  C   UNL     1       0.229   6.828  -3.796  0.00  0.00    +0.000 C 
ATOM      8  C   UNL     1      -0.501   7.325  -2.547  0.00  0.00    +0.004 C 
ATOM      9  C   UNL     1      -0.946   6.126  -1.706  0.00  0.00    +0.048 C 
ATOM     10  O   UNL     1       1.157   6.130  -0.515  0.00  0.00    -0.485 OA
ATOM     11  C   UNL     1       2.228   5.555   0.086  0.00  0.00    +0.130 A 
ATOM     12  C   UNL     1       2.245   4.181   0.359  0.00  0.00    +0.043 A 
ATOM     13  C   UNL     1       3.343   3.602   0.992  0.00  0.00    +0.058 A 
ATOM     14  C   UNL     1       4.423   4.394   1.346  0.00  0.00    +0.118 A 
ATOM     15  C   UNL     1       4.408   5.754   1.069  0.00  0.00    +0.049 A 
ATOM     16  C   UNL     1       3.320   6.332   0.443  0.00  0.00    +0.050 A 
ENDROOT
BRANCH   1  17
ATOM     17  N   UNL     1       0.001   1.316  -0.402  0.00  0.00    -0.218 N 
ATOM     18  H   UNL     1      -0.810   1.770  -0.677  0.00  0.00    +0.176 HD
BRANCH  17  19
ATOM     19  C   UNL     1       0.049  -0.031  -0.390  0.00  0.00    +0.154 C 
ATOM     20  S   UNL     1      -1.326  -0.940  -0.854  0.00  0.00    -0.017 S 
BRANCH  19  21
ATOM     21  N   UNL     1       1.178  -0.662  -0.013  0.00  0.00    -0.296 N 
ATOM     22  H   UNL     1       1.976  -0.149   0.191  0.00  0.00    +0.154 HD
BRANCH  21  28
ATOM     23  C   UNL     1       2.420  -4.709   2.486  0.00  0.00    +0.044 C 
ATOM     24  C   UNL     1       1.796  -4.046   1.286  0.00  0.00    -0.049 A 
ATOM     25  C   UNL     1       1.244  -4.817   0.279  0.00  0.00    +0.003 A 
ATOM     26  C   UNL     1       0.671  -4.212  -0.825  0.00  0.00    +0.002 A 
ATOM     27  C   UNL     1       0.648  -2.834  -0.924  0.00  0.00    +0.023 A 
ATOM     28  C   UNL     1       1.200  -2.057   0.085  0.00  0.00    +0.033 A 
ATOM     29  C   UNL     1       1.781  -2.668   1.190  0.00  0.00    +0.026 A 
ENDBRANCH  21  28
ENDBRANCH  19  21
ENDBRANCH  17  19
ENDBRANCH   1  17
BRANCH  14  30
ATOM     30  O   UNL     1       5.499   3.838   1.965  0.00  0.00    -0.507 OA
ATOM     31  H   UNL     1       5.438   3.833   2.930  0.00  0.00    +0.292 HD
ENDBRANCH  14  30
TORSDOF 5
