REMARK  Name = ZINC06108780
REMARK  5 active torsions:
REMARK  status: ('A' for Active; 'I' for Inactive)
REMARK    1  A    between atoms: C_3  and  C_6
REMARK    2  A    between atoms: C_6  and  N_7
REMARK    3  A    between atoms: C_8  and  C_10
REMARK    4  A    between atoms: C_10  and  S_11
REMARK    5  A    between atoms: S_11  and  C_12
REMARK                            x       y       z     vdW  Elec       q    Type
REMARK                         _______ _______ _______ _____ _____    ______ ____
ROOT
ATOM      1  C   UNL     1      -4.827   5.348  -4.739  0.00  0.00    +0.191 A 
ATOM      2  N   UNL     1      -4.017   4.726  -5.588  0.00  0.00    -0.207 NA
ATOM      3  C   UNL     1      -4.047   4.962  -6.888  0.00  0.00    +0.129 A 
ATOM      4  C   UNL     1      -4.966   5.920  -7.400  0.00  0.00    +0.051 A 
ATOM      5  C   UNL     1      -5.170   6.343  -8.788  0.00  0.00    -0.025 A 
ATOM      6  C   UNL     1      -6.114   7.278  -9.011  0.00  0.00    -0.004 A 
ATOM      7  S   UNL     1      -6.782   7.651  -7.412  0.00  0.00    -0.073 S 
ATOM      8  C   UNL     1      -5.789   6.545  -6.443  0.00  0.00    +0.115 A 
ATOM      9  N   UNL     1      -5.702   6.251  -5.160  0.00  0.00    -0.214 NA
ATOM     10  C   UNL     1      -6.510   7.872 -10.328  0.00  0.00    +0.043 C 
ATOM     11  C   UNL     1      -5.426   7.530 -11.360  0.00  0.00    +0.005 C 
ATOM     12  C   UNL     1      -5.099   6.038 -11.253  0.00  0.00    +0.005 C 
ATOM     13  C   UNL     1      -4.359   5.762  -9.944  0.00  0.00    +0.037 C 
ATOM     14  N   UNL     1      -3.191   4.289  -7.741  0.00  0.00    -0.343 N 
ATOM     15  H   UNL     1      -3.040   4.623  -8.639  0.00  0.00    +0.144 HD
ATOM     16  H   UNL     1      -2.743   3.483  -7.441  0.00  0.00    +0.144 HD
ENDROOT
BRANCH   1  17
ATOM     17  S   UNL     1      -4.730   4.973  -3.020  0.00  0.00    -0.077 S 
BRANCH  17  18
ATOM     18  C   UNL     1      -3.417   3.727  -3.043  0.00  0.00    +0.173 C 
BRANCH  18  20
ATOM     19  N   UNL     1      -2.213   2.312  -1.412  0.00  0.00    -0.310 N 
ATOM     20  C   UNL     1      -3.156   3.247  -1.639  0.00  0.00    +0.224 C 
ATOM     21  O   UNL     1      -3.794   3.702  -0.714  0.00  0.00    -0.275 OA
ATOM     22  H   UNL     1      -1.702   1.948  -2.152  0.00  0.00    +0.149 HD
BRANCH  19  23
ATOM     23  C   UNL     1      -1.958   1.844  -0.046  0.00  0.00    +0.146 C 
BRANCH  23  26
ATOM     24  C   UNL     1       1.298  -0.132  -0.008  0.00  0.00    +0.008 A 
ATOM     25  C   UNL     1       0.475   0.977   0.043  0.00  0.00    +0.013 A 
ATOM     26  C   UNL     1      -0.866   0.807  -0.066  0.00  0.00    +0.007 A 
ATOM     27  S   UNL     1      -0.999  -0.964  -0.245  0.00  0.00    -0.100 S 
ATOM     28  C   UNL     1       0.740  -1.358  -0.164  0.00  0.00    +0.045 A 
ENDBRANCH  23  26
ENDBRANCH  19  23
ENDBRANCH  18  20
ENDBRANCH  17  18
ENDBRANCH   1  17
TORSDOF 5
