REMARK  Name = ZINC00732968
REMARK  12 active torsions:
REMARK  status: ('A' for Active; 'I' for Inactive)
REMARK    1  A    between atoms: C_1  and  C_2
REMARK    2  A    between atoms: C_2  and  O_3
REMARK    3  A    between atoms: O_3  and  C_4
REMARK    4  A    between atoms: C_4  and  C_6
REMARK    5  A    between atoms: C_12  and  C_14
REMARK    6  A    between atoms: C_14  and  S_15
REMARK    7  A    between atoms: S_15  and  C_16
REMARK    8  A    between atoms: C_27  and  C_30
REMARK    9  A    between atoms: C_31  and  C_33
REMARK   10  A    between atoms: C_33  and  C_34
REMARK   11  A    between atoms: C_33  and  C_35
REMARK   12  A    between atoms: C_33  and  C_36
REMARK                            x       y       z     vdW  Elec       q    Type
REMARK                         _______ _______ _______ _____ _____    ______ ____
ROOT
ATOM      1  C   UNL     1      -0.893   1.631  -2.673  0.00  0.00    +0.192 A 
ATOM      2  N   UNL     1      -1.003   1.758  -3.987  0.00  0.00    -0.207 NA
ATOM      3  C   UNL     1      -0.170   1.119  -4.802  0.00  0.00    +0.127 A 
ATOM      4  C   UNL     1       0.820   0.301  -4.254  0.00  0.00    +0.083 A 
ATOM      5  C   UNL     1       0.898   0.191  -2.878  0.00  0.00    +0.135 A 
ATOM      6  N   UNL     1       0.036   0.861  -2.124  0.00  0.00    -0.210 NA
ATOM      7 CL   UNL     1       2.110  -0.812  -2.145  0.00  0.00    -0.062 Cl
ATOM      8  N   UNL     1      -0.285   1.260  -6.176  0.00  0.00    -0.312 N 
ATOM      9  C   UNL     1      -0.450  -0.047  -6.826  0.00  0.00    +0.125 C 
ATOM     10  C   UNL     1      -0.754   0.161  -8.314  0.00  0.00    +0.127 C 
ATOM     11  N   UNL     1       0.296   1.014  -8.890  0.00  0.00    -0.295 N 
ATOM     12  C   UNL     1       0.615   2.280  -8.212  0.00  0.00    +0.090 C 
ATOM     13  C   UNL     1       0.865   1.988  -6.729  0.00  0.00    +0.128 C 
ATOM     14  C   UNL     1       1.871   2.894  -8.834  0.00  0.00    +0.029 C 
ATOM     15  C   UNL     1       0.949   0.646 -10.010  0.00  0.00    +0.221 C 
ATOM     16  O   UNL     1       1.740   1.405 -10.528  0.00  0.00    -0.275 OA
ENDROOT
BRANCH  15  17
ATOM     17  C   UNL     1       0.696  -0.710 -10.619  0.00  0.00    +0.039 C 
ATOM     18  C   UNL     1       1.580  -0.887 -11.855  0.00  0.00    +0.020 C 
ATOM     19  C   UNL     1       1.027  -1.798  -9.595  0.00  0.00    +0.020 C 
ATOM     20  C   UNL     1      -0.775  -0.820 -11.024  0.00  0.00    +0.020 C 
ENDBRANCH  15  17
BRANCH   1  21
ATOM     21  S   UNL     1      -2.014   2.500  -1.628  0.00  0.00    -0.077 S 
BRANCH  21  22
ATOM     22  C   UNL     1      -1.417   1.961  -0.007  0.00  0.00    +0.173 C 
BRANCH  22  29
ATOM     23  C   UNL     1      -2.148   1.004   4.858  0.00  0.00    +0.101 C 
ATOM     24  C   UNL     1      -3.321   1.846   4.352  0.00  0.00    +0.033 C 
ATOM     25  C   UNL     1      -2.793   2.953   3.434  0.00  0.00    +0.108 C 
ATOM     26  N   UNL     1      -1.987   2.339   2.370  0.00  0.00    -0.301 N 
ATOM     27  C   UNL     1      -0.892   1.434   2.744  0.00  0.00    +0.108 C 
ATOM     28  C   UNL     1      -1.439   0.349   3.670  0.00  0.00    +0.033 C 
ATOM     29  C   UNL     1      -2.252   2.598   1.074  0.00  0.00    +0.226 C 
ATOM     30  O   UNL     1      -3.162   3.343   0.777  0.00  0.00    -0.275 OA
BRANCH  23  31
ATOM     31  C   UNL     1      -2.660  -0.065   5.788  0.00  0.00    +0.310 C 
ATOM     32  O   UNL     1      -3.843  -0.145   6.023  0.00  0.00    -0.251 OA
BRANCH  31  33
ATOM     33  O   UNL     1      -1.804  -0.928   6.356  0.00  0.00    -0.465 OA
BRANCH  33  35
ATOM     34  C   UNL     1      -1.247  -2.817   7.789  0.00  0.00    +0.048 C 
ATOM     35  C   UNL     1      -2.368  -1.931   7.241  0.00  0.00    +0.229 C 
ENDBRANCH  33  35
ENDBRANCH  31  33
ENDBRANCH  23  31
ENDBRANCH  22  29
ENDBRANCH  21  22
ENDBRANCH   1  21
TORSDOF 7
