REMARK  Name = ZINC58458230
REMARK  7 active torsions:
REMARK  status: ('A' for Active; 'I' for Inactive)
REMARK    1  A    between atoms: C_1  and  C_2
REMARK    2  A    between atoms: C_2  and  C_4
REMARK    3  A    between atoms: C_2  and  O_16
REMARK    4  A    between atoms: N_9  and  C_10
REMARK    5  A    between atoms: O_16  and  C_17
REMARK    6  A    between atoms: C_17  and  C_19
REMARK    7  A    between atoms: C_24  and  N_25
REMARK                            x       y       z     vdW  Elec       q    Type
REMARK                         _______ _______ _______ _____ _____    ______ ____
ROOT
ATOM      1  C   UNL     1      -0.819   1.424   0.479  0.00  0.00    +0.062 C 
ATOM      2  C   UNL     1      -0.738  -0.104   0.505  0.00  0.00    +0.259 C 
ENDROOT
BRANCH   2   3
ATOM      3  C   UNL     1      -2.117  -0.676   0.706  0.00  0.00    +0.261 C 
ATOM      4  O   UNL     1      -2.375  -1.295   1.716  0.00  0.00    -0.271 OA
ATOM      5  N   UNL     1      -3.063  -0.501  -0.237  0.00  0.00    -0.237 N 
ATOM      6  C   UNL     1      -4.297  -1.014  -0.057  0.00  0.00    +0.310 C 
ATOM      7  O   UNL     1      -4.556  -1.634   0.956  0.00  0.00    -0.252 OA
ATOM      8  N   UNL     1      -5.243  -0.839  -1.001  0.00  0.00    -0.269 N 
ATOM      9  H   UNL     1      -2.857  -0.007  -1.046  0.00  0.00    +0.159 HD
ATOM     10  H   UNL     1      -5.057  -0.291  -1.779  0.00  0.00    +0.156 HD
BRANCH   8  11
ATOM     11  C   UNL     1      -6.495  -1.448  -0.858  0.00  0.00    +0.035 A 
ATOM     12  C   UNL     1      -7.171  -1.919  -1.975  0.00  0.00    +0.023 A 
ATOM     13  C   UNL     1      -8.407  -2.520  -1.830  0.00  0.00    +0.002 A 
ATOM     14  C   UNL     1      -8.970  -2.653  -0.574  0.00  0.00    +0.000 A 
ATOM     15  C   UNL     1      -8.299  -2.184   0.540  0.00  0.00    +0.002 A 
ATOM     16  C   UNL     1      -7.061  -1.588   0.403  0.00  0.00    +0.023 A 
ENDBRANCH   8  11
ENDBRANCH   2   3
BRANCH   2  17
ATOM     17  O   UNL     1       0.111  -0.518   1.577  0.00  0.00    -0.449 OA
BRANCH  17  18
ATOM     18  C   UNL     1       1.423  -0.657   1.300  0.00  0.00    +0.342 C 
ATOM     19  O   UNL     1       1.835  -0.433   0.179  0.00  0.00    -0.245 OA
BRANCH  18  20
ATOM     20  C   UNL     1       2.358  -1.081   2.357  0.00  0.00    +0.081 A 
ATOM     21  C   UNL     1       1.876  -1.449   3.616  0.00  0.00    +0.032 A 
ATOM     22  C   UNL     1       2.756  -1.845   4.600  0.00  0.00    +0.019 A 
ATOM     23  C   UNL     1       4.119  -1.881   4.348  0.00  0.00    +0.017 A 
ATOM     24  C   UNL     1       4.610  -1.521   3.110  0.00  0.00    +0.024 A 
ATOM     25  C   UNL     1       3.738  -1.124   2.103  0.00  0.00    +0.039 A 
ATOM     26 BR   UNL     1       2.101  -2.341   6.303  0.00  0.00    -0.050 Br
BRANCH  25  27
ATOM     27  N   UNL     1       4.229  -0.767   0.854  0.00  0.00    -0.357 N 
ATOM     28  H   UNL     1       3.616  -0.561   0.132  0.00  0.00    +0.142 HD
ATOM     29  H   UNL     1       5.187  -0.724   0.704  0.00  0.00    +0.142 HD
ENDBRANCH  25  27
ENDBRANCH  18  20
ENDBRANCH  17  18
ENDBRANCH   2  17
TORSDOF 6
