REMARK  Name = ZINC43424778
REMARK  4 active torsions:
REMARK  status: ('A' for Active; 'I' for Inactive)
REMARK    1  A    between atoms: C_2  and  N_23
REMARK    2  A    between atoms: C_4  and  S_19
REMARK    3  A    between atoms: C_6  and  N_7
REMARK    4  A    between atoms: S_19  and  N_22
REMARK                            x       y       z     vdW  Elec       q    Type
REMARK                         _______ _______ _______ _____ _____    ______ ____
ROOT
ATOM      1  C   UNL     1       0.564   0.396  -1.202  0.00  0.00    +0.046 A 
ATOM      2  C   UNL     1       1.756   1.108  -1.205  0.00  0.00    +0.028 A 
ATOM      3  C   UNL     1       2.382   1.416  -0.004  0.00  0.00    +0.051 A 
ATOM      4  C   UNL     1       1.820   1.016   1.193  0.00  0.00    +0.108 A 
ATOM      5  C   UNL     1       0.634   0.308   1.200  0.00  0.00    +0.051 A 
ATOM      6  C   UNL     1       0.002  -0.004   0.002  0.00  0.00    +0.034 A 
ENDROOT
BRANCH   6   7
ATOM      7  N   UNL     1      -1.197  -0.720   0.010  0.00  0.00    -0.322 N 
ATOM      8  C   UNL     1      -1.215  -2.189  -0.101  0.00  0.00    +0.133 C 
ATOM      9  C   UNL     1      -2.206  -2.591  -1.198  0.00  0.00    +0.179 C 
ATOM     10  O   UNL     1      -3.465  -1.947  -0.975  0.00  0.00    -0.373 OA
ATOM     11  C   UNL     1      -3.391  -0.524  -1.014  0.00  0.00    +0.139 C 
ATOM     12  C   UNL     1      -2.493  -0.039   0.136  0.00  0.00    +0.102 C 
ATOM     13  C   UNL     1      -2.325   1.475   0.032  0.00  0.00    +0.025 C 
ATOM     14  C   UNL     1      -3.700   2.137   0.169  0.00  0.00    +0.002 C 
ATOM     15  C   UNL     1      -4.632   1.637  -0.935  0.00  0.00    +0.003 C 
ATOM     16  C   UNL     1      -4.770   0.111  -0.850  0.00  0.00    +0.033 C 
ENDBRANCH   6   7
BRANCH   4  17
ATOM     17  S   UNL     1       2.618   1.409   2.714  0.00  0.00    +0.056 S 
ATOM     18  O   UNL     1       2.175   0.451   3.665  0.00  0.00    -0.153 OA
ATOM     19  O   UNL     1       3.993   1.604   2.413  0.00  0.00    -0.153 OA
BRANCH  17  20
ATOM     20  N   UNL     1       2.030   2.876   3.210  0.00  0.00    -0.204 NA
ATOM     21  H   UNL     1       1.976   3.082   4.157  0.00  0.00    +0.144 HD
ATOM     22  H   UNL     1       1.740   3.529   2.554  0.00  0.00    +0.144 HD
ENDBRANCH  17  20
ENDBRANCH   4  17
BRANCH   2  23
ATOM     23  N   UNL     1       2.325   1.512  -2.415  0.00  0.00    -0.358 N 
ATOM     24  H   UNL     1       1.887   1.296  -3.253  0.00  0.00    +0.142 HD
ATOM     25  H   UNL     1       3.158   2.009  -2.417  0.00  0.00    +0.142 HD
ENDBRANCH   2  23
TORSDOF 4
