REMARK  Name = ZINC00644384
REMARK  8 active torsions:
REMARK  status: ('A' for Active; 'I' for Inactive)
REMARK    1  A    between atoms: C_1  and  C_2
REMARK    2  A    between atoms: C_2  and  O_3
REMARK    3  A    between atoms: O_3  and  C_4
REMARK    4  A    between atoms: C_9  and  N_10
REMARK    5  A    between atoms: C_11  and  C_13
REMARK    6  A    between atoms: C_14  and  C_28
REMARK    7  A    between atoms: C_19  and  C_21
REMARK    8  A    between atoms: C_26  and  C_27
REMARK                            x       y       z     vdW  Elec       q    Type
REMARK                         _______ _______ _______ _____ _____    ______ ____
ROOT
ATOM      1  C   UNL     1      -3.068   1.027   1.199  0.00  0.00    +0.056 C 
ATOM      2  C   UNL     1      -3.589  -0.175   1.524  0.00  0.00    +0.017 C 
ATOM      3  N   UNL     1      -3.286  -1.292   0.799  0.00  0.00    -0.300 N 
ATOM      4  C   UNL     1      -2.473  -1.290  -0.265  0.00  0.00    +0.135 C 
ATOM      5  S   UNL     1      -2.178  -2.763  -1.085  0.00  0.00    -0.019 S 
ATOM      6  N   UNL     1      -1.879  -0.165  -0.711  0.00  0.00    -0.315 N 
ATOM      7  C   UNL     1      -2.140   1.096   0.004  0.00  0.00    +0.139 C 
ATOM      8  C   UNL     1      -4.517  -0.287   2.705  0.00  0.00    +0.061 C 
ATOM      9  H   UNL     1      -3.683  -2.135   1.069  0.00  0.00    +0.154 HD
ATOM     10  H   UNL     1      -1.294  -0.186  -1.484  0.00  0.00    +0.149 HD
ENDROOT
BRANCH   7  11
ATOM     11  C   UNL     1      -0.819   1.647   0.473  0.00  0.00    -0.020 A 
ATOM     12  C   UNL     1      -0.489   1.604   1.815  0.00  0.00    +0.006 A 
ATOM     13  C   UNL     1       0.726   2.104   2.244  0.00  0.00    +0.000 A 
ATOM     14  C   UNL     1       1.609   2.652   1.332  0.00  0.00    +0.000 A 
ATOM     15  C   UNL     1       1.278   2.699  -0.009  0.00  0.00    +0.004 A 
ATOM     16  C   UNL     1       0.062   2.200  -0.438  0.00  0.00    -0.045 A 
ATOM     17  C   UNL     1      -0.300   2.252  -1.900  0.00  0.00    +0.044 C 
ENDBRANCH   7  11
BRANCH   1  19
ATOM     18  N   UNL     1      -2.964   3.396   1.529  0.00  0.00    -0.279 N 
ATOM     19  C   UNL     1      -3.380   2.186   1.952  0.00  0.00    +0.248 C 
ATOM     20  O   UNL     1      -4.024   2.089   2.981  0.00  0.00    -0.270 OA
ATOM     21  H   UNL     1      -2.433   3.471   0.721  0.00  0.00    +0.155 HD
BRANCH  18  27
ATOM     22  C   UNL     1      -3.243   5.798   1.650  0.00  0.00    +0.142 A 
ATOM     23  C   UNL     1      -3.574   6.931   2.375  0.00  0.00    +0.047 A 
ATOM     24  C   UNL     1      -3.958   6.817   3.698  0.00  0.00    +0.004 A 
ATOM     25  C   UNL     1      -4.014   5.574   4.302  0.00  0.00    +0.002 A 
ATOM     26  C   UNL     1      -3.690   4.438   3.584  0.00  0.00    +0.027 A 
ATOM     27  C   UNL     1      -3.298   4.545   2.257  0.00  0.00    +0.076 A 
BRANCH  22  28
ATOM     28  O   UNL     1      -2.864   5.908   0.348  0.00  0.00    -0.490 OA
BRANCH  28  30
ATOM     29  C   UNL     1      -2.384   7.147  -1.670  0.00  0.00    +0.048 C 
ATOM     30  C   UNL     1      -2.830   7.223  -0.208  0.00  0.00    +0.226 C 
ENDBRANCH  28  30
ENDBRANCH  22  28
ENDBRANCH  18  27
ENDBRANCH   1  19
TORSDOF 5
