REMARK  Name = ZINC03620676
REMARK  4 active torsions:
REMARK  status: ('A' for Active; 'I' for Inactive)
REMARK    1  A    between atoms: C_6  and  N_7
REMARK    2  A    between atoms: C_8  and  C_10
REMARK    3  A    between atoms: C_10  and  S_11
REMARK    4  A    between atoms: S_11  and  C_12
REMARK                            x       y       z     vdW  Elec       q    Type
REMARK                         _______ _______ _______ _____ _____    ______ ____
ROOT
ATOM      1  N   UNL     1      -0.242   1.246   2.466  0.00  0.00    -0.285 N 
ATOM      2  C   UNL     1      -0.717   1.573   1.248  0.00  0.00    +0.227 C 
ATOM      3  O   UNL     1      -1.709   2.265   1.150  0.00  0.00    -0.275 OA
ATOM      4  H   UNL     1       0.612   0.558   2.557  0.00  0.00    +0.155 HD
ENDROOT
BRANCH   1  10
ATOM      5  C   UNL     1      -0.052   2.086   4.723  0.00  0.00    +0.024 A 
ATOM      6  C   UNL     1      -0.638   2.620   5.853  0.00  0.00    +0.016 A 
ATOM      7  C   UNL     1      -2.004   2.841   5.888  0.00  0.00    +0.013 A 
ATOM      8  C   UNL     1      -2.785   2.534   4.788  0.00  0.00    +0.016 A 
ATOM      9  C   UNL     1      -2.203   2.006   3.652  0.00  0.00    +0.024 A 
ATOM     10  C   UNL     1      -0.833   1.782   3.615  0.00  0.00    +0.033 A 
ATOM     11  I   UNL     1      -2.889   3.644   7.608  0.00  0.00    -0.044 I 
ENDBRANCH   1  10
BRANCH   2  12
ATOM     12  C   UNL     1      -0.016   1.080   0.008  0.00  0.00    +0.173 C 
BRANCH  12  13
ATOM     13  S   UNL     1      -0.891   1.685  -1.462  0.00  0.00    -0.075 S 
BRANCH  13  14
ATOM     14  C   UNL     1       0.038   1.032  -2.809  0.00  0.00    +0.210 A 
ATOM     15  N   UNL     1      -0.239   1.214  -4.105  0.00  0.00    -0.188 NA
ATOM     16  C   UNL     1       0.657   0.592  -4.841  0.00  0.00    +0.209 A 
ATOM     17  N   UNL     1       1.530  -0.015  -4.010  0.00  0.00    -0.246 N 
ATOM     18  H   UNL     1       2.366  -0.600  -4.422  0.00  0.00    +0.192 HD
ATOM     19  N   UNL     1       1.110   0.284  -2.704  0.00  0.00    -0.144 NA
ATOM     20  N   UNL     1       0.694   0.560  -6.223  0.00  0.00    -0.328 N 
ATOM     21  H   UNL     1       1.492   0.007  -6.740  0.00  0.00    +0.145 HD
ATOM     22  H   UNL     1      -0.075   1.089  -6.806  0.00  0.00    +0.145 HD
ENDBRANCH  13  14
ENDBRANCH  12  13
ENDBRANCH   2  12
TORSDOF 4
