REMARK  Name = ZINC45699784
REMARK  7 active torsions:
REMARK  status: ('A' for Active; 'I' for Inactive)
REMARK    1  A    between atoms: C_1  and  C_2
REMARK    2  A    between atoms: C_2  and  C_4
REMARK    3  A    between atoms: C_2  and  N_11
REMARK    4  A    between atoms: N_14  and  C_15
REMARK    5  A    between atoms: C_18  and  O_21
REMARK    6  A    between atoms: O_21  and  C_22
REMARK    7  A    between atoms: C_22  and  C_23
REMARK                            x       y       z     vdW  Elec       q    Type
REMARK                         _______ _______ _______ _____ _____    ______ ____
ROOT
ATOM      1  N   UNL     1       0.732  -0.383   1.067  0.00  0.00    -0.293 N 
ATOM      2  C   UNL     1       0.180  -0.701   2.255  0.00  0.00    +0.304 C 
ATOM      3  O   UNL     1      -0.956  -0.352   2.512  0.00  0.00    -0.252 OA
ATOM      4  N   UNL     1       0.889  -1.406   3.159  0.00  0.00    -0.269 N 
ATOM      5  H   UNL     1       1.638  -0.661   0.863  0.00  0.00    +0.151 HD
ATOM      6  H   UNL     1       1.819  -1.619   2.987  0.00  0.00    +0.156 HD
ENDROOT
BRANCH   4   7
ATOM      7  C   UNL     1       0.281  -1.832   4.348  0.00  0.00    +0.035 A 
ATOM      8  C   UNL     1       1.023  -1.907   5.519  0.00  0.00    +0.027 A 
ATOM      9  C   UNL     1       0.423  -2.326   6.691  0.00  0.00    +0.047 A 
ATOM     10  C   UNL     1      -0.920  -2.672   6.697  0.00  0.00    +0.121 A 
ATOM     11  C   UNL     1      -1.662  -2.598   5.528  0.00  0.00    +0.047 A 
ATOM     12  C   UNL     1      -1.065  -2.174   4.357  0.00  0.00    +0.027 A 
BRANCH  10  13
ATOM     13  O   UNL     1      -1.510  -3.085   7.851  0.00  0.00    -0.483 OA
BRANCH  13  14
ATOM     14  C   UNL     1      -2.896  -3.425   7.785  0.00  0.00    +0.324 C 
BRANCH  14  15
ATOM     15  C   UNL     1      -3.373  -3.856   9.148  0.00  0.00    +0.248 C 
ATOM     16  O   UNL     1      -2.601  -3.870  10.084  0.00  0.00    -0.272 OA
ATOM     17  N   UNL     1      -4.656  -4.226   9.328  0.00  0.00    -0.327 N 
ATOM     18  H   UNL     1      -5.273  -4.215   8.579  0.00  0.00    +0.145 HD
ATOM     19  H   UNL     1      -4.963  -4.503  10.205  0.00  0.00    +0.145 HD
ENDBRANCH  14  15
ENDBRANCH  13  14
ENDBRANCH  10  13
ENDBRANCH   4   7
BRANCH   1  21
ATOM     20  C   UNL     1       0.171   1.880   0.328  0.00  0.00    +0.033 C 
ATOM     21  C   UNL     1      -0.038   0.384   0.085  0.00  0.00    +0.103 C 
BRANCH  21  22
ATOM     22  C   UNL     1       0.427   0.031  -1.304  0.00  0.00    -0.014 A 
ATOM     23  C   UNL     1       1.720  -0.413  -1.508  0.00  0.00    +0.006 A 
ATOM     24  C   UNL     1       2.146  -0.738  -2.782  0.00  0.00    +0.000 A 
ATOM     25  C   UNL     1       1.280  -0.619  -3.853  0.00  0.00    +0.001 A 
ATOM     26  C   UNL     1      -0.013  -0.175  -3.650  0.00  0.00    +0.015 A 
ATOM     27  C   UNL     1      -0.442   0.145  -2.374  0.00  0.00    +0.023 A 
ATOM     28 BR   UNL     1      -2.213   0.745  -2.095  0.00  0.00    -0.050 Br
ENDBRANCH  21  22
ENDBRANCH   1  21
TORSDOF 6
