REMARK  Name = ZINC20528301
REMARK  8 active torsions:
REMARK  status: ('A' for Active; 'I' for Inactive)
REMARK    1  A    between atoms: C_6  and  C_7
REMARK    2  A    between atoms: N_8  and  N_9
REMARK    3  A    between atoms: C_13  and  S_16
REMARK    4  A    between atoms: N_14  and  N_15
REMARK    5  A    between atoms: S_16  and  C_17
REMARK    6  A    between atoms: C_17  and  C_18
REMARK    7  A    between atoms: N_20  and  C_21
REMARK    8  A    between atoms: C_25  and  C_27
REMARK                            x       y       z     vdW  Elec       q    Type
REMARK                         _______ _______ _______ _____ _____    ______ ____
ROOT
ATOM      1  N   UNL     1       0.061   0.011  -0.532  0.00  0.00    -0.204 N 
ATOM      2  C   UNL     1       0.034   1.395  -0.427  0.00  0.00    +0.254 A 
ATOM      3  N   UNL     1      -1.033   2.132  -0.231  0.00  0.00    -0.109 NA
ATOM      4  N   UNL     1      -0.629   3.473  -0.182  0.00  0.00    -0.119 NA
ATOM      5  C   UNL     1       0.670   3.511  -0.360  0.00  0.00    +0.210 A 
ATOM      6  N   UNL     1       1.113   2.229  -0.515  0.00  0.00    -0.211 N 
ATOM      7  H   UNL     1       1.015  -0.509  -0.702  0.00  0.00    +0.177 HD
ENDROOT
BRANCH   6   8
ATOM      8  N   UNL     1       2.408   1.846  -0.722  0.00  0.00    -0.294 N 
ATOM      9  H   UNL     1       3.204   2.604  -0.777  0.00  0.00    +0.163 HD
ATOM     10  H   UNL     1       2.656   0.780  -0.834  0.00  0.00    +0.163 HD
ENDBRANCH   6   8
BRANCH   1  12
ATOM     11  C   UNL     1      -1.102  -2.018  -0.519  0.00  0.00    +0.138 C 
ATOM     12  N   UNL     1      -1.127  -0.723  -0.421  0.00  0.00    -0.188 NA
BRANCH  11  18
ATOM     13  C   UNL     1      -3.565  -2.133  -0.180  0.00  0.00    +0.011 A 
ATOM     14  C   UNL     1      -4.731  -2.862  -0.077  0.00  0.00    +0.020 A 
ATOM     15  C   UNL     1      -4.701  -4.242  -0.183  0.00  0.00    +0.041 A 
ATOM     16  C   UNL     1      -3.501  -4.900  -0.397  0.00  0.00    +0.020 A 
ATOM     17  C   UNL     1      -2.328  -4.183  -0.507  0.00  0.00    +0.011 A 
ATOM     18  C   UNL     1      -2.352  -2.790  -0.402  0.00  0.00    -0.005 A 
ATOM     19 CL   UNL     1      -6.173  -5.152  -0.046  0.00  0.00    -0.084 Cl
ENDBRANCH  11  18
ENDBRANCH   1  12
BRANCH   5  20
ATOM     20  S   UNL     1       1.668   4.963  -0.391  0.00  0.00    -0.075 S 
BRANCH  20  21
ATOM     21  C   UNL     1       0.486   6.314  -0.129  0.00  0.00    +0.173 C 
BRANCH  21  22
ATOM     22  C   UNL     1       1.219   7.630  -0.133  0.00  0.00    +0.227 C 
ATOM     23  O   UNL     1       2.421   7.655  -0.297  0.00  0.00    -0.275 OA
ATOM     24  N   UNL     1       0.540   8.781   0.045  0.00  0.00    -0.285 N 
ATOM     25  H   UNL     1      -0.558   8.767   0.107  0.00  0.00    +0.155 HD
BRANCH  24  26
ATOM     26  C   UNL     1       1.232   9.993   0.151  0.00  0.00    +0.034 A 
ATOM     27  C   UNL     1       2.484  10.029   0.751  0.00  0.00    +0.025 A 
ATOM     28  C   UNL     1       3.166  11.226   0.851  0.00  0.00    +0.022 A 
ATOM     29  C   UNL     1       2.599  12.390   0.362  0.00  0.00    +0.053 A 
ATOM     30  C   UNL     1       1.349  12.357  -0.232  0.00  0.00    +0.075 A 
ATOM     31  C   UNL     1       0.665  11.162  -0.338  0.00  0.00    +0.037 A 
ATOM     32 CL   UNL     1       3.457  13.893   0.494  0.00  0.00    -0.083 Cl
BRANCH  30  33
ATOM     33  C   UNL     1       0.735  13.627  -0.763  0.00  0.00    +0.419 C 
ATOM     34  F   UNL     1      -0.519  13.343  -1.313  0.00  0.00    -0.166 F 
ATOM     35  F   UNL     1       0.590  14.547   0.281  0.00  0.00    -0.166 F 
ATOM     36  F   UNL     1       1.565  14.169  -1.750  0.00  0.00    -0.166 F 
ENDBRANCH  30  33
ENDBRANCH  24  26
ENDBRANCH  21  22
ENDBRANCH  20  21
ENDBRANCH   5  20
TORSDOF 8
