REMARK  Name = ZINC36519805
REMARK  18 active torsions:
REMARK  status: ('A' for Active; 'I' for Inactive)
REMARK    1  A    between atoms: C_1  and  C_2
REMARK    2  A    between atoms: C_2  and  C_3
REMARK    3  A    between atoms: C_3  and  C_4
REMARK    4  A    between atoms: C_4  and  C_5
REMARK    5  A    between atoms: C_5  and  C_6
REMARK    6  A    between atoms: C_6  and  N_7
REMARK    7  A    between atoms: N_7  and  C_8
REMARK    8  A    between atoms: C_8  and  C_10
REMARK    9  A    between atoms: C_8  and  C_19
REMARK   10  A    between atoms: C_11  and  O_18
REMARK   11  A    between atoms: C_13  and  O_17
REMARK   12  A    between atoms: C_15  and  O_16
REMARK   13  A    between atoms: N_21  and  C_22
REMARK   14  A    between atoms: C_22  and  C_23
REMARK   15  A    between atoms: C_22  and  C_24
REMARK   16  A    between atoms: C_22  and  C_25
REMARK   17  A    between atoms: C_26  and  C_28
REMARK   18  A    between atoms: C_32  and  N_34
REMARK                            x       y       z     vdW  Elec       q    Type
REMARK                         _______ _______ _______ _____ _____    ______ ____
ROOT
ATOM      1  C   UNL     1       3.967  -4.560  -2.757  0.00  0.00    +0.199 C 
ENDROOT
BRANCH   1   2
ATOM      2  C   UNL     1       4.927  -5.680  -3.067  0.00  0.00    +0.065 A 
ATOM      3  C   UNL     1       6.168  -5.721  -2.450  0.00  0.00    +0.129 A 
ATOM      4  C   UNL     1       7.051  -6.751  -2.736  0.00  0.00    +0.091 A 
ATOM      5  C   UNL     1       6.693  -7.741  -3.639  0.00  0.00    +0.124 A 
ATOM      6  C   UNL     1       5.452  -7.701  -4.255  0.00  0.00    +0.091 A 
ATOM      7  C   UNL     1       4.567  -6.673  -3.966  0.00  0.00    +0.129 A 
BRANCH   7   8
ATOM      8  O   UNL     1       3.349  -6.636  -4.567  0.00  0.00    -0.506 OA
ATOM      9  H   UNL     1       3.358  -6.247  -5.453  0.00  0.00    +0.292 HD
ENDBRANCH   7   8
BRANCH   5  10
ATOM     10  O   UNL     1       7.559  -8.750  -3.919  0.00  0.00    -0.507 OA
ATOM     11  H   UNL     1       7.466  -9.520  -3.341  0.00  0.00    +0.292 HD
ENDBRANCH   5  10
BRANCH   3  12
ATOM     12  O   UNL     1       6.519  -4.751  -1.565  0.00  0.00    -0.506 OA
ATOM     13  H   UNL     1       6.347  -4.980  -0.642  0.00  0.00    +0.292 HD
ENDBRANCH   3  12
ENDBRANCH   1   2
BRANCH   1  14
ATOM     14  C   UNL     1       4.443  -3.293  -3.420  0.00  0.00    +0.239 C 
ATOM     15  O   UNL     1       3.644  -2.548  -3.947  0.00  0.00    -0.273 OA
ATOM     16  N   UNL     1       5.756  -2.987  -3.426  0.00  0.00    -0.309 N 
ATOM     17  H   UNL     1       6.416  -3.681  -3.271  0.00  0.00    +0.149 HD
BRANCH  16  18
ATOM     18  C   UNL     1       6.185  -1.608  -3.666  0.00  0.00    +0.026 C 
ATOM     19  C   UNL     1       5.598  -0.695  -2.587  0.00  0.00    +0.031 C 
ATOM     20  C   UNL     1       7.713  -1.534  -3.621  0.00  0.00    +0.031 C 
ATOM     21  C   UNL     1       5.694  -1.153  -5.042  0.00  0.00    +0.031 C 
ENDBRANCH  16  18
ENDBRANCH   1  14
BRANCH   1  22
ATOM     22  N   UNL     1       2.636  -4.905  -3.261  0.00  0.00    -0.282 N 
ATOM     23  C   UNL     1       2.223  -4.432  -4.454  0.00  0.00    +0.248 C 
ATOM     24  O   UNL     1       1.047  -4.184  -4.636  0.00  0.00    -0.270 OA
BRANCH  23  25
ATOM     25  C   UNL     1       3.201  -4.213  -5.540  0.00  0.00    +0.039 A 
ATOM     26  C   UNL     1       4.568  -4.351  -5.292  0.00  0.00    +0.013 A 
ATOM     27  C   UNL     1       5.476  -4.147  -6.310  0.00  0.00    +0.003 A 
ATOM     28  C   UNL     1       5.034  -3.805  -7.577  0.00  0.00    +0.033 A 
ATOM     29  C   UNL     1       3.681  -3.667  -7.830  0.00  0.00    +0.127 A 
ATOM     30  C   UNL     1       2.762  -3.875  -6.821  0.00  0.00    +0.045 A 
BRANCH  29  31
ATOM     31  N   UNL     1       3.217  -3.301  -9.187  0.00  0.00    +0.056 N 
ATOM     32  O   UNL     1       4.021  -3.124 -10.073  0.00  0.00    -0.126 OA
ATOM     33  O   UNL     1       2.035  -3.180  -9.410  0.00  0.00    -0.126 OA
ENDBRANCH  29  31
ENDBRANCH  23  25
BRANCH  22  34
ATOM     34  C   UNL     1       1.752  -5.763  -2.468  0.00  0.00    +0.109 C 
BRANCH  34  35
ATOM     35  C   UNL     1       0.985  -4.909  -1.456  0.00  0.00    +0.019 C 
BRANCH  35  36
ATOM     36  C   UNL     1       0.062  -5.806  -0.629  0.00  0.00    +0.002 C 
BRANCH  36  37
ATOM     37  C   UNL     1      -0.706  -4.952   0.383  0.00  0.00    -0.000 C 
BRANCH  37  39
ATOM     38  C   UNL     1      -2.396  -4.995   2.223  0.00  0.00    +0.004 C 
ATOM     39  C   UNL     1      -1.628  -5.849   1.211  0.00  0.00    -0.003 C 
ENDBRANCH  37  39
ENDBRANCH  36  37
ENDBRANCH  35  36
ENDBRANCH  34  35
ENDBRANCH  22  34
ENDBRANCH   1  22
TORSDOF 14
