REMARK  Name = ZINC06294131
REMARK  6 active torsions:
REMARK  status: ('A' for Active; 'I' for Inactive)
REMARK    1  A    between atoms: C_1  and  C_2
REMARK    2  A    between atoms: C_3  and  C_22
REMARK    3  A    between atoms: C_4  and  C_14
REMARK    4  A    between atoms: C_19  and  O_20
REMARK    5  A    between atoms: O_20  and  C_21
REMARK    6  A    between atoms: N_24  and  C_25
REMARK                            x       y       z     vdW  Elec       q    Type
REMARK                         _______ _______ _______ _____ _____    ______ ____
ROOT
ATOM      1  C   UNL     1      -3.917   7.248   0.190  0.00  0.00    +0.061 C 
ATOM      2  C   UNL     1      -2.698   8.133   0.148  0.00  0.00    +0.014 C 
ATOM      3  C   UNL     1      -1.475   7.581   0.085  0.00  0.00    +0.043 C 
ATOM      4  C   UNL     1      -0.239   8.431   0.027  0.00  0.00    +0.094 C 
ATOM      5  C   UNL     1      -0.529   9.838   0.484  0.00  0.00    +0.024 C 
ATOM      6  C   UNL     1      -1.797  10.300   0.532  0.00  0.00    +0.015 C 
ATOM      7  N   UNL     1      -2.844   9.492   0.179  0.00  0.00    -0.321 N 
ATOM      8  C   UNL     1      -2.094  11.711   0.977  0.00  0.00    +0.051 C 
ATOM      9  C   UNL     1      -1.042  12.162   1.993  0.00  0.00    +0.014 C 
ATOM     10  C   UNL     1       0.340  12.062   1.339  0.00  0.00    +0.080 C 
ATOM     11  C   UNL     1       0.554  10.652   0.859  0.00  0.00    +0.162 C 
ATOM     12  O   UNL     1       1.684  10.209   0.794  0.00  0.00    -0.292 OA
ATOM     13  H   UNL     1      -3.811   9.948  -0.081  0.00  0.00    +0.152 HD
ENDROOT
BRANCH   4  14
ATOM     14  C   UNL     1       0.272   8.466  -1.390  0.00  0.00    +0.006 A 
ATOM     15  C   UNL     1      -0.527   8.963  -2.401  0.00  0.00    +0.008 A 
ATOM     16  C   UNL     1      -0.059   8.997  -3.701  0.00  0.00    +0.001 A 
ATOM     17  C   UNL     1       1.211   8.532  -3.993  0.00  0.00    +0.004 A 
ATOM     18  C   UNL     1       2.013   8.033  -2.986  0.00  0.00    +0.046 A 
ATOM     19  C   UNL     1       1.547   8.004  -1.679  0.00  0.00    +0.124 A 
BRANCH  19  20
ATOM     20  O   UNL     1       2.337   7.519  -0.685  0.00  0.00    -0.495 OA
ATOM     21  C   UNL     1       3.639   7.061  -1.057  0.00  0.00    +0.277 C 
ENDBRANCH  19  20
ENDBRANCH   4  14
BRANCH   3  22
ATOM     22  C   UNL     1      -1.350   6.170   0.065  0.00  0.00    +0.247 C 
ATOM     23  O   UNL     1      -1.146   5.563   1.101  0.00  0.00    -0.270 OA
ATOM     24  N   UNL     1      -1.456   5.500  -1.099  0.00  0.00    -0.282 N 
ATOM     25  H   UNL     1      -1.543   6.053  -2.046  0.00  0.00    +0.155 HD
BRANCH  24  26
ATOM     26  C   UNL     1      -1.456   4.101  -1.104  0.00  0.00    +0.034 A 
ATOM     27  C   UNL     1      -1.028   3.409  -2.230  0.00  0.00    +0.026 A 
ATOM     28  C   UNL     1      -1.028   2.028  -2.232  0.00  0.00    +0.040 A 
ATOM     29  C   UNL     1      -1.453   1.333  -1.113  0.00  0.00    +0.124 A 
ATOM     30  C   UNL     1      -1.886   2.020   0.009  0.00  0.00    +0.040 A 
ATOM     31  C   UNL     1      -1.882   3.401   0.018  0.00  0.00    +0.026 A 
ATOM     32  F   UNL     1      -1.452  -0.018  -1.117  0.00  0.00    -0.205 F 
ENDBRANCH  24  26
ENDBRANCH   3  22
TORSDOF 4
