REMARK  Name = ZINC45442133
REMARK  13 active torsions:
REMARK  status: ('A' for Active; 'I' for Inactive)
REMARK    1  A    between atoms: C_1  and  C_2
REMARK    2  A    between atoms: C_2  and  C_3
REMARK    3  A    between atoms: C_3  and  C_31
REMARK    4  A    between atoms: N_6  and  N_10
REMARK    5  A    between atoms: C_11  and  C_13
REMARK    6  A    between atoms: C_13  and  S_14
REMARK    7  A    between atoms: S_14  and  C_15
REMARK    8  A    between atoms: C_18  and  C_21
REMARK    9  A    between atoms: N_19  and  N_20
REMARK   10  A    between atoms: C_24  and  C_27
REMARK   11  A    between atoms: C_27  and  C_28
REMARK   12  A    between atoms: C_27  and  C_29
REMARK   13  A    between atoms: C_27  and  C_30
REMARK                            x       y       z     vdW  Elec       q    Type
REMARK                         _______ _______ _______ _____ _____    ______ ____
ROOT
ATOM      1  C   UNL     1      -1.257  -7.065   5.681  0.00  0.00    +0.209 A 
ATOM      2  N   UNL     1      -2.159  -7.875   5.173  0.00  0.00    -0.121 NA
ATOM      3  N   UNL     1      -2.210  -8.963   5.855  0.00  0.00    -0.127 NA
ATOM      4  C   UNL     1      -1.344  -8.915   6.840  0.00  0.00    +0.182 A 
ATOM      5  N   UNL     1      -0.703  -7.700   6.755  0.00  0.00    -0.224 N 
ENDROOT
BRANCH   4   6
ATOM      6  C   UNL     1      -1.100  -9.969   7.848  0.00  0.00    +0.021 A 
ATOM      7  C   UNL     1      -0.393  -9.673   9.014  0.00  0.00    +0.012 A 
ATOM      8  C   UNL     1      -0.169 -10.661   9.951  0.00  0.00    +0.005 A 
ATOM      9  C   UNL     1      -0.643 -11.943   9.735  0.00  0.00    -0.042 A 
ATOM     10  C   UNL     1      -1.344 -12.243   8.580  0.00  0.00    +0.005 A 
ATOM     11  C   UNL     1      -1.580 -11.263   7.638  0.00  0.00    +0.012 A 
BRANCH   9  12
ATOM     12  C   UNL     1      -0.394 -13.018  10.762  0.00  0.00    -0.013 C 
ATOM     13  C   UNL     1      -1.027 -12.607  12.093  0.00  0.00    +0.015 C 
ATOM     14  C   UNL     1      -1.016 -14.332  10.286  0.00  0.00    +0.015 C 
ATOM     15  C   UNL     1       1.113 -13.205  10.949  0.00  0.00    +0.015 C 
ENDBRANCH   9  12
ENDBRANCH   4   6
BRANCH   5  16
ATOM     16  N   UNL     1       0.281  -7.227   7.577  0.00  0.00    -0.295 N 
ATOM     17  H   UNL     1      -0.111  -6.721   8.356  0.00  0.00    +0.163 HD
ATOM     18  H   UNL     1       0.877  -7.976   7.896  0.00  0.00    +0.163 HD
ENDBRANCH   5  16
BRANCH   1  19
ATOM     19  S   UNL     1      -0.835  -5.463   5.082  0.00  0.00    -0.075 S 
BRANCH  19  20
ATOM     20  C   UNL     1      -1.927  -5.227   3.653  0.00  0.00    +0.174 C 
BRANCH  20  22
ATOM     21  N   UNL     1      -2.365  -3.480   1.957  0.00  0.00    -0.223 N 
ATOM     22  C   UNL     1      -1.666  -3.875   3.039  0.00  0.00    +0.240 C 
ATOM     23  O   UNL     1      -0.826  -3.144   3.518  0.00  0.00    -0.273 OA
ATOM     24  H   UNL     1      -3.037  -4.065   1.574  0.00  0.00    +0.174 HD
BRANCH  21  28
ATOM     25  C   UNL     1      -1.433  -0.534   0.013  0.00  0.00    +0.111 C 
ATOM     26  C   UNL     1      -1.447  -2.033   0.236  0.00  0.00    +0.263 C 
ATOM     27  O   UNL     1      -0.952  -2.883  -0.472  0.00  0.00    -0.271 OA
ATOM     28  N   UNL     1      -2.123  -2.224   1.386  0.00  0.00    -0.137 N 
ATOM     29  C   UNL     1      -2.534  -1.066   1.915  0.00  0.00    +0.326 C 
ATOM     30  O   UNL     1      -3.163  -0.982   2.952  0.00  0.00    -0.251 OA
ATOM     31  N   UNL     1      -2.172  -0.004   1.172  0.00  0.00    -0.284 N 
ATOM     32  C   UNL     1      -2.148  -0.174  -1.291  0.00  0.00    +0.041 C 
ATOM     33  H   UNL     1      -2.361   0.928   1.363  0.00  0.00    +0.151 HD
BRANCH  25  35
ATOM     34  C   UNL     1      -0.019   1.526   0.010  0.00  0.00    +0.006 C 
ATOM     35  C   UNL     1       0.002  -0.004   0.002  0.00  0.00    +0.032 C 
ENDBRANCH  25  35
ENDBRANCH  21  28
ENDBRANCH  20  22
ENDBRANCH  19  20
ENDBRANCH   1  19
TORSDOF 8
