REMARK  Name = ZINC66402185
REMARK  5 active torsions:
REMARK  status: ('A' for Active; 'I' for Inactive)
REMARK    1  A    between atoms: C_6  and  C_7
REMARK    2  A    between atoms: C_7  and  C_9
REMARK    3  A    between atoms: C_7  and  N_15
REMARK    4  A    between atoms: N_18  and  C_19
REMARK    5  A    between atoms: C_21  and  C_27
REMARK                            x       y       z     vdW  Elec       q    Type
REMARK                         _______ _______ _______ _____ _____    ______ ____
ROOT
ATOM      1  N   UNL     1      -1.248  -2.239   0.714  0.00  0.00    -0.290 N 
ATOM      2  C   UNL     1      -1.561  -2.375   2.017  0.00  0.00    +0.305 C 
ATOM      3  O   UNL     1      -2.204  -1.510   2.582  0.00  0.00    -0.252 OA
ATOM      4  N   UNL     1      -1.161  -3.468   2.696  0.00  0.00    -0.265 N 
ATOM      5  H   UNL     1      -0.796  -2.958   0.246  0.00  0.00    +0.151 HD
ATOM      6  H   UNL     1      -0.712  -4.191   2.230  0.00  0.00    +0.157 HD
ENDROOT
BRANCH   4   7
ATOM      7  C   UNL     1      -1.393  -3.561   4.076  0.00  0.00    +0.100 A 
ATOM      8  C   UNL     1      -2.123  -4.599   4.586  0.00  0.00    +0.042 A 
ATOM      9  C   UNL     1      -2.341  -4.669   5.970  0.00  0.00    +0.073 A 
ATOM     10  C   UNL     1      -1.831  -3.716   6.783  0.00  0.00    +0.098 A 
ATOM     11  N   UNL     1      -1.106  -2.683   6.278  0.00  0.00    -0.327 N 
ATOM     12  H   UNL     1      -0.748  -2.010   6.878  0.00  0.00    +0.168 HD
ATOM     13  C   UNL     1      -0.872  -2.588   4.955  0.00  0.00    +0.270 A 
ATOM     14  O   UNL     1      -0.214  -1.658   4.516  0.00  0.00    -0.266 OA
BRANCH   9  15
ATOM     15  C   UNL     1      -3.143  -5.805   6.550  0.00  0.00    +0.419 C 
ATOM     16  F   UNL     1      -3.222  -5.658   7.939  0.00  0.00    -0.166 F 
ATOM     17  F   UNL     1      -4.431  -5.792   6.005  0.00  0.00    -0.166 F 
ATOM     18  F   UNL     1      -2.519  -7.020   6.244  0.00  0.00    -0.166 F 
ENDBRANCH   9  15
ENDBRANCH   4   7
BRANCH   1  19
ATOM     19  C   UNL     1      -1.591  -1.005   0.003  0.00  0.00    +0.133 C 
BRANCH  19  25
ATOM     20  C   UNL     1      -0.782   1.333   0.379  0.00  0.00    +0.008 A 
ATOM     21  C   UNL     1       0.235   2.256   0.538  0.00  0.00    +0.038 A 
ATOM     22  C   UNL     1       1.556   1.843   0.493  0.00  0.00    +0.123 A 
ATOM     23  C   UNL     1       1.856   0.507   0.288  0.00  0.00    +0.038 A 
ATOM     24  C   UNL     1       0.838  -0.413   0.130  0.00  0.00    +0.008 A 
ATOM     25  C   UNL     1      -0.481  -0.000   0.175  0.00  0.00    -0.025 A 
ATOM     26  F   UNL     1       2.551   2.744   0.647  0.00  0.00    -0.205 F 
ENDBRANCH  19  25
BRANCH  19  27
ATOM     27  C   UNL     1      -1.777  -1.308  -1.486  0.00  0.00    +0.143 C 
ATOM     28  C   UNL     1      -2.879  -2.374  -1.669  0.00  0.00    +0.036 C 
ATOM     29  C   UNL     1      -2.304  -3.249  -2.816  0.00  0.00    +0.031 C 
ATOM     30  C   UNL     1      -0.787  -3.178  -2.508  0.00  0.00    +0.160 C 
ATOM     31  O   UNL     1      -0.563  -1.841  -2.028  0.00  0.00    -0.374 OA
ENDBRANCH  19  27
ENDBRANCH   1  19
TORSDOF 5
