REMARK  Name = ZINC49686216
REMARK  5 active torsions:
REMARK  status: ('A' for Active; 'I' for Inactive)
REMARK    1  A    between atoms: C_1  and  C_2
REMARK    2  A    between atoms: C_4  and  C_8
REMARK    3  A    between atoms: C_5  and  C_7
REMARK    4  A    between atoms: C_8  and  N_9
REMARK    5  A    between atoms: N_9  and  C_10
REMARK                            x       y       z     vdW  Elec       q    Type
REMARK                         _______ _______ _______ _____ _____    ______ ____
ROOT
ATOM      1  C   UNL     1      -3.117  -4.676   1.602  0.00  0.00    +0.029 A 
ATOM      2  C   UNL     1      -3.918  -5.133   0.560  0.00  0.00    +0.025 A 
ATOM      3  C   UNL     1      -4.907  -6.061   0.802  0.00  0.00    +0.029 A 
ATOM      4  C   UNL     1      -5.109  -6.547   2.091  0.00  0.00    +0.066 A 
ATOM      5  C   UNL     1      -4.307  -6.090   3.138  0.00  0.00    +0.067 A 
ATOM      6  C   UNL     1      -3.307  -5.158   2.887  0.00  0.00    +0.050 A 
ATOM      7  N   UNL     1      -4.495  -6.565   4.433  0.00  0.00    -0.316 N 
ATOM      8  H   UNL     1      -3.933  -6.241   5.154  0.00  0.00    +0.169 HD
ATOM      9  C   UNL     1      -5.458  -7.474   4.687  0.00  0.00    +0.314 A 
ATOM     10  O   UNL     1      -5.627  -7.890   5.816  0.00  0.00    -0.262 OA
ATOM     11  C   UNL     1      -6.315  -7.962   3.569  0.00  0.00    +0.314 A 
ATOM     12  O   UNL     1      -7.188  -8.781   3.777  0.00  0.00    -0.262 OA
ATOM     13  N   UNL     1      -6.112  -7.485   2.324  0.00  0.00    -0.316 N 
ATOM     14  H   UNL     1      -6.664  -7.797   1.590  0.00  0.00    +0.169 HD
ENDROOT
BRANCH   1  15
ATOM     15  N   UNL     1      -2.115  -3.734   1.351  0.00  0.00    -0.340 N 
ATOM     16  H   UNL     1      -1.553  -3.418   2.076  0.00  0.00    +0.146 HD
BRANCH  15  17
ATOM     17  C   UNL     1      -1.912  -3.224  -0.008  0.00  0.00    +0.137 C 
BRANCH  17  21
ATOM     18  C   UNL     1      -0.018   1.503   0.010  0.00  0.00    +0.051 C 
ATOM     19  C   UNL     1       0.002  -0.004   0.002  0.00  0.00    -0.013 A 
ATOM     20  C   UNL     1      -1.039  -0.872   0.002  0.00  0.00    +0.016 A 
ATOM     21  C   UNL     1      -0.780  -2.230  -0.007  0.00  0.00    -0.020 A 
ATOM     22  C   UNL     1       0.507  -2.653  -0.016  0.00  0.00    -0.008 A 
ATOM     23  S   UNL     1       1.404  -1.109  -0.018  0.00  0.00    -0.098 S 
ATOM     24  C   UNL     1       1.043  -4.062  -0.027  0.00  0.00    +0.052 C 
ENDBRANCH  17  21
ENDBRANCH  15  17
ENDBRANCH   1  15
TORSDOF 3
