REMARK  Name = ZINC59016530
REMARK  12 active torsions:
REMARK  status: ('A' for Active; 'I' for Inactive)
REMARK    1  A    between atoms: C_1  and  C_2
REMARK    2  A    between atoms: C_2  and  N_3
REMARK    3  A    between atoms: N_3  and  C_4
REMARK    4  A    between atoms: N_3  and  C_6
REMARK    5  A    between atoms: C_4  and  C_5
REMARK    6  A    between atoms: C_9  and  N_12
REMARK    7  A    between atoms: C_13  and  C_15
REMARK    8  A    between atoms: C_15  and  S_16
REMARK    9  A    between atoms: S_16  and  C_17
REMARK   10  A    between atoms: N_22  and  N_23
REMARK   11  A    between atoms: C_24  and  C_25
REMARK   12  A    between atoms: C_24  and  C_26
REMARK                            x       y       z     vdW  Elec       q    Type
REMARK                         _______ _______ _______ _____ _____    ______ ____
ROOT
ATOM      1  C   UNL     1       3.803 -10.739   1.836  0.00  0.00    +0.211 A 
ATOM      2  N   UNL     1       4.816 -11.580   2.069  0.00  0.00    -0.186 NA
ATOM      3  C   UNL     1       4.382 -12.822   2.021  0.00  0.00    +0.232 A 
ATOM      4  N   UNL     1       3.059 -12.790   1.751  0.00  0.00    -0.245 N 
ATOM      5  N   UNL     1       2.708 -11.435   1.642  0.00  0.00    -0.144 NA
ATOM      6  N   UNL     1       5.145 -13.959   2.212  0.00  0.00    -0.205 N 
ATOM      7  H   UNL     1       4.733 -14.835   2.156  0.00  0.00    +0.177 HD
ATOM      8  H   UNL     1       2.467 -13.553   1.655  0.00  0.00    +0.192 HD
ENDROOT
BRANCH   6   9
ATOM      9  N   UNL     1       6.514 -13.845   2.486  0.00  0.00    -0.184 NA
ATOM     10  C   UNL     1       7.251 -14.911   2.566  0.00  0.00    +0.063 C 
ATOM     11  C   UNL     1       8.695 -14.799   2.981  0.00  0.00    +0.068 C 
BRANCH  10  12
ATOM     12  C   UNL     1       6.674 -16.231   2.252  0.00  0.00    +0.001 A 
ATOM     13  C   UNL     1       6.195 -16.498   0.967  0.00  0.00    +0.013 A 
ATOM     14  C   UNL     1       5.656 -17.733   0.676  0.00  0.00    +0.050 A 
ATOM     15  C   UNL     1       5.588 -18.714   1.655  0.00  0.00    +0.166 A 
ATOM     16  C   UNL     1       6.064 -18.454   2.939  0.00  0.00    +0.167 A 
ATOM     17  C   UNL     1       6.611 -17.220   3.236  0.00  0.00    +0.059 A 
ATOM     18  O   UNL     1       5.883 -19.570   3.705  0.00  0.00    -0.453 OA
ATOM     19  C   UNL     1       4.922 -20.373   2.994  0.00  0.00    +0.466 C 
ATOM     20  O   UNL     1       5.109 -19.992   1.618  0.00  0.00    -0.453 OA
ENDBRANCH  10  12
ENDBRANCH   6   9
BRANCH   1  21
ATOM     21  S   UNL     1       3.919  -8.981   1.803  0.00  0.00    -0.075 S 
BRANCH  21  22
ATOM     22  C   UNL     1       2.225  -8.437   1.450  0.00  0.00    +0.173 C 
BRANCH  22  24
ATOM     23  N   UNL     1       1.019  -6.299   1.143  0.00  0.00    -0.285 N 
ATOM     24  C   UNL     1       2.182  -6.932   1.394  0.00  0.00    +0.227 C 
ATOM     25  O   UNL     1       3.195  -6.289   1.573  0.00  0.00    -0.275 OA
ATOM     26  H   UNL     1       0.197  -6.808   1.065  0.00  0.00    +0.155 HD
BRANCH  23  30
ATOM     27  C   UNL     1       0.951  -2.157   0.705  0.00  0.00    +0.014 A 
ATOM     28  C   UNL     1       2.046  -2.879   0.268  0.00  0.00    +0.023 A 
ATOM     29  C   UNL     1       2.072  -4.252   0.412  0.00  0.00    +0.025 A 
ATOM     30  C   UNL     1       0.996  -4.908   0.997  0.00  0.00    +0.034 A 
ATOM     31  C   UNL     1      -0.102  -4.179   1.435  0.00  0.00    +0.025 A 
ATOM     32  C   UNL     1      -0.119  -2.806   1.293  0.00  0.00    +0.023 A 
BRANCH  27  33
ATOM     33  N   UNL     1       0.929  -0.766   0.558  0.00  0.00    -0.394 NA
ATOM     34  H   UNL     1       0.065  -0.403   0.931  0.00  0.00    +0.126 HD
BRANCH  33  36
ATOM     35  C   UNL     1       1.897  -0.438   2.783  0.00  0.00    +0.022 C 
ATOM     36  C   UNL     1       2.062  -0.179   1.285  0.00  0.00    +0.081 C 
ENDBRANCH  33  36
BRANCH  33  37
ATOM     37  C   UNL     1       1.030  -0.423  -0.867  0.00  0.00    +0.081 C 
ATOM     38  C   UNL     1      -0.198  -0.957  -1.608  0.00  0.00    +0.022 C 
ENDBRANCH  33  37
ENDBRANCH  27  33
ENDBRANCH  23  30
ENDBRANCH  22  24
ENDBRANCH  21  22
ENDBRANCH   1  21
TORSDOF 9
