REMARK  Name = ZINC12812995
REMARK  8 active torsions:
REMARK  status: ('A' for Active; 'I' for Inactive)
REMARK    1  A    between atoms: C_4  and  C_7
REMARK    2  A    between atoms: C_7  and  N_50
REMARK    3  A    between atoms: C_8  and  C_9
REMARK    4  A    between atoms: C_8  and  N_50
REMARK    5  A    between atoms: C_9  and  C_10
REMARK    6  A    between atoms: C_13  and  C_14
REMARK    7  A    between atoms: C_13  and  N_50
REMARK    8  A    between atoms: N_16  and  C_17
REMARK                            x       y       z     vdW  Elec       q    Type
REMARK                         _______ _______ _______ _____ _____    ______ ____
ROOT
ATOM      1  N   UNL     1      -0.221  -0.500   1.349  0.00  0.00    +0.388 N 
ATOM      2  H   UNL     1       0.473  -0.228   2.055  0.00  0.00    -0.081 HD
ENDROOT
BRANCH   1   3
ATOM      3  C   UNL     1       0.243  -0.049   0.020  0.00  0.00    -0.042 C 
BRANCH   3   7
ATOM      4  C   UNL     1       1.236   4.100   0.241  0.00  0.00    +0.000 A 
ATOM      5  C   UNL     1       2.195   3.144   0.519  0.00  0.00    +0.000 A 
ATOM      6  C   UNL     1       1.874   1.801   0.448  0.00  0.00    +0.002 A 
ATOM      7  C   UNL     1       0.594   1.415   0.098  0.00  0.00    -0.064 A 
ATOM      8  C   UNL     1      -0.364   2.371  -0.186  0.00  0.00    +0.002 A 
ATOM      9  C   UNL     1      -0.044   3.713  -0.109  0.00  0.00    +0.000 A 
ENDBRANCH   3   7
ENDBRANCH   1   3
BRANCH   1  10
ATOM     10  C   UNL     1      -1.514   0.139   1.675  0.00  0.00    -0.068 C 
BRANCH  10  11
ATOM     11  C   UNL     1      -2.563  -0.200   0.615  0.00  0.00    +0.077 C 
BRANCH  11  12
ATOM     12  C   UNL     1      -3.852   0.511   0.938  0.00  0.00    +0.209 C 
ATOM     13  O   UNL     1      -3.924   1.219   1.920  0.00  0.00    -0.276 OA
ATOM     14  N   UNL     1      -4.924   0.360   0.136  0.00  0.00    -0.329 N 
ATOM     15  H   UNL     1      -4.866  -0.206  -0.650  0.00  0.00    +0.145 HD
ATOM     16  H   UNL     1      -5.754   0.817   0.343  0.00  0.00    +0.145 HD
ENDBRANCH  11  12
ENDBRANCH  10  11
ENDBRANCH   1  10
BRANCH   1  17
ATOM     17  C   UNL     1      -0.367  -1.970   1.361  0.00  0.00    +0.019 C 
BRANCH  17  18
ATOM     18  C   UNL     1      -0.470  -2.435   2.791  0.00  0.00    +0.201 C 
ATOM     19  O   UNL     1      -0.340  -1.640   3.697  0.00  0.00    -0.278 OA
ATOM     20  N   UNL     1      -0.708  -3.733   3.062  0.00  0.00    -0.287 N 
ATOM     21  H   UNL     1      -0.739  -4.382   2.341  0.00  0.00    +0.155 HD
BRANCH  20  22
ATOM     22  C   UNL     1      -0.909  -4.146   4.381  0.00  0.00    +0.041 A 
ATOM     23  C   UNL     1      -0.325  -3.456   5.422  0.00  0.00    +0.024 A 
ATOM     24  C   UNL     1      -0.519  -3.859   6.739  0.00  0.00    +0.002 A 
ATOM     25  C   UNL     1      -1.290  -4.941   7.038  0.00  0.00    +0.008 A 
ATOM     26  C   UNL     1      -1.903  -5.671   6.006  0.00  0.00    -0.016 A 
ATOM     27  C   UNL     1      -1.717  -5.268   4.660  0.00  0.00    +0.003 A 
ATOM     28  C   UNL     1      -2.327  -6.001   3.630  0.00  0.00    +0.010 A 
ATOM     29  C   UNL     1      -3.096  -7.082   3.936  0.00  0.00    +0.001 A 
ATOM     30  C   UNL     1      -3.283  -7.477   5.260  0.00  0.00    +0.001 A 
ATOM     31  C   UNL     1      -2.704  -6.793   6.284  0.00  0.00    +0.008 A 
ENDBRANCH  20  22
ENDBRANCH  17  18
ENDBRANCH   1  17
TORSDOF 8
