REMARK  Name = ZINC05338486
REMARK  5 active torsions:
REMARK  status: ('A' for Active; 'I' for Inactive)
REMARK    1  A    between atoms: C_4  and  C_7
REMARK    2  A    between atoms: N_9  and  C_27
REMARK    3  A    between atoms: C_11  and  C_20
REMARK    4  A    between atoms: N_13  and  C_14
REMARK    5  A    between atoms: C_23  and  N_26
REMARK                            x       y       z     vdW  Elec       q    Type
REMARK                         _______ _______ _______ _____ _____    ______ ____
ROOT
ATOM      1  C   UNL     1       1.282   2.102   0.001  0.00  0.00    +0.232 C 
ATOM      2  N   UNL     1      -0.017   1.402   0.010  0.00  0.00    -0.196 N 
ATOM      3  N   UNL     1       0.002  -0.004   0.002  0.00  0.00    -0.160 NA
ATOM      4  C   UNL     1       1.064  -0.657   0.466  0.00  0.00    +0.161 C 
ATOM      5  N   UNL     1       2.129  -0.014   0.938  0.00  0.00    -0.244 N 
ATOM      6  N   UNL     1       2.148   1.392   0.962  0.00  0.00    -0.225 N 
ATOM      7  H   UNL     1       2.916  -0.531   1.275  0.00  0.00    +0.172 HD
ENDROOT
BRANCH   1  11
ATOM      8  C   UNL     1       3.000   1.949  -3.907  0.00  0.00    +0.000 A 
ATOM      9  C   UNL     1       3.818   1.998  -2.794  0.00  0.00    +0.000 A 
ATOM     10  C   UNL     1       3.262   2.048  -1.529  0.00  0.00    +0.007 A 
ATOM     11  C   UNL     1       1.888   2.048  -1.378  0.00  0.00    -0.006 A 
ATOM     12  C   UNL     1       1.070   1.993  -2.490  0.00  0.00    +0.007 A 
ATOM     13  C   UNL     1       1.626   1.948  -3.756  0.00  0.00    +0.000 A 
ENDBRANCH   1  11
BRANCH   6  14
ATOM     14  C   UNL     1       2.955   2.090   1.861  0.00  0.00    +0.050 A 
ATOM     15  C   UNL     1       2.959   3.479   1.860  0.00  0.00    +0.025 A 
ATOM     16  C   UNL     1       3.755   4.166   2.755  0.00  0.00    +0.002 A 
ATOM     17  C   UNL     1       4.557   3.473   3.643  0.00  0.00    +0.000 A 
ATOM     18  C   UNL     1       4.560   2.090   3.643  0.00  0.00    +0.002 A 
ATOM     19  C   UNL     1       3.762   1.397   2.756  0.00  0.00    +0.025 A 
ENDBRANCH   6  14
BRANCH   4  20
ATOM     20  C   UNL     1       1.061  -2.135   0.457  0.00  0.00    +0.018 A 
ATOM     21  C   UNL     1      -0.049  -2.829  -0.029  0.00  0.00    +0.013 A 
ATOM     22  C   UNL     1      -0.048  -4.206  -0.040  0.00  0.00    +0.023 A 
ATOM     23  C   UNL     1       1.055  -4.906   0.440  0.00  0.00    +0.025 A 
ATOM     24  C   UNL     1       2.161  -4.216   0.930  0.00  0.00    +0.023 A 
ATOM     25  C   UNL     1       2.167  -2.840   0.939  0.00  0.00    +0.013 A 
BRANCH  23  26
ATOM     26  N   UNL     1       1.052  -6.297   0.432  0.00  0.00    -0.358 N 
ATOM     27  H   UNL     1       1.820  -6.786   0.767  0.00  0.00    +0.142 HD
ATOM     28  H   UNL     1       0.282  -6.779   0.091  0.00  0.00    +0.142 HD
ENDBRANCH  23  26
ENDBRANCH   4  20
BRANCH   2  29
ATOM     29  C   UNL     1      -1.220   2.110   0.019  0.00  0.00    +0.054 A 
ATOM     30  C   UNL     1      -1.210   3.499   0.033  0.00  0.00    +0.025 A 
ATOM     31  C   UNL     1      -2.402   4.196   0.037  0.00  0.00    +0.002 A 
ATOM     32  C   UNL     1      -3.605   3.513   0.039  0.00  0.00    +0.000 A 
ATOM     33  C   UNL     1      -3.618   2.130   0.031  0.00  0.00    +0.002 A 
ATOM     34  C   UNL     1      -2.429   1.426   0.021  0.00  0.00    +0.025 A 
ENDBRANCH   2  29
TORSDOF 5
