REMARK  Name = ZINC09123929
REMARK  2 active torsions:
REMARK  status: ('A' for Active; 'I' for Inactive)
REMARK    1  A    between atoms: C_4  and  N_11
REMARK    2  A    between atoms: C_6  and  C_7
REMARK                            x       y       z     vdW  Elec       q    Type
REMARK                         _______ _______ _______ _____ _____    ______ ____
ROOT
ATOM      1  N   UNL     1       3.790  -3.033   1.338  0.00  0.00    -0.209 N 
ATOM      2  C   UNL     1       3.414  -4.211   0.826  0.00  0.00    +0.228 C 
ATOM      3  O   UNL     1       4.164  -5.116   0.528  0.00  0.00    -0.275 OA
ATOM      4  C   UNL     1       1.910  -4.237   0.676  0.00  0.00    +0.074 C 
ATOM      5  C   UNL     1       1.545  -4.240  -0.820  0.00  0.00    -0.054 C 
ATOM      6  C   UNL     1       2.708  -4.814  -1.649  0.00  0.00    -0.016 C 
ATOM      7  C   UNL     1       3.570  -3.600  -2.046  0.00  0.00    -0.020 C 
ATOM      8  C   UNL     1       2.876  -2.385  -1.400  0.00  0.00    -0.076 C 
ATOM      9  C   UNL     1       0.908  -2.131  -0.019  0.00  0.00    +0.053 C 
ATOM     10  C   UNL     1       1.512  -2.839   1.198  0.00  0.00    +0.089 C 
ATOM     11  C   UNL     1       2.782  -2.189   1.586  0.00  0.00    +0.229 C 
ATOM     12  O   UNL     1       2.899  -1.075   2.049  0.00  0.00    -0.275 OA
ATOM     13  C   UNL     1       1.228  -0.662  -0.013  0.00  0.00    -0.024 A 
ATOM     14  C   UNL     1       2.407   0.050  -0.021  0.00  0.00    +0.043 A 
ATOM     15  C   UNL     1       2.380   1.435  -0.013  0.00  0.00    +0.124 A 
ATOM     16  C   UNL     1       1.165   2.099   0.002  0.00  0.00    +0.040 A 
ATOM     17  C   UNL     1      -0.017   1.389   0.010  0.00  0.00    +0.026 A 
ATOM     18  C   UNL     1       0.002  -0.004   0.002  0.00  0.00    +0.036 A 
ATOM     19  N   UNL     1      -1.043  -0.932   0.007  0.00  0.00    -0.286 N 
ATOM     20  C   UNL     1      -0.595  -2.202  -0.004  0.00  0.00    +0.212 C 
ATOM     21  O   UNL     1      -1.272  -3.208  -0.003  0.00  0.00    -0.277 OA
ATOM     22  F   UNL     1       3.536   2.135  -0.020  0.00  0.00    -0.205 F 
ATOM     23  H   UNL     1      -1.982  -0.689   0.018  0.00  0.00    +0.155 HD
ATOM     24  N   UNL     1       1.490  -2.838  -1.163  0.00  0.00    +0.395 N 
ATOM     25  H   UNL     1       0.918  -2.688  -2.003  0.00  0.00    -0.079 HD
ENDROOT
BRANCH   1  29
ATOM     26  C   UNL     1       7.776  -2.073   2.099  0.00  0.00    +0.014 A 
ATOM     27  C   UNL     1       7.013  -2.680   3.080  0.00  0.00    +0.022 A 
ATOM     28  C   UNL     1       5.692  -3.000   2.832  0.00  0.00    +0.063 A 
ATOM     29  C   UNL     1       5.130  -2.710   1.594  0.00  0.00    +0.063 A 
ATOM     30  C   UNL     1       5.900  -2.105   0.611  0.00  0.00    +0.037 A 
ATOM     31  C   UNL     1       7.219  -1.784   0.868  0.00  0.00    +0.057 A 
ATOM     32 CL   UNL     1       4.735  -3.762   4.064  0.00  0.00    -0.082 Cl
BRANCH  31  33
ATOM     33  C   UNL     1       8.053  -1.122  -0.199  0.00  0.00    +0.417 C 
ATOM     34  F   UNL     1       9.346  -0.903   0.290  0.00  0.00    -0.166 F 
ATOM     35  F   UNL     1       8.115  -1.951  -1.324  0.00  0.00    -0.166 F 
ATOM     36  F   UNL     1       7.474   0.102  -0.552  0.00  0.00    -0.166 F 
ENDBRANCH  31  33
ENDBRANCH   1  29
TORSDOF 2
