REMARK  Name = ZINC20701200
REMARK  4 active torsions:
REMARK  status: ('A' for Active; 'I' for Inactive)
REMARK    1  A    between atoms: C_1  and  C_2
REMARK    2  A    between atoms: C_5  and  N_27
REMARK    3  A    between atoms: C_9  and  C_18
REMARK    4  A    between atoms: C_23  and  O_24
REMARK                            x       y       z     vdW  Elec       q    Type
REMARK                         _______ _______ _______ _____ _____    ______ ____
ROOT
ATOM      1  C   UNL     1      -4.797  -0.268   0.557  0.00  0.00    +0.045 C 
ATOM      2  C   UNL     1      -3.934   0.128  -0.613  0.00  0.00    -0.029 A 
ATOM      3  C   UNL     1      -4.332  -0.192  -1.892  0.00  0.00    +0.007 A 
ATOM      4  C   UNL     1      -3.550   0.166  -2.975  0.00  0.00    +0.033 A 
ATOM      5  C   UNL     1      -2.368   0.852  -2.767  0.00  0.00    +0.132 A 
ATOM      6  C   UNL     1      -1.964   1.180  -1.491  0.00  0.00    +0.011 A 
ATOM      7  C   UNL     1      -2.739   0.814  -0.386  0.00  0.00    +0.037 A 
ATOM      8  N   UNL     1      -2.392   1.083   0.936  0.00  0.00    -0.336 N 
ATOM      9  C   UNL     1      -1.161   1.859   1.168  0.00  0.00    +0.109 C 
ATOM     10  C   UNL     1      -0.154   1.415   0.127  0.00  0.00    +0.029 C 
ATOM     11  C   UNL     1      -0.712   1.925  -1.238  0.00  0.00    +0.051 C 
ATOM     12  C   UNL     1       0.467   1.837  -2.135  0.00  0.00    -0.023 C 
ATOM     13  C   UNL     1       1.566   1.981  -1.404  0.00  0.00    -0.030 C 
ATOM     14  C   UNL     1       1.194   2.142   0.072  0.00  0.00    +0.033 C 
ATOM     15  H   UNL     1      -2.996   0.742   1.789  0.00  0.00    +0.147 HD
ENDROOT
BRANCH   9  16
ATOM     16  C   UNL     1      -1.480   3.320   0.982  0.00  0.00    +0.017 A 
ATOM     17  C   UNL     1      -2.556   3.699   0.201  0.00  0.00    +0.029 A 
ATOM     18  C   UNL     1      -2.849   5.040   0.029  0.00  0.00    +0.043 A 
ATOM     19  C   UNL     1      -2.068   6.005   0.640  0.00  0.00    +0.043 A 
ATOM     20  C   UNL     1      -0.992   5.631   1.423  0.00  0.00    +0.084 A 
ATOM     21  C   UNL     1      -0.699   4.285   1.600  0.00  0.00    +0.140 A 
ATOM     22 CL   UNL     1      -0.013   6.842   2.189  0.00  0.00    -0.080 Cl
ATOM     23 CL   UNL     1      -4.200   5.512  -0.953  0.00  0.00    -0.083 Cl
BRANCH  21  24
ATOM     24  O   UNL     1       0.356   3.914   2.373  0.00  0.00    -0.505 OA
ATOM     25  H   UNL     1       0.975   4.681   2.863  0.00  0.00    +0.292 HD
ENDBRANCH  21  24
ENDBRANCH   9  16
BRANCH   5  26
ATOM     26  N   UNL     1      -1.529   1.236  -3.924  0.00  0.00    +0.057 N 
ATOM     27  O   UNL     1      -1.142   2.385  -4.041  0.00  0.00    -0.126 OA
ATOM     28  O   UNL     1      -1.226   0.404  -4.760  0.00  0.00    -0.126 OA
ENDBRANCH   5  26
TORSDOF 3
