REMARK  Name = ZINC25174847
REMARK  5 active torsions:
REMARK  status: ('A' for Active; 'I' for Inactive)
REMARK    1  A    between atoms: C_1  and  N_2
REMARK    2  A    between atoms: N_6  and  N_7
REMARK    3  A    between atoms: N_7  and  C_8
REMARK    4  A    between atoms: C_11  and  C_14
REMARK    5  A    between atoms: C_17  and  N_18
REMARK                            x       y       z     vdW  Elec       q    Type
REMARK                         _______ _______ _______ _____ _____    ______ ____
ROOT
ATOM      1  C   UNL     1      -0.018   1.461   0.010  0.00  0.00    +0.160 C 
ATOM      2  N   UNL     1       0.002  -0.004   0.002  0.00  0.00    -0.208 N 
ATOM      3  C   UNL     1      -1.111  -0.809   0.003  0.00  0.00    +0.143 C 
ATOM      4  N   UNL     1      -2.365  -0.428   0.011  0.00  0.00    -0.384 N 
ATOM      5  C   UNL     1      -0.599  -2.198  -0.008  0.00  0.00    +0.163 C 
ATOM      6  N   UNL     1      -1.299  -3.311  -0.011  0.00  0.00    -0.176 NA
ATOM      7  C   UNL     1       0.870  -2.059  -0.014  0.00  0.00    +0.184 C 
ATOM      8  N   UNL     1       1.154  -0.790  -0.014  0.00  0.00    -0.160 NA
ATOM      9  H   UNL     1      -2.584   0.517   0.018  0.00  0.00    +0.157 HD
ATOM     10  H   UNL     1      -3.074  -1.090   0.011  0.00  0.00    +0.157 HD
ENDROOT
BRANCH   6  11
ATOM     11  N   UNL     1      -0.697  -4.452  -0.020  0.00  0.00    -0.237 N 
ATOM     12  H   UNL     1       0.272  -4.488  -0.025  0.00  0.00    +0.174 HD
BRANCH  11  13
ATOM     13  C   UNL     1      -1.437  -5.628  -0.023  0.00  0.00    +0.048 A 
ATOM     14  C   UNL     1      -2.829  -5.573  -0.022  0.00  0.00    +0.025 A 
ATOM     15  C   UNL     1      -3.562  -6.731  -0.025  0.00  0.00    +0.017 A 
ATOM     16  C   UNL     1      -2.910  -7.970  -0.030  0.00  0.00    +0.063 A 
ATOM     17  C   UNL     1      -1.512  -8.021  -0.032  0.00  0.00    +0.017 A 
ATOM     18  C   UNL     1      -0.785  -6.859  -0.034  0.00  0.00    +0.025 A 
BRANCH  16  19
ATOM     19  C   UNL     1      -3.695  -9.216  -0.033  0.00  0.00    +0.387 C 
ATOM     20  O   UNL     1      -4.917  -9.170  -0.031  0.00  0.00    -0.241 OA
ATOM     21  O   UNL     1      -3.123 -10.298  -0.037  0.00  0.00    -0.241 OA
ENDBRANCH  16  19
ENDBRANCH  11  13
ENDBRANCH   6  11
BRANCH   7  22
ATOM     22  N   UNL     1       1.793  -3.106  -0.025  0.00  0.00    -0.246 NA
ATOM     23  H   UNL     1       2.743  -2.914  -0.028  0.00  0.00    +0.172 HD
ENDBRANCH   7  22
TORSDOF 4
