REMARK  Name = ZINC04894180
REMARK  7 active torsions:
REMARK  status: ('A' for Active; 'I' for Inactive)
REMARK    1  A    between atoms: C_1  and  C_2
REMARK    2  A    between atoms: C_5  and  C_8
REMARK    3  A    between atoms: C_11  and  C_14
REMARK    4  A    between atoms: C_19  and  C_21
REMARK    5  A    between atoms: C_21  and  S_22
REMARK    6  A    between atoms: S_22  and  C_23
REMARK    7  A    between atoms: C_27  and  N_29
REMARK                            x       y       z     vdW  Elec       q    Type
REMARK                         _______ _______ _______ _____ _____    ______ ____
ROOT
ATOM      1  C   UNL     1       0.058  -4.248  -0.021  0.00  0.00    +0.069 C 
ATOM      2  N   UNL     1       0.068  -4.985  -1.077  0.00  0.00    -0.181 NA
ATOM      3  N   UNL     1       0.086  -6.354  -0.816  0.00  0.00    -0.181 N 
ATOM      4  C   UNL     1       0.088  -6.560   0.641  0.00  0.00    +0.173 C 
ATOM      5  C   UNL     1       0.076  -5.127   1.209  0.00  0.00    +0.090 C 
ATOM      6  C   UNL     1       0.098  -7.329  -1.746  0.00  0.00    +0.246 C 
ATOM      7  O   UNL     1       0.113  -8.493  -1.404  0.00  0.00    -0.273 OA
ENDROOT
BRANCH   1  12
ATOM      8  C   UNL     1      -0.018   1.503   0.010  0.00  0.00    +0.044 C 
ATOM      9  C   UNL     1       0.002  -0.004   0.002  0.00  0.00    -0.050 A 
ATOM     10  C   UNL     1       0.006  -0.686  -1.202  0.00  0.00    +0.004 A 
ATOM     11  C   UNL     1       0.024  -2.065  -1.217  0.00  0.00    +0.010 A 
ATOM     12  C   UNL     1       0.039  -2.773  -0.013  0.00  0.00    -0.002 A 
ATOM     13  C   UNL     1       0.036  -2.078   1.198  0.00  0.00    +0.010 A 
ATOM     14  C   UNL     1       0.023  -0.699   1.198  0.00  0.00    +0.004 A 
ENDBRANCH   1  12
BRANCH   4  15
ATOM     15  C   UNL     1       1.335  -7.289   1.071  0.00  0.00    +0.128 A 
ATOM     16  C   UNL     1       1.402  -8.240   2.020  0.00  0.00    +0.046 A 
ATOM     17  C   UNL     1       2.754  -8.646   2.097  0.00  0.00    +0.041 A 
ATOM     18  C   UNL     1       3.432  -7.918   1.192  0.00  0.00    +0.195 A 
ATOM     19  O   UNL     1       2.566  -7.102   0.569  0.00  0.00    -0.466 OA
ENDBRANCH   4  15
BRANCH   6  20
ATOM     20  C   UNL     1       0.095  -6.974  -3.211  0.00  0.00    +0.175 C 
BRANCH  20  21
ATOM     21  S   UNL     1       0.114  -8.494  -4.201  0.00  0.00    -0.077 S 
BRANCH  21  22
ATOM     22  C   UNL     1       0.108  -7.917  -5.866  0.00  0.00    +0.192 A 
ATOM     23  N   UNL     1       0.097  -6.613  -6.097  0.00  0.00    -0.207 NA
ATOM     24  C   UNL     1       0.092  -6.141  -7.342  0.00  0.00    +0.122 A 
ATOM     25  C   UNL     1       0.099  -7.038  -8.406  0.00  0.00    +0.086 A 
ATOM     26  C   UNL     1       0.110  -8.401  -8.124  0.00  0.00    +0.122 A 
ATOM     27  N   UNL     1       0.119  -8.800  -6.855  0.00  0.00    -0.207 NA
ATOM     28  N   UNL     1       0.081  -4.775  -7.575  0.00  0.00    -0.343 N 
ATOM     29  H   UNL     1       0.076  -4.155  -6.829  0.00  0.00    +0.144 HD
ATOM     30  H   UNL     1       0.077  -4.438  -8.485  0.00  0.00    +0.144 HD
BRANCH  26  31
ATOM     31  N   UNL     1       0.117  -9.331  -9.153  0.00  0.00    -0.343 N 
ATOM     32  H   UNL     1       0.114  -9.033 -10.076  0.00  0.00    +0.144 HD
ATOM     33  H   UNL     1       0.125 -10.279  -8.949  0.00  0.00    +0.144 HD
ENDBRANCH  26  31
ENDBRANCH  21  22
ENDBRANCH  20  21
ENDBRANCH   6  20
TORSDOF 6
