REMARK  Name = ZINC05582095
REMARK  9 active torsions:
REMARK  status: ('A' for Active; 'I' for Inactive)
REMARK    1  A    between atoms: C_1  and  C_2
REMARK    2  A    between atoms: C_2  and  C_4
REMARK    3  A    between atoms: C_2  and  S_15
REMARK    4  A    between atoms: N_6  and  C_7
REMARK    5  A    between atoms: S_15  and  C_16
REMARK    6  A    between atoms: C_19  and  C_22
REMARK    7  A    between atoms: N_20  and  N_21
REMARK    8  A    between atoms: C_22  and  C_23
REMARK    9  A    between atoms: C_22  and  C_24
REMARK                            x       y       z     vdW  Elec       q    Type
REMARK                         _______ _______ _______ _____ _____    ______ ____
ROOT
ATOM      1  C   UNL     1      -0.011   1.543  -0.006  0.00  0.00    +0.029 C 
ATOM      2  C   UNL     1       0.003   0.013  -0.005  0.00  0.00    +0.137 C 
ENDROOT
BRANCH   2   3
ATOM      3  C   UNL     1       0.708  -0.484  -1.240  0.00  0.00    +0.230 C 
ATOM      4  O   UNL     1       0.067  -0.780  -2.227  0.00  0.00    -0.274 OA
ATOM      5  N   UNL     1       2.051  -0.601  -1.250  0.00  0.00    -0.283 N 
ATOM      6  H   UNL     1       2.568  -0.303  -0.485  0.00  0.00    +0.155 HD
BRANCH   5   7
ATOM      7  C   UNL     1       2.698  -1.150  -2.362  0.00  0.00    +0.053 A 
ATOM      8  C   UNL     1       2.199  -0.926  -3.638  0.00  0.00    +0.044 A 
ATOM      9  C   UNL     1       2.841  -1.469  -4.735  0.00  0.00    +0.043 A 
ATOM     10  C   UNL     1       3.980  -2.236  -4.562  0.00  0.00    +0.021 A 
ATOM     11  C   UNL     1       4.479  -2.462  -3.293  0.00  0.00    +0.023 A 
ATOM     12  C   UNL     1       3.845  -1.916  -2.192  0.00  0.00    +0.062 A 
ATOM     13 CL   UNL     1       4.476  -2.194  -0.599  0.00  0.00    -0.082 Cl
ATOM     14 CL   UNL     1       2.218  -1.190  -6.331  0.00  0.00    -0.083 Cl
ENDBRANCH   5   7
ENDBRANCH   2   3
BRANCH   2  15
ATOM     15  S   UNL     1      -1.702  -0.608   0.010  0.00  0.00    -0.072 S 
BRANCH  15  16
ATOM     16  C   UNL     1      -2.337  -0.073   1.564  0.00  0.00    +0.209 A 
ATOM     17  N   UNL     1      -1.692   0.621   2.474  0.00  0.00    -0.121 NA
ATOM     18  N   UNL     1      -2.459   0.835   3.483  0.00  0.00    -0.132 NA
ATOM     19  C   UNL     1      -3.627   0.296   3.280  0.00  0.00    +0.154 A 
ATOM     20  N   UNL     1      -3.594  -0.297   2.048  0.00  0.00    -0.228 N 
BRANCH  20  21
ATOM     21  N   UNL     1      -4.606  -0.975   1.431  0.00  0.00    -0.295 N 
ATOM     22  H   UNL     1      -4.579  -1.956   1.664  0.00  0.00    +0.163 HD
ATOM     23  H   UNL     1      -5.503  -0.573   1.660  0.00  0.00    +0.163 HD
ENDBRANCH  20  21
BRANCH  19  24
ATOM     24  C   UNL     1      -4.801   0.326   4.225  0.00  0.00    +0.052 C 
ATOM     25  C   UNL     1      -4.410  -0.343   5.544  0.00  0.00    +0.015 C 
ATOM     26  C   UNL     1      -5.206   1.778   4.489  0.00  0.00    +0.015 C 
ENDBRANCH  19  24
ENDBRANCH  15  16
ENDBRANCH   2  15
TORSDOF 6
