REMARK  Name = ZINC39930896
REMARK  3 active torsions:
REMARK  status: ('A' for Active; 'I' for Inactive)
REMARK    1  A    between atoms: C_4  and  C_7
REMARK    2  A    between atoms: C_16  and  S_23
REMARK    3  A    between atoms: S_23  and  N_26
REMARK                            x       y       z     vdW  Elec       q    Type
REMARK                         _______ _______ _______ _____ _____    ______ ____
ROOT
ATOM      1  C   UNL     1       3.711  -0.707  -0.038  0.00  0.00    +0.188 C 
ATOM      2  N   UNL     1       4.693  -0.013  -0.921  0.00  0.00    -0.230 NA
ATOM      3  N   UNL     1       5.654  -1.074  -1.265  0.00  0.00    -0.227 NA
ATOM      4  C   UNL     1       4.874  -2.323  -1.302  0.00  0.00    +0.245 C 
ATOM      5  N   UNL     1       3.565  -2.014  -0.674  0.00  0.00    -0.283 N 
ATOM      6  C   UNL     1       2.468  -2.856  -0.821  0.00  0.00    +0.056 A 
ATOM      7  C   UNL     1       1.484  -3.005   0.130  0.00  0.00    +0.053 A 
ATOM      8  C   UNL     1       0.437  -3.883  -0.100  0.00  0.00    +0.107 A 
ATOM      9  C   UNL     1       0.383  -4.604  -1.278  0.00  0.00    +0.030 A 
ATOM     10  C   UNL     1       1.365  -4.454  -2.240  0.00  0.00    +0.027 A 
ATOM     11  C   UNL     1       2.412  -3.574  -2.026  0.00  0.00    +0.055 A 
ATOM     12  N   UNL     1       3.400  -3.365  -2.995  0.00  0.00    -0.281 N 
ATOM     13  C   UNL     1       4.602  -2.780  -2.712  0.00  0.00    +0.254 C 
ATOM     14  O   UNL     1       5.439  -2.621  -3.574  0.00  0.00    -0.272 OA
ATOM     15  H   UNL     1       4.243   0.349  -1.748  0.00  0.00    +0.143 HD
ATOM     16  H   UNL     1       6.392  -1.130  -0.580  0.00  0.00    +0.143 HD
ATOM     17  H   UNL     1       3.230  -3.652  -3.906  0.00  0.00    +0.155 HD
ENDROOT
BRANCH   1  21
ATOM     18  C   UNL     1      -0.015   1.380   0.012  0.00  0.00    +0.000 A 
ATOM     19  C   UNL     1       0.651   1.127   1.196  0.00  0.00    +0.000 A 
ATOM     20  C   UNL     1       1.857   0.452   1.180  0.00  0.00    +0.007 A 
ATOM     21  C   UNL     1       2.396   0.029  -0.020  0.00  0.00    -0.012 A 
ATOM     22  C   UNL     1       1.729   0.281  -1.204  0.00  0.00    +0.007 A 
ATOM     23  C   UNL     1       0.524   0.957  -1.189  0.00  0.00    +0.000 A 
ENDBRANCH   1  21
BRANCH   8  24
ATOM     24  S   UNL     1      -0.827  -4.081   1.112  0.00  0.00    +0.056 S 
ATOM     25  O   UNL     1      -1.401  -5.363   0.894  0.00  0.00    -0.153 OA
ATOM     26  O   UNL     1      -0.259  -3.702   2.358  0.00  0.00    -0.153 OA
BRANCH  24  27
ATOM     27  N   UNL     1      -2.008  -2.970   0.773  0.00  0.00    -0.204 NA
ATOM     28  H   UNL     1      -2.933  -3.162   0.997  0.00  0.00    +0.144 HD
ATOM     29  H   UNL     1      -1.776  -2.129   0.351  0.00  0.00    +0.144 HD
ENDBRANCH  24  27
ENDBRANCH   8  24
TORSDOF 3
