REMARK  Name = ZINC04124717
REMARK  11 active torsions:
REMARK  status: ('A' for Active; 'I' for Inactive)
REMARK    1  A    between atoms: C_1  and  C_2
REMARK    2  A    between atoms: C_2  and  N_3
REMARK    3  A    between atoms: N_3  and  C_4
REMARK    4  A    between atoms: N_3  and  C_6
REMARK    5  A    between atoms: C_4  and  C_5
REMARK    6  A    between atoms: C_9  and  C_13
REMARK    7  A    between atoms: C_10  and  O_12
REMARK    8  A    between atoms: C_24  and  C_25
REMARK    9  A    between atoms: C_24  and  C_26
REMARK   10  A    between atoms: C_24  and  N_59
REMARK   11  A    between atoms: C_27  and  O_29
REMARK                            x       y       z     vdW  Elec       q    Type
REMARK                         _______ _______ _______ _____ _____    ______ ____
ROOT
ATOM      1  C   UNL     1       1.144   1.521  -2.507  0.00  0.00    +0.227 C 
ATOM      2  N   UNL     1       1.680   2.401  -3.562  0.00  0.00    -0.313 N 
ATOM      3  C   UNL     1       1.116   3.650  -3.658  0.00  0.00    +0.080 A 
ATOM      4  C   UNL     1      -0.182   3.925  -3.206  0.00  0.00    +0.067 A 
ATOM      5  C   UNL     1      -0.638   5.289  -3.386  0.00  0.00    -0.027 A 
ATOM      6  C   UNL     1       0.250   6.133  -3.966  0.00  0.00    -0.021 A 
ATOM      7  S   UNL     1       1.684   5.141  -4.278  0.00  0.00    -0.080 S 
ATOM      8  C   UNL     1       0.034   7.583  -4.264  0.00  0.00    -0.035 C 
ATOM      9  C   UNL     1      -1.957   7.329  -2.907  0.00  0.00    -0.073 C 
ATOM     10  C   UNL     1      -2.013   5.800  -2.970  0.00  0.00    +0.018 C 
ATOM     11  C   UNL     1      -0.939   2.804  -2.591  0.00  0.00    +0.220 C 
ATOM     12  N   UNL     1      -0.291   1.704  -2.332  0.00  0.00    -0.223 NA
ATOM     13  H   UNL     1       2.393   2.115  -4.154  0.00  0.00    +0.149 HD
ATOM     14  N   UNL     1      -1.422   7.853  -4.181  0.00  0.00    +0.384 N 
ATOM     15  H   UNL     1      -1.895   7.381  -4.961  0.00  0.00    -0.081 HD
ENDROOT
BRANCH   1  19
ATOM     16  C   UNL     1       3.124   2.398   1.182  0.00  0.00    +0.033 A 
ATOM     17  C   UNL     1       3.739   2.693  -0.029  0.00  0.00    +0.024 A 
ATOM     18  C   UNL     1       3.097   2.409  -1.218  0.00  0.00    +0.013 A 
ATOM     19  C   UNL     1       1.842   1.830  -1.207  0.00  0.00    +0.036 A 
ATOM     20  C   UNL     1       1.223   1.532  -0.001  0.00  0.00    +0.125 A 
ATOM     21  C   UNL     1       1.861   1.822   1.194  0.00  0.00    +0.069 A 
BRANCH  20  22
ATOM     22  O   UNL     1      -0.011   0.963   0.007  0.00  0.00    -0.506 OA
ATOM     23  H   UNL     1       0.002  -0.004   0.002  0.00  0.00    +0.292 HD
ENDBRANCH  20  22
BRANCH  16  24
ATOM     24  N   UNL     1       3.773   2.686   2.385  0.00  0.00    -0.330 N 
BRANCH  24  26
ATOM     25  C   UNL     1       4.963   4.823   2.378  0.00  0.00    +0.024 C 
ATOM     26  C   UNL     1       5.104   3.299   2.370  0.00  0.00    +0.102 C 
ENDBRANCH  24  26
BRANCH  24  27
ATOM     27  C   UNL     1       3.124   2.374   3.660  0.00  0.00    +0.102 C 
ATOM     28  C   UNL     1       3.502   0.956   4.092  0.00  0.00    +0.024 C 
ENDBRANCH  24  27
ENDBRANCH  16  24
ENDBRANCH   1  19
BRANCH  14  29
ATOM     29  C   UNL     1      -1.674   9.307  -4.275  0.00  0.00    -0.074 C 
ATOM     30  C   UNL     1      -0.968  10.046  -3.137  0.00  0.00    -0.014 C 
ATOM     31  C   UNL     1      -1.147   9.817  -5.618  0.00  0.00    -0.014 C 
ENDBRANCH  14  29
BRANCH  11  32
ATOM     32  O   UNL     1      -2.257   2.922  -2.311  0.00  0.00    -0.492 OA
ATOM     33  H   UNL     1      -2.647   2.132  -1.913  0.00  0.00    +0.294 HD
ENDBRANCH  11  32
TORSDOF 7
