REMARK  Name = ZINC09668114
REMARK  15 active torsions:
REMARK  status: ('A' for Active; 'I' for Inactive)
REMARK    1  A    between atoms: C_1  and  C_2
REMARK    2  A    between atoms: C_2  and  C_3
REMARK    3  A    between atoms: C_2  and  C_4
REMARK    4  A    between atoms: C_2  and  C_5
REMARK    5  A    between atoms: C_12  and  N_17
REMARK    6  A    between atoms: C_13  and  C_14
REMARK    7  A    between atoms: N_17  and  C_18
REMARK    8  A    between atoms: C_18  and  N_20
REMARK    9  A    between atoms: C_21  and  C_23
REMARK   10  A    between atoms: C_25  and  O_33
REMARK   11  A    between atoms: C_26  and  O_31
REMARK   12  A    between atoms: C_27  and  O_29
REMARK   13  A    between atoms: O_29  and  C_30
REMARK   14  A    between atoms: O_31  and  C_32
REMARK   15  A    between atoms: O_33  and  C_34
REMARK                            x       y       z     vdW  Elec       q    Type
REMARK                         _______ _______ _______ _____ _____    ______ ____
ROOT
ATOM      1  N   UNL     1       5.030  -2.378   1.442  0.00  0.00    -0.291 N 
ATOM      2  H   UNL     1       4.651  -2.118   0.588  0.00  0.00    +0.154 HD
ENDROOT
BRANCH   1   9
ATOM      3  C   UNL     1      10.502  -5.678   1.600  0.00  0.00    -0.000 C 
ATOM      4  C   UNL     1       9.803  -6.214   0.347  0.00  0.00    +0.009 C 
ATOM      5  C   UNL     1       8.987  -5.099  -0.310  0.00  0.00    +0.037 C 
ATOM      6  C   UNL     1       8.077  -4.473   0.740  0.00  0.00    -0.023 A 
ATOM      7  C   UNL     1       8.320  -4.639   2.058  0.00  0.00    -0.004 A 
ATOM      8  S   UNL     1       7.025  -3.749   2.873  0.00  0.00    -0.077 S 
ATOM      9  C   UNL     1       6.171  -3.163   1.484  0.00  0.00    +0.084 A 
ATOM     10  C   UNL     1       6.905  -3.675   0.423  0.00  0.00    +0.068 A 
ATOM     11  C   UNL     1       9.444  -5.410   2.680  0.00  0.00    +0.046 C 
BRANCH  10  12
ATOM     12  C   UNL     1       6.515  -3.417  -0.967  0.00  0.00    +0.244 C 
ATOM     13  O   UNL     1       6.950  -2.442  -1.550  0.00  0.00    -0.270 OA
ATOM     14  N   UNL     1       5.674  -4.260  -1.598  0.00  0.00    -0.325 N 
ATOM     15  H   UNL     1       5.327  -5.038  -1.133  0.00  0.00    +0.145 HD
ATOM     16  H   UNL     1       5.416  -4.090  -2.517  0.00  0.00    +0.145 HD
ENDBRANCH  10  12
BRANCH   3  18
ATOM     17  C   UNL     1      10.770  -8.017   2.438  0.00  0.00    +0.011 C 
ATOM     18  C   UNL     1      11.505  -6.715   2.110  0.00  0.00    -0.035 C 
ATOM     19  C   UNL     1      12.557  -6.980   1.032  0.00  0.00    +0.011 C 
ATOM     20  C   UNL     1      12.189  -6.184   3.372  0.00  0.00    +0.011 C 
ENDBRANCH   3  18
ENDBRANCH   1   9
BRANCH   1  21
ATOM     21  C   UNL     1       4.447  -1.976   2.588  0.00  0.00    +0.141 C 
ATOM     22  S   UNL     1       5.115  -2.434   4.096  0.00  0.00    -0.018 S 
BRANCH  21  23
ATOM     23  N   UNL     1       3.336  -1.213   2.547  0.00  0.00    -0.264 N 
ATOM     24  C   UNL     1       2.753  -0.811   3.694  0.00  0.00    +0.250 C 
ATOM     25  O   UNL     1       3.228  -1.136   4.764  0.00  0.00    -0.270 OA
ATOM     26  H   UNL     1       2.957  -0.953   1.693  0.00  0.00    +0.157 HD
BRANCH  24  27
ATOM     27  C   UNL     1       1.538   0.025   3.649  0.00  0.00    +0.044 A 
ATOM     28  C   UNL     1       0.931   0.443   4.837  0.00  0.00    +0.062 A 
ATOM     29  C   UNL     1      -0.207   1.225   4.793  0.00  0.00    +0.166 A 
ATOM     30  C   UNL     1      -0.750   1.597   3.566  0.00  0.00    +0.204 A 
ATOM     31  C   UNL     1      -0.148   1.182   2.381  0.00  0.00    +0.166 A 
ATOM     32  C   UNL     1       0.987   0.395   2.419  0.00  0.00    +0.062 A 
BRANCH  31  33
ATOM     33  O   UNL     1      -0.682   1.547   1.184  0.00  0.00    -0.491 OA
ATOM     34  C   UNL     1      -0.013   1.086   0.008  0.00  0.00    +0.277 C 
ENDBRANCH  31  33
BRANCH  30  35
ATOM     35  O   UNL     1      -1.870   2.366   3.525  0.00  0.00    -0.488 OA
ATOM     36  C   UNL     1      -3.125   1.684   3.506  0.00  0.00    +0.277 C 
ENDBRANCH  30  35
BRANCH  29  37
ATOM     37  O   UNL     1      -0.797   1.632   5.948  0.00  0.00    -0.491 OA
ATOM     38  C   UNL     1      -0.187   1.214   7.171  0.00  0.00    +0.277 C 
ENDBRANCH  29  37
ENDBRANCH  24  27
ENDBRANCH  21  23
ENDBRANCH   1  21
TORSDOF 9
