REMARK  Name = ZINC19174731
REMARK  8 active torsions:
REMARK  status: ('A' for Active; 'I' for Inactive)
REMARK    1  A    between atoms: C_1  and  C_2
REMARK    2  A    between atoms: C_4  and  C_13
REMARK    3  A    between atoms: C_6  and  S_9
REMARK    4  A    between atoms: C_7  and  C_8
REMARK    5  A    between atoms: S_9  and  N_12
REMARK    6  A    between atoms: N_15  and  C_16
REMARK    7  A    between atoms: C_19  and  O_22
REMARK    8  A    between atoms: O_22  and  C_23
REMARK                            x       y       z     vdW  Elec       q    Type
REMARK                         _______ _______ _______ _____ _____    ______ ____
ROOT
ATOM      1  C   UNL     1      -0.052   1.503   0.010  0.00  0.00    +0.044 C 
ATOM      2  C   UNL     1      -0.021  -0.004   0.002  0.00  0.00    -0.045 A 
ATOM      3  C   UNL     1      -0.010  -0.686  -1.198  0.00  0.00    +0.016 A 
ATOM      4  C   UNL     1       0.019  -2.081  -1.203  0.00  0.00    +0.039 A 
ATOM      5  C   UNL     1       0.036  -2.778   0.006  0.00  0.00    +0.041 A 
ATOM      6  C   UNL     1       0.025  -2.084   1.198  0.00  0.00    +0.109 A 
ATOM      7  C   UNL     1       0.001  -0.700   1.197  0.00  0.00    -0.021 A 
ATOM      8  C   UNL     1      -0.005   0.051   2.503  0.00  0.00    +0.046 C 
ENDROOT
BRANCH   4   9
ATOM      9  C   UNL     1       0.031  -2.818  -2.485  0.00  0.00    +0.248 C 
ATOM     10  O   UNL     1       0.056  -4.034  -2.486  0.00  0.00    -0.270 OA
ATOM     11  N   UNL     1       0.013  -2.143  -3.651  0.00  0.00    -0.281 N 
ATOM     12  H   UNL     1      -0.075  -1.177  -3.650  0.00  0.00    +0.155 HD
BRANCH  11  13
ATOM     13  C   UNL     1       0.122  -2.835  -4.863  0.00  0.00    +0.034 A 
ATOM     14  C   UNL     1       0.810  -2.268  -5.928  0.00  0.00    +0.027 A 
ATOM     15  C   UNL     1       0.918  -2.952  -7.122  0.00  0.00    +0.047 A 
ATOM     16  C   UNL     1       0.339  -4.205  -7.259  0.00  0.00    +0.127 A 
ATOM     17  C   UNL     1      -0.349  -4.772  -6.196  0.00  0.00    +0.047 A 
ATOM     18  C   UNL     1      -0.453  -4.092  -4.999  0.00  0.00    +0.027 A 
BRANCH  16  19
ATOM     19  O   UNL     1       0.445  -4.878  -8.436  0.00  0.00    -0.434 OA
BRANCH  19  20
ATOM     20  C   UNL     1      -0.176  -6.164  -8.507  0.00  0.00    +0.541 C 
ATOM     21  F   UNL     1       0.385  -7.006  -7.540  0.00  0.00    -0.166 F 
ATOM     22  F   UNL     1      -1.548  -6.032  -8.271  0.00  0.00    -0.166 F 
ENDBRANCH  19  20
ENDBRANCH  16  19
ENDBRANCH  11  13
ENDBRANCH   4   9
BRANCH   6  23
ATOM     23  S   UNL     1       0.046  -2.961   2.726  0.00  0.00    +0.056 S 
ATOM     24  O   UNL     1      -0.989  -2.408   3.527  0.00  0.00    -0.153 OA
ATOM     25  O   UNL     1       0.101  -4.343   2.401  0.00  0.00    -0.153 OA
BRANCH  23  26
ATOM     26  N   UNL     1       1.475  -2.596   3.481  0.00  0.00    -0.204 NA
ATOM     27  H   UNL     1       1.524  -2.591   4.449  0.00  0.00    +0.144 HD
ATOM     28  H   UNL     1       2.262  -2.386   2.954  0.00  0.00    +0.144 HD
ENDBRANCH  23  26
ENDBRANCH   6  23
TORSDOF 6
