REMARK  Name = ZINC46684672
REMARK  10 active torsions:
REMARK  status: ('A' for Active; 'I' for Inactive)
REMARK    1  A    between atoms: C_1  and  C_2
REMARK    2  A    between atoms: C_2  and  C_3
REMARK    3  A    between atoms: C_3  and  C_5
REMARK    4  A    between atoms: C_3  and  N_15
REMARK    5  A    between atoms: C_10  and  O_11
REMARK    6  A    between atoms: O_11  and  C_12
REMARK    7  A    between atoms: N_18  and  N_19
REMARK    8  A    between atoms: N_19  and  C_20
REMARK    9  A    between atoms: C_20  and  N_22
REMARK   10  A    between atoms: N_22  and  C_23
REMARK                            x       y       z     vdW  Elec       q    Type
REMARK                         _______ _______ _______ _____ _____    ______ ____
ROOT
ATOM      1  N   UNL     1       2.125  -0.091  -1.209  0.00  0.00    -0.291 N 
ATOM      2  C   UNL     1       2.487   1.134  -1.640  0.00  0.00    +0.316 C 
ATOM      3  O   UNL     1       1.647   1.901  -2.067  0.00  0.00    -0.251 OA
ATOM      4  N   UNL     1       3.781   1.508  -1.596  0.00  0.00    -0.219 N 
ATOM      5  H   UNL     1       2.795  -0.703  -0.868  0.00  0.00    +0.151 HD
ATOM      6  H   UNL     1       4.042   2.389  -1.906  0.00  0.00    +0.174 HD
ENDROOT
BRANCH   4   7
ATOM      7  N   UNL     1       4.750   0.623  -1.103  0.00  0.00    -0.245 N 
ATOM      8  H   UNL     1       4.489  -0.258  -0.794  0.00  0.00    +0.172 HD
BRANCH   7   9
ATOM      9  C   UNL     1       6.044   0.997  -1.060  0.00  0.00    +0.147 C 
ATOM     10  S   UNL     1       7.228  -0.084  -0.458  0.00  0.00    -0.017 S 
BRANCH   9  11
ATOM     11  N   UNL     1       6.407   2.222  -1.490  0.00  0.00    -0.323 N 
ATOM     12  H   UNL     1       5.736   2.834  -1.831  0.00  0.00    +0.148 HD
BRANCH  11  13
ATOM     13  C   UNL     1       7.813   2.628  -1.443  0.00  0.00    +0.072 C 
ATOM     14  C   UNL     1       8.137   3.253  -0.070  0.00  0.00    +0.022 C 
ATOM     15  C   UNL     1       9.123   4.401  -0.398  0.00  0.00    +0.002 C 
ATOM     16  C   UNL     1       8.561   4.966  -1.727  0.00  0.00    +0.002 C 
ATOM     17  C   UNL     1       8.083   3.717  -2.496  0.00  0.00    +0.022 C 
ENDBRANCH  11  13
ENDBRANCH   9  11
ENDBRANCH   7   9
ENDBRANCH   4   7
BRANCH   1  18
ATOM     18  C   UNL     1       0.718  -0.497  -1.257  0.00  0.00    +0.108 C 
BRANCH  18  19
ATOM     19  C   UNL     1       0.632  -2.000  -1.327  0.00  0.00    +0.015 A 
ATOM     20  C   UNL     1       1.661  -2.776  -0.831  0.00  0.00    +0.009 A 
ATOM     21  C   UNL     1       1.583  -4.155  -0.896  0.00  0.00    +0.001 A 
ATOM     22  C   UNL     1       0.474  -4.761  -1.458  0.00  0.00    +0.004 A 
ATOM     23  C   UNL     1      -0.558  -3.990  -1.955  0.00  0.00    +0.046 A 
ATOM     24  C   UNL     1      -0.484  -2.606  -1.886  0.00  0.00    +0.132 A 
BRANCH  24  25
ATOM     25  O   UNL     1      -1.501  -1.845  -2.370  0.00  0.00    -0.434 OA
BRANCH  25  26
ATOM     26  C   UNL     1      -2.619  -2.536  -2.931  0.00  0.00    +0.541 C 
ATOM     27  F   UNL     1      -2.189  -3.319  -4.008  0.00  0.00    -0.166 F 
ATOM     28  F   UNL     1      -3.195  -3.359  -1.958  0.00  0.00    -0.166 F 
ENDBRANCH  25  26
ENDBRANCH  24  25
ENDBRANCH  18  19
BRANCH  18  30
ATOM     29  C   UNL     1      -0.019   1.526   0.010  0.00  0.00    +0.006 C 
ATOM     30  C   UNL     1       0.002  -0.004   0.002  0.00  0.00    +0.024 C 
ENDBRANCH  18  30
ENDBRANCH   1  18
TORSDOF 9
