REMARK  Name = ZINC36640854
REMARK  13 active torsions:
REMARK  status: ('A' for Active; 'I' for Inactive)
REMARK    1  A    between atoms: C_1  and  N_2
REMARK    2  A    between atoms: N_2  and  C_3
REMARK    3  A    between atoms: N_2  and  C_4
REMARK    4  A    between atoms: C_4  and  C_5
REMARK    5  A    between atoms: C_5  and  N_6
REMARK    6  A    between atoms: C_17  and  C_19
REMARK    7  A    between atoms: C_20  and  C_21
REMARK    8  A    between atoms: C_23  and  O_31
REMARK    9  A    between atoms: C_24  and  O_29
REMARK   10  A    between atoms: C_25  and  O_27
REMARK   11  A    between atoms: O_27  and  C_28
REMARK   12  A    between atoms: O_29  and  C_30
REMARK   13  A    between atoms: O_31  and  C_32
REMARK                            x       y       z     vdW  Elec       q    Type
REMARK                         _______ _______ _______ _____ _____    ______ ____
ROOT
ATOM      1  N   UNL     1      -2.733  -2.544  -0.111  0.00  0.00    -0.249 N 
ATOM      2  C   UNL     1      -3.429  -2.679  -1.299  0.00  0.00    +0.168 A 
ATOM      3  N   UNL     1      -3.032  -2.413  -2.522  0.00  0.00    -0.224 NA
ATOM      4  C   UNL     1      -3.826  -2.595  -3.599  0.00  0.00    +0.080 A 
ATOM      5  C   UNL     1      -3.522  -2.350  -4.959  0.00  0.00    +0.030 A 
ATOM      6  C   UNL     1      -4.451  -2.590  -5.938  0.00  0.00    +0.017 A 
ATOM      7  C   UNL     1      -5.714  -3.079  -5.635  0.00  0.00    +0.019 A 
ATOM      8  C   UNL     1      -6.045  -3.330  -4.315  0.00  0.00    +0.032 A 
ATOM      9  C   UNL     1      -5.121  -3.092  -3.328  0.00  0.00    +0.042 A 
ATOM     10  S   UNL     1      -5.097  -3.266  -1.560  0.00  0.00    -0.052 S 
ATOM     11 BR   UNL     1      -6.971  -3.398  -7.012  0.00  0.00    -0.050 Br
ATOM     12  C   UNL     1      -3.319  -2.879   1.055  0.00  0.00    +0.245 C 
ATOM     13  O   UNL     1      -4.461  -3.300   1.064  0.00  0.00    -0.270 OA
ENDROOT
BRANCH  12  14
ATOM     14  C   UNL     1      -2.583  -2.736   2.310  0.00  0.00    +0.068 C 
ATOM     15  C   UNL     1      -3.170  -3.071   3.479  0.00  0.00    +0.013 C 
BRANCH  15  16
ATOM     16  C   UNL     1      -2.430  -2.928   4.741  0.00  0.00    -0.018 A 
ATOM     17  C   UNL     1      -1.119  -2.438   4.734  0.00  0.00    +0.057 A 
ATOM     18  C   UNL     1      -0.426  -2.305   5.922  0.00  0.00    +0.166 A 
ATOM     19  C   UNL     1      -1.031  -2.657   7.126  0.00  0.00    +0.204 A 
ATOM     20  C   UNL     1      -2.336  -3.145   7.137  0.00  0.00    +0.166 A 
ATOM     21  C   UNL     1      -3.037  -3.275   5.953  0.00  0.00    +0.057 A 
BRANCH  20  22
ATOM     22  O   UNL     1      -2.922  -3.489   8.315  0.00  0.00    -0.491 OA
ATOM     23  C   UNL     1      -4.262  -3.983   8.253  0.00  0.00    +0.277 C 
ENDBRANCH  20  22
BRANCH  19  24
ATOM     24  O   UNL     1      -0.347  -2.525   8.293  0.00  0.00    -0.488 OA
ATOM     25  C   UNL     1      -0.463  -1.275   8.975  0.00  0.00    +0.277 C 
ENDBRANCH  19  24
BRANCH  18  26
ATOM     26  O   UNL     1       0.848  -1.829   5.915  0.00  0.00    -0.491 OA
ATOM     27  C   UNL     1       1.406  -1.487   4.645  0.00  0.00    +0.277 C 
ENDBRANCH  18  26
ENDBRANCH  15  16
ENDBRANCH  12  14
BRANCH   1  28
ATOM     28  C   UNL     1      -1.358  -2.037  -0.122  0.00  0.00    +0.097 C 
BRANCH  28  29
ATOM     29  C   UNL     1      -1.376  -0.512   0.012  0.00  0.00    -0.060 C 
BRANCH  29  31
ATOM     30  C   UNL     1      -0.018   1.465   0.010  0.00  0.00    -0.097 C 
ATOM     31  N   UNL     1       0.002  -0.004   0.002  0.00  0.00    +0.377 N 
ATOM     32  C   UNL     1       0.713  -0.491   1.192  0.00  0.00    -0.097 C 
ATOM     33  H   UNL     1       0.474  -0.330  -0.828  0.00  0.00    -0.083 HD
ENDBRANCH  29  31
ENDBRANCH  28  29
ENDBRANCH   1  28
TORSDOF 8
