REMARK  Name = ZINC04435412
REMARK  5 active torsions:
REMARK  status: ('A' for Active; 'I' for Inactive)
REMARK    1  A    between atoms: C_1  and  C_2
REMARK    2  A    between atoms: C_5  and  C_8
REMARK    3  A    between atoms: C_8  and  N_9
REMARK    4  A    between atoms: N_18  and  C_21
REMARK    5  A    between atoms: C_21  and  C_22
REMARK                            x       y       z     vdW  Elec       q    Type
REMARK                         _______ _______ _______ _____ _____    ______ ____
ROOT
ATOM      1  N   UNL     1       1.447  -4.746  -0.032  0.00  0.00    -0.289 N 
ATOM      2  C   UNL     1       2.093  -4.954  -1.242  0.00  0.00    +0.059 A 
ATOM      3  C   UNL     1       1.456  -4.729  -2.453  0.00  0.00    +0.027 A 
ATOM      4  C   UNL     1       2.135  -4.949  -3.635  0.00  0.00    +0.002 A 
ATOM      5  C   UNL     1       3.448  -5.395  -3.624  0.00  0.00    +0.001 A 
ATOM      6  C   UNL     1       4.097  -5.624  -2.429  0.00  0.00    +0.015 A 
ATOM      7  C   UNL     1       3.424  -5.405  -1.229  0.00  0.00    +0.063 A 
ATOM      8  C   UNL     1       4.070  -5.635   0.075  0.00  0.00    +0.265 A 
ATOM      9  O   UNL     1       5.220  -6.025   0.142  0.00  0.00    -0.267 OA
ATOM     10  N   UNL     1       3.352  -5.401   1.195  0.00  0.00    -0.253 N 
ATOM     11  C   UNL     1       2.084  -4.966   1.131  0.00  0.00    +0.333 A 
ATOM     12  O   UNL     1       1.484  -4.766   2.170  0.00  0.00    -0.246 OA
ENDROOT
BRANCH   1  13
ATOM     13  C   UNL     1       0.059  -4.275  -0.021  0.00  0.00    +0.162 C 
BRANCH  13  18
ATOM     14  C   UNL     1      -0.018   1.503   0.010  0.00  0.00    +0.044 C 
ATOM     15  C   UNL     1       0.002  -0.004   0.002  0.00  0.00    -0.050 A 
ATOM     16  C   UNL     1       0.006  -0.689  -1.199  0.00  0.00    +0.004 A 
ATOM     17  C   UNL     1       0.025  -2.071  -1.206  0.00  0.00    +0.005 A 
ATOM     18  C   UNL     1       0.040  -2.768  -0.013  0.00  0.00    -0.028 A 
ATOM     19  C   UNL     1       0.037  -2.084   1.188  0.00  0.00    +0.005 A 
ATOM     20  C   UNL     1       0.023  -0.702   1.195  0.00  0.00    +0.004 A 
ENDBRANCH  13  18
ENDBRANCH   1  13
BRANCH  10  21
ATOM     21  C   UNL     1       3.970  -5.622   2.505  0.00  0.00    +0.204 C 
BRANCH  21  22
ATOM     22  C   UNL     1       4.638  -4.353   2.965  0.00  0.00    +0.125 A 
ATOM     23  C   UNL     1       4.064  -3.383   3.700  0.00  0.00    +0.046 A 
ATOM     24  C   UNL     1       5.046  -2.385   3.901  0.00  0.00    +0.041 A 
ATOM     25  C   UNL     1       6.161  -2.805   3.277  0.00  0.00    +0.195 A 
ATOM     26  O   UNL     1       5.910  -4.000   2.717  0.00  0.00    -0.466 OA
ENDBRANCH  21  22
ENDBRANCH  10  21
TORSDOF 4
