REMARK  Name = ZINC09714917
REMARK  7 active torsions:
REMARK  status: ('A' for Active; 'I' for Inactive)
REMARK    1  A    between atoms: C_1  and  C_2
REMARK    2  A    between atoms: C_5  and  S_8
REMARK    3  A    between atoms: S_8  and  N_11
REMARK    4  A    between atoms: N_11  and  C_12
REMARK    5  A    between atoms: C_15  and  C_18
REMARK    6  A    between atoms: N_20  and  C_21
REMARK    7  A    between atoms: C_29  and  C_30
REMARK                            x       y       z     vdW  Elec       q    Type
REMARK                         _______ _______ _______ _____ _____    ______ ____
ROOT
ATOM      1  C   UNL     1       1.136   2.017  -0.404  0.00  0.00    +0.048 A 
ATOM      2  C   UNL     1       2.181   1.873   0.504  0.00  0.00    +0.025 A 
ATOM      3  C   UNL     1       3.309   2.653   0.386  0.00  0.00    +0.015 A 
ATOM      4  C   UNL     1       3.401   3.597  -0.641  0.00  0.00    +0.037 A 
ATOM      5  C   UNL     1       2.347   3.743  -1.548  0.00  0.00    +0.015 A 
ATOM      6  C   UNL     1       1.224   2.957  -1.428  0.00  0.00    +0.025 A 
ENDROOT
BRANCH   4   7
ATOM      7  C   UNL     1       4.606   4.438  -0.767  0.00  0.00    +0.248 C 
ATOM      8  O   UNL     1       4.683   5.259  -1.660  0.00  0.00    -0.270 OA
ATOM      9  N   UNL     1       5.621   4.296   0.108  0.00  0.00    -0.278 N 
ATOM     10  H   UNL     1       5.526   3.701   0.869  0.00  0.00    +0.155 HD
BRANCH   9  11
ATOM     11  C   UNL     1       6.802   5.003  -0.078  0.00  0.00    +0.092 A 
ATOM     12  C   UNL     1       6.940   6.391  -0.533  0.00  0.00    +0.042 A 
ATOM     13  C   UNL     1       6.034   7.386  -0.902  0.00  0.00    +0.013 A 
ATOM     14  C   UNL     1       6.495   8.613  -1.290  0.00  0.00    +0.001 A 
ATOM     15  C   UNL     1       7.858   8.874  -1.320  0.00  0.00    +0.004 A 
ATOM     16  C   UNL     1       8.768   7.904  -0.960  0.00  0.00    +0.047 A 
ATOM     17  C   UNL     1       8.322   6.649  -0.561  0.00  0.00    +0.138 A 
ATOM     18  O   UNL     1       8.958   5.530  -0.163  0.00  0.00    -0.448 OA
ATOM     19  C   UNL     1       8.075   4.549   0.132  0.00  0.00    +0.211 A 
BRANCH  19  20
ATOM     20  C   UNL     1       8.428   3.209   0.598  0.00  0.00    +0.279 C 
ATOM     21  O   UNL     1       7.560   2.368   0.744  0.00  0.00    -0.267 OA
ATOM     22  N   UNL     1       9.713   2.906   0.867  0.00  0.00    -0.323 N 
ATOM     23  H   UNL     1      10.404   3.576   0.751  0.00  0.00    +0.145 HD
ATOM     24  H   UNL     1       9.947   2.017   1.177  0.00  0.00    +0.145 HD
ENDBRANCH  19  20
ENDBRANCH   9  11
ENDBRANCH   4   7
BRANCH   1  25
ATOM     25  N   UNL     1       0.000   1.224  -0.286  0.00  0.00    -0.216 N 
ATOM     26  H   UNL     1      -0.880   1.625  -0.354  0.00  0.00    +0.174 HD
BRANCH  25  27
ATOM     27  S   UNL     1       0.150  -0.406  -0.035  0.00  0.00    +0.072 S 
ATOM     28  O   UNL     1       1.079  -0.569   1.028  0.00  0.00    -0.150 OA
ATOM     29  O   UNL     1      -1.169  -0.931   0.019  0.00  0.00    -0.150 OA
BRANCH  27  34
ATOM     30  C   UNL     1       2.737  -2.738  -4.962  0.00  0.00    +0.044 C 
ATOM     31  C   UNL     1       2.091  -2.156  -3.731  0.00  0.00    -0.050 A 
ATOM     32  C   UNL     1       2.867  -1.811  -2.640  0.00  0.00    +0.005 A 
ATOM     33  C   UNL     1       2.274  -1.277  -1.512  0.00  0.00    +0.029 A 
ATOM     34  C   UNL     1       0.906  -1.087  -1.474  0.00  0.00    +0.109 A 
ATOM     35  C   UNL     1       0.129  -1.436  -2.562  0.00  0.00    +0.029 A 
ATOM     36  C   UNL     1       0.722  -1.966  -3.693  0.00  0.00    +0.005 A 
ENDBRANCH  27  34
ENDBRANCH  25  27
ENDBRANCH   1  25
TORSDOF 6
