REMARK  Name = ZINC45382923
REMARK  9 active torsions:
REMARK  status: ('A' for Active; 'I' for Inactive)
REMARK    1  A    between atoms: C_1  and  C_2
REMARK    2  A    between atoms: C_2  and  C_4
REMARK    3  A    between atoms: C_2  and  N_13
REMARK    4  A    between atoms: C_4  and  C_5
REMARK    5  A    between atoms: C_5  and  C_6
REMARK    6  A    between atoms: C_9  and  O_12
REMARK    7  A    between atoms: N_16  and  N_17
REMARK    8  A    between atoms: C_18  and  C_20
REMARK    9  A    between atoms: C_20  and  C_21
REMARK                            x       y       z     vdW  Elec       q    Type
REMARK                         _______ _______ _______ _____ _____    ______ ____
ROOT
ATOM      1  N   UNL     1       0.688  -0.476  -1.203  0.00  0.00    -0.296 N 
ATOM      2  C   UNL     1       2.031  -0.587  -1.215  0.00  0.00    +0.316 C 
ATOM      3  O   UNL     1       2.674  -0.294  -0.225  0.00  0.00    -0.251 OA
ATOM      4  N   UNL     1       2.662  -1.022  -2.324  0.00  0.00    -0.218 N 
ATOM      5  H   UNL     1       0.175  -0.710  -1.993  0.00  0.00    +0.151 HD
ATOM      6  H   UNL     1       3.628  -1.101  -2.332  0.00  0.00    +0.174 HD
ENDROOT
BRANCH   4   7
ATOM      7  N   UNL     1       1.921  -1.359  -3.464  0.00  0.00    -0.233 N 
ATOM      8  C   UNL     1       2.552  -1.793  -4.573  0.00  0.00    +0.230 C 
ATOM      9  O   UNL     1       3.761  -1.893  -4.584  0.00  0.00    -0.274 OA
ATOM     10  H   UNL     1       0.955  -1.279  -3.456  0.00  0.00    +0.173 HD
BRANCH   8  11
ATOM     11  C   UNL     1       1.756  -2.156  -5.800  0.00  0.00    +0.104 C 
BRANCH  11  12
ATOM     12  C   UNL     1       2.706  -2.615  -6.908  0.00  0.00    -0.020 C 
ATOM     13  C   UNL     1       3.679  -1.484  -7.247  0.00  0.00    +0.011 C 
ATOM     14  C   UNL     1       4.629  -1.944  -8.355  0.00  0.00    -0.010 C 
ATOM     15  C   UNL     1       3.820  -2.312  -9.600  0.00  0.00    +0.007 C 
ATOM     16  C   UNL     1       2.848  -3.443  -9.261  0.00  0.00    -0.010 C 
ATOM     17  C   UNL     1       1.897  -2.983  -8.153  0.00  0.00    +0.011 C 
ATOM     18  C   UNL     1       3.634  -4.665  -8.784  0.00  0.00    +0.007 C 
ATOM     19  C   UNL     1       4.442  -4.298  -7.538  0.00  0.00    -0.010 C 
ATOM     20  C   UNL     1       5.415  -3.166  -7.877  0.00  0.00    +0.007 C 
ATOM     21  C   UNL     1       3.492  -3.838  -6.430  0.00  0.00    +0.011 C 
ENDBRANCH  11  12
ENDBRANCH   8  11
ENDBRANCH   4   7
BRANCH   1  23
ATOM     22  C   UNL     1      -0.019   1.526   0.010  0.00  0.00    +0.028 C 
ATOM     23  C   UNL     1       0.002  -0.004   0.002  0.00  0.00    +0.072 C 
BRANCH  23  24
ATOM     24  C   UNL     1      -1.433  -0.534   0.013  0.00  0.00    +0.026 C 
BRANCH  24  25
ATOM     25  C   UNL     1      -1.413  -2.059   0.130  0.00  0.00    +0.037 C 
BRANCH  25  26
ATOM     26  C   UNL     1      -2.827  -2.581   0.141  0.00  0.00    -0.047 A 
ATOM     27  C   UNL     1      -3.501  -2.723   1.340  0.00  0.00    +0.007 A 
ATOM     28  C   UNL     1      -4.797  -3.201   1.352  0.00  0.00    +0.045 A 
ATOM     29  C   UNL     1      -5.422  -3.539   0.161  0.00  0.00    +0.117 A 
ATOM     30  C   UNL     1      -4.744  -3.395  -1.041  0.00  0.00    +0.045 A 
ATOM     31  C   UNL     1      -3.450  -2.911  -1.048  0.00  0.00    +0.007 A 
BRANCH  29  32
ATOM     32  O   UNL     1      -6.697  -4.010   0.170  0.00  0.00    -0.507 OA
ATOM     33  H   UNL     1      -7.372  -3.321   0.100  0.00  0.00    +0.292 HD
ENDBRANCH  29  32
ENDBRANCH  25  26
ENDBRANCH  24  25
ENDBRANCH  23  24
ENDBRANCH   1  23
TORSDOF 8
