REMARK  Name = ZINC46053944
REMARK  4 active torsions:
REMARK  status: ('A' for Active; 'I' for Inactive)
REMARK    1  A    between atoms: C_5  and  C_7
REMARK    2  A    between atoms: C_7  and  N_8
REMARK    3  A    between atoms: N_8  and  S_9
REMARK    4  A    between atoms: S_9  and  C_12
REMARK                            x       y       z     vdW  Elec       q    Type
REMARK                         _______ _______ _______ _____ _____    ______ ____
ROOT
ATOM      1  C   UNL     1       2.327  -5.235   0.753  0.00  0.00    +0.106 A 
ATOM      2  C   UNL     1       1.964  -5.673  -0.509  0.00  0.00    +0.030 A 
ATOM      3  C   UNL     1       2.833  -6.432  -1.266  0.00  0.00    +0.026 A 
ATOM      4  C   UNL     1       4.088  -6.765  -0.764  0.00  0.00    +0.042 A 
ATOM      5  C   UNL     1       4.449  -6.319   0.512  0.00  0.00    +0.010 A 
ATOM      6  C   UNL     1       3.570  -5.551   1.264  0.00  0.00    +0.039 A 
ATOM      7  C   UNL     1       5.822  -6.827   0.760  0.00  0.00    +0.045 C 
ATOM      8  C   UNL     1       6.577  -6.647   1.857  0.00  0.00    -0.057 C 
ATOM      9  C   UNL     1       6.182  -5.880   3.102  0.00  0.00    +0.031 C 
ATOM     10  C   UNL     1       7.381  -5.951   4.071  0.00  0.00    +0.005 C 
ATOM     11  C   UNL     1       8.590  -6.224   3.140  0.00  0.00    +0.005 C 
ATOM     12  C   UNL     1       7.981  -7.180   2.082  0.00  0.00    +0.031 C 
ATOM     13  C   UNL     1       6.177  -7.576  -0.467  0.00  0.00    +0.249 C 
ATOM     14  O   UNL     1       7.227  -8.155  -0.674  0.00  0.00    -0.270 OA
ATOM     15  N   UNL     1       5.133  -7.503  -1.310  0.00  0.00    -0.281 N 
ATOM     16  H   UNL     1       5.111  -7.914  -2.188  0.00  0.00    +0.155 HD
ENDROOT
BRANCH   1  17
ATOM     17  S   UNL     1       1.204  -4.267   1.706  0.00  0.00    +0.059 S 
ATOM     18  O   UNL     1       1.573  -4.438   3.067  0.00  0.00    -0.153 OA
ATOM     19  O   UNL     1      -0.100  -4.569   1.227  0.00  0.00    -0.153 OA
BRANCH  17  20
ATOM     20  N   UNL     1       1.489  -2.679   1.333  0.00  0.00    -0.186 NA
ATOM     21  H   UNL     1       1.828  -2.075   2.012  0.00  0.00    +0.148 HD
BRANCH  20  22
ATOM     22  C   UNL     1       1.229  -2.186  -0.022  0.00  0.00    +0.142 C 
BRANCH  22  27
ATOM     23  C   UNL     1      -0.017   1.378   0.010  0.00  0.00    +0.000 A 
ATOM     24  C   UNL     1       1.171   2.086   0.002  0.00  0.00    +0.001 A 
ATOM     25  C   UNL     1       2.377   1.412  -0.013  0.00  0.00    +0.020 A 
ATOM     26  C   UNL     1       2.397   0.029  -0.021  0.00  0.00    +0.045 A 
ATOM     27  C   UNL     1       1.208  -0.679  -0.013  0.00  0.00    -0.014 A 
ATOM     28  C   UNL     1       0.002  -0.004   0.002  0.00  0.00    +0.006 A 
ATOM     29 CL   UNL     1       3.912  -0.818  -0.041  0.00  0.00    -0.083 Cl
ENDBRANCH  22  27
ENDBRANCH  20  22
ENDBRANCH  17  20
ENDBRANCH   1  17
TORSDOF 4
