REMARK  Name = ZINC45890377
REMARK  8 active torsions:
REMARK  status: ('A' for Active; 'I' for Inactive)
REMARK    1  A    between atoms: C_1  and  C_2
REMARK    2  A    between atoms: C_7  and  O_8
REMARK    3  A    between atoms: O_8  and  C_9
REMARK    4  A    between atoms: C_9  and  C_10
REMARK    5  A    between atoms: N_12  and  C_13
REMARK    6  A    between atoms: C_14  and  C_25
REMARK    7  A    between atoms: C_18  and  C_19
REMARK    8  A    between atoms: N_23  and  N_24
REMARK                            x       y       z     vdW  Elec       q    Type
REMARK                         _______ _______ _______ _____ _____    ______ ____
ROOT
ATOM      1  C   UNL     1      -1.884   2.467   5.974  0.00  0.00    +0.041 A 
ATOM      2  C   UNL     1      -0.631   2.509   6.581  0.00  0.00    -0.027 A 
ATOM      3  C   UNL     1      -0.469   2.981   7.846  0.00  0.00    +0.034 A 
ATOM      4  C   UNL     1      -1.573   3.450   8.595  0.00  0.00    +0.081 A 
ATOM      5  C   UNL     1      -2.832   3.397   7.954  0.00  0.00    +0.045 A 
ATOM      6  C   UNL     1      -2.992   2.924   6.676  0.00  0.00    -0.013 A 
ATOM      7  C   UNL     1      -4.359   2.897   6.041  0.00  0.00    +0.047 C 
ATOM      8  S   UNL     1      -3.917   4.057   9.195  0.00  0.00    -0.051 S 
ATOM      9  C   UNL     1      -2.676   4.354  10.446  0.00  0.00    +0.173 A 
ATOM     10  N   UNL     1      -1.577   3.946   9.853  0.00  0.00    -0.224 NA
ATOM     11  N   UNL     1      -2.832   4.878  11.714  0.00  0.00    -0.262 N 
ATOM     12  C   UNL     1       0.573   2.018   5.819  0.00  0.00    +0.046 C 
ATOM     13  H   UNL     1      -3.712   5.141  12.025  0.00  0.00    +0.168 HD
ENDROOT
BRANCH   1  16
ATOM     14  C   UNL     1      -2.906   0.990   4.411  0.00  0.00    +0.255 C 
ATOM     15  O   UNL     1      -3.513   0.466   5.321  0.00  0.00    -0.272 OA
ATOM     16  N   UNL     1      -2.024   1.976   4.669  0.00  0.00    -0.282 N 
ATOM     17  H   UNL     1      -1.486   2.345   3.952  0.00  0.00    +0.155 HD
BRANCH  14  18
ATOM     18  C   UNL     1      -3.137   0.538   2.992  0.00  0.00    +0.325 C 
BRANCH  18  19
ATOM     19  O   UNL     1      -4.109  -0.510   2.979  0.00  0.00    -0.481 OA
BRANCH  19  26
ATOM     20  C   UNL     1      -2.593  -2.709   2.062  0.00  0.00    +0.047 C 
ATOM     21  C   UNL     1      -3.726  -2.114   1.265  0.00  0.00    -0.006 A 
ATOM     22  C   UNL     1      -4.062  -2.649   0.036  0.00  0.00    +0.027 A 
ATOM     23  C   UNL     1      -5.101  -2.103  -0.697  0.00  0.00    +0.043 A 
ATOM     24  C   UNL     1      -5.806  -1.021  -0.201  0.00  0.00    +0.043 A 
ATOM     25  C   UNL     1      -5.473  -0.483   1.028  0.00  0.00    +0.084 A 
ATOM     26  C   UNL     1      -4.434  -1.034   1.767  0.00  0.00    +0.142 A 
ATOM     27 CL   UNL     1      -6.357   0.875   1.650  0.00  0.00    -0.080 Cl
ATOM     28 CL   UNL     1      -5.520  -2.777  -2.241  0.00  0.00    -0.083 Cl
ENDBRANCH  19  26
ENDBRANCH  18  19
ENDBRANCH  14  18
ENDBRANCH   1  16
BRANCH  11  29
ATOM     29  N   UNL     1      -1.746   5.028  12.529  0.00  0.00    -0.255 NA
ATOM     30  H   UNL     1      -2.014   5.421  13.419  0.00  0.00    +0.140 HD
ATOM     31  H   UNL     1      -1.263   4.151  12.652  0.00  0.00    +0.140 HD
ENDBRANCH  11  29
TORSDOF 5
