REMARK  Name = ZINC08921789
REMARK  3 active torsions:
REMARK  status: ('A' for Active; 'I' for Inactive)
REMARK    1  A    between atoms: C_3  and  S_22
REMARK    2  A    between atoms: C_6  and  N_7
REMARK    3  A    between atoms: S_22  and  N_25
REMARK                            x       y       z     vdW  Elec       q    Type
REMARK                         _______ _______ _______ _____ _____    ______ ____
ROOT
ATOM      1  N   UNL     1       3.622  -0.651  -0.031  0.00  0.00    -0.269 N 
ATOM      2  C   UNL     1       4.776   0.037  -0.144  0.00  0.00    +0.306 C 
ATOM      3  O   UNL     1       4.761   1.253  -0.141  0.00  0.00    -0.252 OA
ATOM      4  N   UNL     1       5.945  -0.623  -0.259  0.00  0.00    -0.285 N 
ATOM      5  C   UNL     1       5.971  -2.088  -0.371  0.00  0.00    +0.109 C 
ATOM      6  C   UNL     1       6.898  -2.652   0.703  0.00  0.00    +0.023 C 
ATOM      7  C   UNL     1       8.274  -1.991   0.587  0.00  0.00    -0.005 C 
ATOM      8  C   UNL     1       9.204  -2.573   1.655  0.00  0.00    +0.004 C 
ATOM      9  C   UNL     1       8.607  -2.315   3.041  0.00  0.00    +0.000 C 
ATOM     10  C   UNL     1       8.457  -0.809   3.261  0.00  0.00    +0.000 C 
ATOM     11  C   UNL     1       7.536  -0.224   2.189  0.00  0.00    +0.005 C 
ATOM     12  C   UNL     1       8.136  -0.483   0.806  0.00  0.00    +0.010 C 
ATOM     13  C   UNL     1       7.220   0.107  -0.269  0.00  0.00    +0.113 C 
ATOM     14  H   UNL     1       3.639  -1.618   0.037  0.00  0.00    +0.156 HD
ENDROOT
BRANCH   1  20
ATOM     15  C   UNL     1       1.278  -0.535  -0.602  0.00  0.00    +0.025 A 
ATOM     16  C   UNL     1       0.073   0.140  -0.580  0.00  0.00    +0.030 A 
ATOM     17  C   UNL     1      -0.016   1.378   0.029  0.00  0.00    +0.105 A 
ATOM     18  C   UNL     1       1.099   1.944   0.619  0.00  0.00    +0.030 A 
ATOM     19  C   UNL     1       2.307   1.274   0.600  0.00  0.00    +0.025 A 
ATOM     20  C   UNL     1       2.400   0.031  -0.011  0.00  0.00    +0.035 A 
BRANCH  17  21
ATOM     21  S   UNL     1      -1.553   2.239   0.049  0.00  0.00    +0.056 S 
ATOM     22  O   UNL     1      -1.245   3.618   0.203  0.00  0.00    -0.153 OA
ATOM     23  O   UNL     1      -2.309   1.746  -1.049  0.00  0.00    -0.153 OA
BRANCH  21  24
ATOM     24  N   UNL     1      -2.356   1.778   1.422  0.00  0.00    -0.204 NA
ATOM     25  H   UNL     1      -2.966   2.393   1.857  0.00  0.00    +0.144 HD
ATOM     26  H   UNL     1      -2.215   0.892   1.791  0.00  0.00    +0.144 HD
ENDBRANCH  21  24
ENDBRANCH  17  21
ENDBRANCH   1  20
TORSDOF 3
