REMARK  Name = ZINC62722555
REMARK  3 active torsions:
REMARK  status: ('A' for Active; 'I' for Inactive)
REMARK    1  A    between atoms: C_3  and  S_13
REMARK    2  A    between atoms: C_8  and  N_12
REMARK    3  A    between atoms: C_9  and  N_11
REMARK                            x       y       z     vdW  Elec       q    Type
REMARK                         _______ _______ _______ _____ _____    ______ ____
ROOT
ATOM      1  C   UNL     1      -0.017   1.401   0.010  0.00  0.00    +0.010 A 
ATOM      2  C   UNL     1       1.157   2.091   0.002  0.00  0.00    +0.030 A 
ATOM      3  C   UNL     1       2.380   1.425  -0.013  0.00  0.00    +0.120 A 
ATOM      4  C   UNL     1       2.438   0.065  -0.021  0.00  0.00    +0.038 A 
ATOM      5  C   UNL     1       1.247  -0.682  -0.013  0.00  0.00    -0.014 A 
ATOM      6  C   UNL     1       0.002  -0.004   0.002  0.00  0.00    -0.016 A 
ATOM      7  C   UNL     1      -1.191  -0.748   0.009  0.00  0.00    +0.033 A 
ATOM      8  C   UNL     1      -1.138  -2.112   0.001  0.00  0.00    +0.046 A 
ATOM      9  C   UNL     1       0.097  -2.784  -0.015  0.00  0.00    +0.046 A 
ATOM     10  C   UNL     1       1.271  -2.087  -0.021  0.00  0.00    +0.033 A 
ENDROOT
BRANCH   3  11
ATOM     11  S   UNL     1       3.876   2.357  -0.023  0.00  0.00    +0.140 S 
ATOM     12  O   UNL     1       4.865   1.561  -0.733  0.00  0.00    -0.140 OA
ATOM     13  O   UNL     1       3.590   3.607  -0.710  0.00  0.00    -0.140 OA
ATOM     14  O   UNL     1       4.248   2.573   1.367  0.00  0.00    -0.043 OA
ENDBRANCH   3  11
BRANCH   9  15
ATOM     15  N   UNL     1       0.123  -4.181  -0.022  0.00  0.00    -0.357 N 
ATOM     16  H   UNL     1      -0.708  -4.682  -0.017  0.00  0.00    +0.142 HD
ATOM     17  H   UNL     1       0.972  -4.651  -0.033  0.00  0.00    +0.142 HD
ENDBRANCH   9  15
BRANCH   8  18
ATOM     18  N   UNL     1      -2.326  -2.849   0.008  0.00  0.00    -0.357 N 
ATOM     19  H   UNL     1      -3.181  -2.391   0.019  0.00  0.00    +0.142 HD
ATOM     20  H   UNL     1      -2.295  -3.818   0.002  0.00  0.00    +0.142 HD
ENDBRANCH   8  18
TORSDOF 3
