REMARK  Name = ZINC40779742
REMARK  6 active torsions:
REMARK  status: ('A' for Active; 'I' for Inactive)
REMARK    1  A    between atoms: C_1  and  C_2
REMARK    2  A    between atoms: C_2  and  O_3
REMARK    3  A    between atoms: O_3  and  C_4
REMARK    4  A    between atoms: C_7  and  N_10
REMARK    5  A    between atoms: C_12  and  N_25
REMARK    6  A    between atoms: C_13  and  N_17
REMARK                            x       y       z     vdW  Elec       q    Type
REMARK                         _______ _______ _______ _____ _____    ______ ____
ROOT
ATOM      1  N   UNL     1      -1.988  -5.992  -0.033  0.00  0.00    -0.298 N 
ATOM      2  C   UNL     1      -3.260  -6.541   0.080  0.00  0.00    +0.149 A 
ATOM      3  C   UNL     1      -3.429  -7.923   0.192  0.00  0.00    +0.106 A 
ATOM      4  C   UNL     1      -4.728  -8.421   0.304  0.00  0.00    +0.150 A 
ATOM      5  N   UNL     1      -5.749  -7.567   0.299  0.00  0.00    -0.219 NA
ATOM      6  C   UNL     1      -5.546  -6.269   0.191  0.00  0.00    +0.225 A 
ATOM      7  N   UNL     1      -4.336  -5.757   0.089  0.00  0.00    -0.219 NA
ATOM      8  H   UNL     1      -1.215  -6.572  -0.114  0.00  0.00    +0.154 HD
ENDROOT
BRANCH   4   9
ATOM      9  N   UNL     1      -4.952  -9.789   0.417  0.00  0.00    -0.283 N 
ATOM     10  C   UNL     1      -6.253 -10.283   0.419  0.00  0.00    +0.124 A 
ATOM     11  C   UNL     1      -6.468 -11.658   0.421  0.00  0.00    +0.045 A 
ATOM     12  C   UNL     1      -7.766 -12.135   0.423  0.00  0.00    +0.020 A 
ATOM     13  C   UNL     1      -8.810 -11.218   0.423  0.00  0.00    +0.036 A 
ATOM     14  C   UNL     1      -8.524  -9.867   0.421  0.00  0.00    +0.128 A 
ATOM     15  N   UNL     1      -7.275  -9.441   0.424  0.00  0.00    -0.239 NA
ATOM     16 BR   UNL     1     -10.605 -11.814   0.425  0.00  0.00    -0.049 Br
ATOM     17  H   UNL     1      -4.202 -10.399   0.495  0.00  0.00    +0.155 HD
ENDBRANCH   4   9
BRANCH   1  21
ATOM     18  C   UNL     1      -1.495  -1.852  -0.024  0.00  0.00    +0.121 A 
ATOM     19  C   UNL     1      -2.518  -2.430   0.713  0.00  0.00    +0.047 A 
ATOM     20  C   UNL     1      -2.682  -3.801   0.711  0.00  0.00    +0.027 A 
ATOM     21  C   UNL     1      -1.823  -4.602  -0.030  0.00  0.00    +0.033 A 
ATOM     22  C   UNL     1      -0.799  -4.022  -0.768  0.00  0.00    +0.027 A 
ATOM     23  C   UNL     1      -0.640  -2.651  -0.769  0.00  0.00    +0.047 A 
BRANCH  18  24
ATOM     24  O   UNL     1      -1.335  -0.502  -0.022  0.00  0.00    -0.492 OA
BRANCH  24  26
ATOM     25  C   UNL     1      -1.916   1.747   0.646  0.00  0.00    +0.048 C 
ATOM     26  C   UNL     1      -2.252   0.259   0.767  0.00  0.00    +0.225 C 
ENDBRANCH  24  26
ENDBRANCH  18  24
ENDBRANCH   1  21
BRANCH   3  27
ATOM     27  N   UNL     1      -2.323  -8.787   0.192  0.00  0.00    -0.353 N 
ATOM     28  H   UNL     1      -1.426  -8.426   0.114  0.00  0.00    +0.143 HD
ATOM     29  H   UNL     1      -2.455  -9.744   0.271  0.00  0.00    +0.143 HD
ENDBRANCH   3  27
TORSDOF 5
