REMARK  Name = ZINC40377090
REMARK  6 active torsions:
REMARK  status: ('A' for Active; 'I' for Inactive)
REMARK    1  A    between atoms: C_1  and  C_2
REMARK    2  A    between atoms: C_5  and  S_8
REMARK    3  A    between atoms: S_8  and  N_11
REMARK    4  A    between atoms: N_11  and  C_12
REMARK    5  A    between atoms: C_12  and  C_13
REMARK    6  A    between atoms: N_14  and  O_15
REMARK                            x       y       z     vdW  Elec       q    Type
REMARK                         _______ _______ _______ _____ _____    ______ ____
ROOT
ATOM      1  S   UNL     1       0.063  -4.530  -0.023  0.00  0.00    +0.059 S 
ATOM      2  O   UNL     1      -0.476  -4.950   1.223  0.00  0.00    -0.153 OA
ATOM      3  O   UNL     1      -0.490  -4.937  -1.267  0.00  0.00    -0.153 OA
ENDROOT
BRANCH   1   8
ATOM      4  C   UNL     1      -0.018   1.503   0.010  0.00  0.00    +0.044 C 
ATOM      5  C   UNL     1       0.002  -0.004   0.002  0.00  0.00    -0.050 A 
ATOM      6  C   UNL     1       0.006  -0.689  -1.199  0.00  0.00    +0.005 A 
ATOM      7  C   UNL     1       0.025  -2.071  -1.206  0.00  0.00    +0.029 A 
ATOM      8  C   UNL     1       0.040  -2.768  -0.013  0.00  0.00    +0.105 A 
ATOM      9  C   UNL     1       0.037  -2.084   1.188  0.00  0.00    +0.029 A 
ATOM     10  C   UNL     1       0.023  -0.702   1.195  0.00  0.00    +0.005 A 
ENDBRANCH   1   8
BRANCH   1  11
ATOM     11  N   UNL     1       1.651  -4.999  -0.034  0.00  0.00    -0.183 NA
ATOM     12  H   UNL     1       2.011  -5.473  -0.800  0.00  0.00    +0.148 HD
BRANCH  11  13
ATOM     13  C   UNL     1       2.512  -4.699   1.113  0.00  0.00    +0.180 C 
BRANCH  13  14
ATOM     14  C   UNL     1       3.767  -5.528   1.029  0.00  0.00    +0.147 C 
ATOM     15  N   UNL     1       3.938  -6.344   0.042  0.00  0.00    -0.075 NA
ATOM     16  N   UNL     1       4.733  -5.415   2.004  0.00  0.00    -0.343 N 
ATOM     17  H   UNL     1       4.605  -4.802   2.745  0.00  0.00    +0.144 HD
ATOM     18  H   UNL     1       5.541  -5.949   1.950  0.00  0.00    +0.144 HD
BRANCH  15  19
ATOM     19  O   UNL     1       5.118  -7.123  -0.036  0.00  0.00    -0.408 OA
ATOM     20  H   UNL     1       5.155  -7.703  -0.809  0.00  0.00    +0.328 HD
ENDBRANCH  15  19
ENDBRANCH  13  14
ENDBRANCH  11  13
ENDBRANCH   1  11
TORSDOF 5
