REMARK  Name = ZINC36501852
REMARK  11 active torsions:
REMARK  status: ('A' for Active; 'I' for Inactive)
REMARK    1  A    between atoms: C_1  and  C_2
REMARK    2  A    between atoms: C_2  and  C_4
REMARK    3  A    between atoms: C_2  and  C_34
REMARK    4  A    between atoms: C_4  and  C_5
REMARK    5  A    between atoms: N_7  and  C_8
REMARK    6  A    between atoms: N_7  and  C_14
REMARK    7  A    between atoms: C_8  and  C_9
REMARK    8  A    between atoms: C_14  and  C_16
REMARK    9  A    between atoms: C_14  and  C_25
REMARK   10  A    between atoms: C_19  and  N_22
REMARK   11  A    between atoms: N_27  and  C_28
REMARK                            x       y       z     vdW  Elec       q    Type
REMARK                         _______ _______ _______ _____ _____    ______ ____
ROOT
ATOM      1  C   UNL     1      -0.686  -0.415  -4.002  0.00  0.00    +0.193 C 
ENDROOT
BRANCH   1   2
ATOM      2  C   UNL     1      -0.092  -1.798  -3.927  0.00  0.00    -0.018 A 
ATOM      3  C   UNL     1       1.270  -1.957  -3.752  0.00  0.00    +0.008 A 
ATOM      4  C   UNL     1       1.814  -3.226  -3.684  0.00  0.00    +0.033 A 
ATOM      5  C   UNL     1       0.997  -4.335  -3.791  0.00  0.00    +0.126 A 
ATOM      6  C   UNL     1      -0.365  -4.176  -3.965  0.00  0.00    +0.033 A 
ATOM      7  C   UNL     1      -0.910  -2.908  -4.029  0.00  0.00    +0.008 A 
BRANCH   5   8
ATOM      8  N   UNL     1       1.580  -5.694  -3.719  0.00  0.00    +0.056 N 
ATOM      9  O   UNL     1       2.771  -5.833  -3.567  0.00  0.00    -0.126 OA
ATOM     10  O   UNL     1       0.865  -6.665  -3.812  0.00  0.00    -0.126 OA
ENDBRANCH   5   8
ENDBRANCH   1   2
BRANCH   1  11
ATOM     11  C   UNL     1      -0.327   0.216  -5.322  0.00  0.00    +0.238 C 
ATOM     12  O   UNL     1       0.814   0.568  -5.536  0.00  0.00    -0.273 OA
ATOM     13  N   UNL     1      -1.274   0.387  -6.266  0.00  0.00    -0.311 N 
ATOM     14  H   UNL     1      -2.186   0.105  -6.095  0.00  0.00    +0.149 HD
BRANCH  13  15
ATOM     15  C   UNL     1      -0.925   1.000  -7.551  0.00  0.00    +0.073 C 
ATOM     16  C   UNL     1      -0.985   2.523  -7.422  0.00  0.00    +0.022 C 
ATOM     17  C   UNL     1      -0.621   3.163  -8.763  0.00  0.00    +0.002 C 
ATOM     18  C   UNL     1      -1.612   2.703  -9.834  0.00  0.00    +0.000 C 
ATOM     19  C   UNL     1      -1.552   1.179  -9.962  0.00  0.00    +0.002 C 
ATOM     20  C   UNL     1      -1.916   0.539  -8.621  0.00  0.00    +0.022 C 
ENDBRANCH  13  15
ENDBRANCH   1  11
BRANCH   1  23
ATOM     21  C   UNL     1      -0.493   0.130  -1.634  0.00  0.00    +0.217 C 
ATOM     22  O   UNL     1      -1.239  -0.796  -1.391  0.00  0.00    -0.276 OA
ATOM     23  N   UNL     1      -0.154   0.404  -2.909  0.00  0.00    -0.279 N 
BRANCH  21  24
ATOM     24  C   UNL     1       0.054   0.972  -0.511  0.00  0.00    +0.104 C 
BRANCH  24  26
ATOM     25  C   UNL     1      -1.999   0.646   0.875  0.00  0.00    +0.013 C 
ATOM     26  C   UNL     1      -0.482   0.452   0.825  0.00  0.00    +0.025 C 
BRANCH  26  27
ATOM     27  C   UNL     1       0.159   1.215   1.955  0.00  0.00    -0.044 A 
ATOM     28  C   UNL     1      -0.004   2.584   2.045  0.00  0.00    +0.004 A 
ATOM     29  C   UNL     1       0.584   3.284   3.082  0.00  0.00    +0.000 A 
ATOM     30  C   UNL     1       1.336   2.614   4.029  0.00  0.00    +0.000 A 
ATOM     31  C   UNL     1       1.499   1.244   3.939  0.00  0.00    +0.000 A 
ATOM     32  C   UNL     1       0.907   0.544   2.905  0.00  0.00    +0.004 A 
ENDBRANCH  26  27
ENDBRANCH  24  26
ENDBRANCH  21  24
BRANCH  23  33
ATOM     33  C   UNL     1       0.747   1.522  -3.203  0.00  0.00    +0.183 C 
BRANCH  33  34
ATOM     34  C   UNL     1       2.175   1.078  -3.017  0.00  0.00    +0.122 A 
ATOM     35  C   UNL     1       3.118   1.039  -3.976  0.00  0.00    +0.046 A 
ATOM     36  C   UNL     1       4.302   0.564  -3.367  0.00  0.00    +0.041 A 
ATOM     37  C   UNL     1       4.012   0.342  -2.072  0.00  0.00    +0.195 A 
ATOM     38  O   UNL     1       2.724   0.660  -1.865  0.00  0.00    -0.466 OA
ENDBRANCH  33  34
ENDBRANCH  23  33
ENDBRANCH   1  23
TORSDOF 10
