REMARK  Name = ZINC22279496
REMARK  3 active torsions:
REMARK  status: ('A' for Active; 'I' for Inactive)
REMARK    1  A    between atoms: C_6  and  C_7
REMARK    2  A    between atoms: C_10  and  S_13
REMARK    3  A    between atoms: S_13  and  C_14
REMARK                            x       y       z     vdW  Elec       q    Type
REMARK                         _______ _______ _______ _____ _____    ______ ____
ROOT
ATOM      1  C   UNL     1       1.242  -0.435  -0.012  0.00  0.00    +0.182 A 
ATOM      2  N   UNL     1       2.055   0.674  -0.014  0.00  0.00    -0.201 NA
ATOM      3  H   UNL     1      -0.975   1.818   0.022  0.00  0.00    +0.191 HD
ATOM      4  C   UNL     1       1.213   1.749  -0.000  0.00  0.00    +0.185 A 
ATOM      5  N   UNL     1      -0.015   1.281   0.010  0.00  0.00    -0.253 N 
ATOM      6  N   UNL     1       0.002  -0.004   0.003  0.00  0.00    -0.152 NA
ENDROOT
BRANCH   1  12
ATOM      7  C   UNL     1       3.042  -2.157  -0.045  0.00  0.00    +0.013 A 
ATOM      8  C   UNL     1       3.445  -3.476  -0.052  0.00  0.00    +0.021 A 
ATOM      9  C   UNL     1       2.504  -4.492  -0.050  0.00  0.00    +0.041 A 
ATOM     10  C   UNL     1       1.152  -4.190  -0.036  0.00  0.00    +0.021 A 
ATOM     11  C   UNL     1       0.736  -2.875  -0.023  0.00  0.00    +0.013 A 
ATOM     12  C   UNL     1       1.681  -1.847  -0.025  0.00  0.00    +0.021 A 
ATOM     13 CL   UNL     1       3.019  -6.149  -0.066  0.00  0.00    -0.084 Cl
ENDBRANCH   1  12
BRANCH   4  14
ATOM     14  S   UNL     1       1.684   3.447   0.004  0.00  0.00    -0.074 S 
BRANCH  14  15
ATOM     15  C   UNL     1       0.051   4.226   0.023  0.00  0.00    +0.140 C 
ATOM     16  C   UNL     1       0.204   5.745  -0.096  0.00  0.00    +0.024 C 
ATOM     17  C   UNL     1      -1.052   6.368  -0.676  0.00  0.00    +0.003 C 
ATOM     18  C   UNL     1      -2.263   6.265   0.233  0.00  0.00    +0.019 C 
ATOM     19  C   UNL     1      -2.706   4.809   0.389  0.00  0.00    +0.104 C 
ATOM     20  N   UNL     1      -1.939   4.199   1.487  0.00  0.00    -0.314 N 
ATOM     21  C   UNL     1      -0.645   3.916   1.332  0.00  0.00    +0.226 C 
ATOM     22  O   UNL     1      -0.024   3.408   2.241  0.00  0.00    -0.275 OA
ATOM     23  H   UNL     1      -2.433   3.973   2.443  0.00  0.00    +0.149 HD
ENDBRANCH  14  15
ENDBRANCH   4  14
TORSDOF 3
