REMARK  Name = ZINC01683647
REMARK  5 active torsions:
REMARK  status: ('A' for Active; 'I' for Inactive)
REMARK    1  A    between atoms: C_1  and  C_2
REMARK    2  A    between atoms: C_2  and  O_3
REMARK    3  A    between atoms: O_3  and  C_4
REMARK    4  A    between atoms: C_9  and  S_15
REMARK    5  A    between atoms: C_13  and  N_14
REMARK                            x       y       z     vdW  Elec       q    Type
REMARK                         _______ _______ _______ _____ _____    ______ ____
ROOT
ATOM      1  C   UNL     1      -3.979   2.207   5.383  0.00  0.00    +0.142 A 
ATOM      2  C   UNL     1      -4.186   0.949   4.816  0.00  0.00    +0.048 A 
ATOM      3  C   UNL     1      -3.495   0.555   3.711  0.00  0.00    +0.012 A 
ATOM      4  C   UNL     1      -2.556   1.420   3.124  0.00  0.00    -0.014 A 
ATOM      5  C   UNL     1      -1.829   1.038   1.983  0.00  0.00    +0.038 A 
ATOM      6  C   UNL     1      -0.927   1.900   1.439  0.00  0.00    +0.120 A 
ATOM      7  C   UNL     1      -0.707   3.157   2.000  0.00  0.00    +0.030 A 
ATOM      8  C   UNL     1      -1.397   3.563   3.102  0.00  0.00    +0.012 A 
ATOM      9  C   UNL     1      -2.336   2.701   3.690  0.00  0.00    +0.006 A 
ATOM     10  C   UNL     1      -3.065   3.086   4.834  0.00  0.00    +0.075 A 
ENDROOT
BRANCH   6  11
ATOM     11  S   UNL     1      -0.017   1.417   0.010  0.00  0.00    +0.140 S 
ATOM     12  O   UNL     1       0.002  -0.004   0.002  0.00  0.00    -0.140 OA
ATOM     13  O   UNL     1       1.172   2.195   0.003  0.00  0.00    -0.140 OA
ATOM     14  O   UNL     1      -0.826   1.847  -1.205  0.00  0.00    -0.043 OA
ENDBRANCH   6  11
BRANCH  10  15
ATOM     15  N   UNL     1      -2.864   4.344   5.408  0.00  0.00    -0.355 N 
ATOM     16  H   UNL     1      -3.367   4.604   6.195  0.00  0.00    +0.142 HD
ATOM     17  H   UNL     1      -2.221   4.957   5.019  0.00  0.00    +0.142 HD
ENDBRANCH  10  15
BRANCH   1  18
ATOM     18  O   UNL     1      -4.686   2.572   6.487  0.00  0.00    -0.490 OA
BRANCH  18  20
ATOM     19  C   UNL     1      -6.310   2.204   8.239  0.00  0.00    +0.048 C 
ATOM     20  C   UNL     1      -5.616   1.619   7.006  0.00  0.00    +0.226 C 
ENDBRANCH  18  20
ENDBRANCH   1  18
TORSDOF 4
