REMARK  Name = ZINC54412254
REMARK  10 active torsions:
REMARK  status: ('A' for Active; 'I' for Inactive)
REMARK    1  A    between atoms: C_1  and  C_2
REMARK    2  A    between atoms: C_5  and  N_21
REMARK    3  A    between atoms: C_7  and  N_8
REMARK    4  A    between atoms: N_11  and  C_12
REMARK    5  A    between atoms: C_12  and  C_14
REMARK    6  A    between atoms: C_12  and  C_15
REMARK    7  A    between atoms: C_18  and  C_20
REMARK    8  A    between atoms: C_22  and  C_24
REMARK    9  A    between atoms: C_24  and  C_25
REMARK   10  A    between atoms: C_24  and  C_26
REMARK                            x       y       z     vdW  Elec       q    Type
REMARK                         _______ _______ _______ _____ _____    ______ ____
ROOT
ATOM      1  C   UNL     1      -0.384   1.307   0.267  0.00  0.00    +0.045 C 
ATOM      2  C   UNL     1      -0.182  -0.174   0.083  0.00  0.00    -0.029 A 
ATOM      3  C   UNL     1      -0.323  -0.740  -1.170  0.00  0.00    +0.007 A 
ATOM      4  C   UNL     1      -0.139  -2.098  -1.343  0.00  0.00    +0.024 A 
ATOM      5  C   UNL     1       0.189  -2.900  -0.257  0.00  0.00    +0.035 A 
ATOM      6  C   UNL     1       0.332  -2.335   1.003  0.00  0.00    +0.047 A 
ATOM      7  C   UNL     1       0.151  -0.970   1.172  0.00  0.00    +0.039 A 
ENDROOT
BRANCH   7   8
ATOM      8  N   UNL     1       0.300  -0.396   2.439  0.00  0.00    -0.269 N 
ATOM      9  C   UNL     1       0.058  -1.129   3.544  0.00  0.00    +0.304 C 
ATOM     10  O   UNL     1      -0.214  -2.309   3.442  0.00  0.00    -0.252 OA
ATOM     11  N   UNL     1       0.116  -0.553   4.761  0.00  0.00    -0.292 N 
ATOM     12  H   UNL     1       0.578   0.530   2.523  0.00  0.00    +0.156 HD
ATOM     13  H   UNL     1       0.333   0.389   4.842  0.00  0.00    +0.151 HD
BRANCH  11  14
ATOM     14  C   UNL     1      -0.147  -1.350   5.962  0.00  0.00    +0.108 C 
ATOM     15  C   UNL     1       1.138  -2.057   6.397  0.00  0.00    +0.033 C 
BRANCH  14  16
ATOM     16  C   UNL     1      -0.623  -0.446   7.070  0.00  0.00    +0.010 A 
ATOM     17  C   UNL     1      -1.592  -0.663   7.992  0.00  0.00    +0.013 A 
ATOM     18  C   UNL     1      -1.861   0.319   8.927  0.00  0.00    +0.011 A 
ATOM     19  C   UNL     1      -1.148   1.471   8.893  0.00  0.00    -0.013 A 
ATOM     20  S   UNL     1      -0.050   1.185   7.514  0.00  0.00    -0.097 S 
ATOM     21  C   UNL     1      -1.250   2.678   9.790  0.00  0.00    +0.051 C 
ENDBRANCH  14  16
ENDBRANCH  11  14
ENDBRANCH   7   8
BRANCH   5  22
ATOM     22  N   UNL     1       0.375  -4.276  -0.432  0.00  0.00    -0.285 N 
ATOM     23  C   UNL     1       0.944  -4.739  -1.563  0.00  0.00    +0.220 C 
ATOM     24  O   UNL     1       1.220  -3.973  -2.461  0.00  0.00    -0.275 OA
ATOM     25  H   UNL     1       0.094  -4.895   0.259  0.00  0.00    +0.155 HD
BRANCH  23  26
ATOM     26  C   UNL     1       1.237  -6.210  -1.710  0.00  0.00    +0.069 C 
ATOM     27  C   UNL     1      -0.066  -7.004  -1.599  0.00  0.00    +0.017 C 
ATOM     28  C   UNL     1       1.878  -6.469  -3.075  0.00  0.00    +0.017 C 
ENDBRANCH  23  26
ENDBRANCH   5  22
TORSDOF 5
