REMARK  Name = ZINC00995690
REMARK  8 active torsions:
REMARK  status: ('A' for Active; 'I' for Inactive)
REMARK    1  A    between atoms: C_1  and  C_2
REMARK    2  A    between atoms: C_2  and  C_3
REMARK    3  A    between atoms: C_10  and  N_15
REMARK    4  A    between atoms: C_11  and  C_12
REMARK    5  A    between atoms: C_16  and  C_18
REMARK    6  A    between atoms: C_19  and  C_20
REMARK    7  A    between atoms: C_23  and  O_26
REMARK    8  A    between atoms: O_26  and  C_27
REMARK                            x       y       z     vdW  Elec       q    Type
REMARK                         _______ _______ _______ _____ _____    ______ ____
ROOT
ATOM      1  C   UNL     1       3.891   3.128  -0.398  0.00  0.00    -0.006 C 
ATOM      2  C   UNL     1       4.445   1.963   0.428  0.00  0.00    +0.008 C 
ATOM      3  C   UNL     1       3.805   0.651  -0.030  0.00  0.00    +0.037 C 
ATOM      4  C   UNL     1       2.290   0.813  -0.015  0.00  0.00    -0.023 A 
ATOM      5  C   UNL     1       1.722   2.038  -0.003  0.00  0.00    -0.004 A 
ATOM      6  S   UNL     1      -0.021   1.728   0.011  0.00  0.00    -0.077 S 
ATOM      7  C   UNL     1       0.002  -0.004   0.002  0.00  0.00    +0.085 A 
ATOM      8  C   UNL     1       1.358  -0.302  -0.012  0.00  0.00    +0.068 A 
ATOM      9  C   UNL     1       2.425   3.360  -0.004  0.00  0.00    +0.046 C 
ENDROOT
BRANCH   8  10
ATOM     10  C   UNL     1       1.832  -1.689  -0.025  0.00  0.00    +0.244 C 
ATOM     11  O   UNL     1       2.018  -2.259  -1.084  0.00  0.00    -0.270 OA
ATOM     12  N   UNL     1       2.061  -2.333   1.137  0.00  0.00    -0.325 N 
ATOM     13  H   UNL     1       1.912  -1.879   1.981  0.00  0.00    +0.145 HD
ATOM     14  H   UNL     1       2.374  -3.251   1.128  0.00  0.00    +0.145 HD
ENDBRANCH   8  10
BRANCH   7  15
ATOM     15  N   UNL     1      -1.071  -0.879   0.008  0.00  0.00    -0.276 N 
ATOM     16  C   UNL     1      -2.331  -0.401   0.022  0.00  0.00    +0.241 C 
ATOM     17  O   UNL     1      -2.526   0.801   0.030  0.00  0.00    -0.270 OA
ATOM     18  H   UNL     1      -0.916  -1.837   0.002  0.00  0.00    +0.156 HD
BRANCH  16  19
ATOM     19  C   UNL     1      -3.464  -1.325   0.029  0.00  0.00    +0.068 C 
ATOM     20  C   UNL     1      -4.726  -0.845   0.043  0.00  0.00    +0.013 C 
BRANCH  20  21
ATOM     21  C   UNL     1      -5.865  -1.774   0.049  0.00  0.00    -0.025 A 
ATOM     22  C   UNL     1      -5.644  -3.156   0.034  0.00  0.00    +0.011 A 
ATOM     23  C   UNL     1      -6.715  -4.022   0.046  0.00  0.00    +0.046 A 
ATOM     24  C   UNL     1      -8.013  -3.526   0.061  0.00  0.00    +0.120 A 
ATOM     25  C   UNL     1      -8.238  -2.154   0.070  0.00  0.00    +0.046 A 
ATOM     26  C   UNL     1      -7.175  -1.279   0.064  0.00  0.00    +0.011 A 
BRANCH  24  27
ATOM     27  O   UNL     1      -9.065  -4.383   0.066  0.00  0.00    -0.495 OA
ATOM     28  C   UNL     1      -8.763  -5.780   0.056  0.00  0.00    +0.277 C 
ENDBRANCH  24  27
ENDBRANCH  20  21
ENDBRANCH  16  19
ENDBRANCH   7  15
BRANCH   1  30
ATOM     29  C   UNL     1       4.233   5.520  -1.031  0.00  0.00    +0.004 C 
ATOM     30  C   UNL     1       4.707   4.391  -0.114  0.00  0.00    +0.000 C 
ENDBRANCH   1  30
TORSDOF 6
