REMARK  Name = ZINC14328557
REMARK  8 active torsions:
REMARK  status: ('A' for Active; 'I' for Inactive)
REMARK    1  A    between atoms: C_1  and  C_2
REMARK    2  A    between atoms: C_2  and  C_4
REMARK    3  A    between atoms: C_2  and  N_60
REMARK    4  A    between atoms: N_6  and  C_7
REMARK    5  A    between atoms: C_10  and  S_13
REMARK    6  A    between atoms: S_13  and  N_16
REMARK    7  A    between atoms: C_19  and  C_22
REMARK    8  A    between atoms: C_22  and  C_24
REMARK                            x       y       z     vdW  Elec       q    Type
REMARK                         _______ _______ _______ _____ _____    ______ ____
ROOT
ATOM      1  C   UNL     1      -7.211  -0.275  -0.345  0.00  0.00    -0.077 C 
ATOM      2  C   UNL     1      -5.926  -1.089  -0.176  0.00  0.00    -0.007 C 
ATOM      3  C   UNL     1      -4.908  -0.267   0.619  0.00  0.00    +0.057 C 
ATOM      4  C   UNL     1      -5.516   0.116   1.970  0.00  0.00    -0.007 C 
ATOM      5  C   UNL     1      -6.812   0.895   1.739  0.00  0.00    -0.077 C 
ATOM      6  N   UNL     1      -7.759   0.040   0.991  0.00  0.00    +0.387 N 
ATOM      7  H   UNL     1      -7.898  -0.835   1.509  0.00  0.00    -0.081 HD
ENDROOT
BRANCH   6   9
ATOM      8  C   UNL     1      -8.974   1.833  -0.202  0.00  0.00    -0.004 C 
ATOM      9  C   UNL     1      -9.059   0.728   0.854  0.00  0.00    +0.016 C 
BRANCH   9  10
ATOM     10  C   UNL     1     -10.098  -0.282   0.441  0.00  0.00    +0.203 C 
ATOM     11  O   UNL     1      -9.756  -1.367   0.020  0.00  0.00    -0.277 OA
ATOM     12  N   UNL     1     -11.408   0.019   0.538  0.00  0.00    -0.287 N 
ATOM     13  H   UNL     1     -11.682   0.912   0.800  0.00  0.00    +0.155 HD
BRANCH  12  14
ATOM     14  C   UNL     1     -12.373  -0.955   0.261  0.00  0.00    +0.033 A 
ATOM     15  C   UNL     1     -13.587  -0.590  -0.307  0.00  0.00    +0.025 A 
ATOM     16  C   UNL     1     -14.536  -1.555  -0.584  0.00  0.00    +0.030 A 
ATOM     17  C   UNL     1     -14.282  -2.882  -0.288  0.00  0.00    +0.105 A 
ATOM     18  C   UNL     1     -13.076  -3.247   0.282  0.00  0.00    +0.030 A 
ATOM     19  C   UNL     1     -12.121  -2.288   0.557  0.00  0.00    +0.025 A 
BRANCH  17  20
ATOM     20  S   UNL     1     -15.497  -4.109  -0.637  0.00  0.00    +0.056 S 
ATOM     21  O   UNL     1     -16.320  -3.583  -1.670  0.00  0.00    -0.153 OA
ATOM     22  O   UNL     1     -14.803  -5.342  -0.770  0.00  0.00    -0.153 OA
BRANCH  20  23
ATOM     23  N   UNL     1     -16.455  -4.247   0.707  0.00  0.00    -0.204 NA
ATOM     24  H   UNL     1     -16.279  -3.696   1.486  0.00  0.00    +0.144 HD
ATOM     25  H   UNL     1     -17.191  -4.878   0.715  0.00  0.00    +0.144 HD
ENDBRANCH  20  23
ENDBRANCH  17  20
ENDBRANCH  12  14
ENDBRANCH   9  10
ENDBRANCH   6   9
BRANCH   3  26
ATOM     26  C   UNL     1      -3.662  -1.086   0.840  0.00  0.00    +0.166 C 
ATOM     27  O   UNL     1      -3.724  -2.297   0.835  0.00  0.00    -0.292 OA
BRANCH  26  28
ATOM     28  C   UNL     1      -2.374  -0.418   1.063  0.00  0.00    +0.021 A 
ATOM     29  C   UNL     1      -2.299   0.980   1.070  0.00  0.00    +0.015 A 
ATOM     30  C   UNL     1      -1.089   1.603   1.274  0.00  0.00    +0.050 A 
ATOM     31  C   UNL     1       0.062   0.849   1.482  0.00  0.00    +0.162 A 
ATOM     32  C   UNL     1      -0.005  -0.543   1.478  0.00  0.00    +0.163 A 
ATOM     33  C   UNL     1      -1.215  -1.176   1.270  0.00  0.00    +0.060 A 
ATOM     34  O   UNL     1       1.113  -1.294   1.681  0.00  0.00    -0.485 OA
ATOM     35  C   UNL     1       2.371  -0.631   1.514  0.00  0.00    +0.270 C 
ATOM     36  C   UNL     1       2.306   0.713   2.251  0.00  0.00    +0.270 C 
ATOM     37  O   UNL     1       1.245   1.487   1.681  0.00  0.00    -0.485 OA
ENDBRANCH  26  28
ENDBRANCH   3  26
TORSDOF 7
