REMARK  Name = ZINC16689116
REMARK  12 active torsions:
REMARK  status: ('A' for Active; 'I' for Inactive)
REMARK    1  A    between atoms: C_1  and  C_2
REMARK    2  A    between atoms: C_2  and  O_3
REMARK    3  A    between atoms: O_3  and  C_4
REMARK    4  A    between atoms: C_6  and  C_20
REMARK    5  A    between atoms: C_9  and  O_10
REMARK    6  A    between atoms: O_10  and  C_11
REMARK    7  A    between atoms: C_11  and  C_12
REMARK    8  A    between atoms: N_21  and  N_22
REMARK    9  A    between atoms: C_23  and  C_25
REMARK   10  A    between atoms: C_26  and  C_33
REMARK   11  A    between atoms: C_27  and  C_31
REMARK   12  A    between atoms: C_28  and  N_30
REMARK                            x       y       z     vdW  Elec       q    Type
REMARK                         _______ _______ _______ _____ _____    ______ ____
ROOT
ATOM      1  C   UNL     1       1.210  -0.675  -0.013  0.00  0.00    +0.163 A 
ATOM      2  C   UNL     1       0.002  -0.004   0.002  0.00  0.00    +0.059 A 
ATOM      3  C   UNL     1      -0.017   1.393   0.010  0.00  0.00    -0.002 A 
ATOM      4  C   UNL     1       1.186   2.105   0.002  0.00  0.00    +0.013 A 
ATOM      5  C   UNL     1       2.387   1.428  -0.014  0.00  0.00    +0.050 A 
ATOM      6  C   UNL     1       2.405   0.041  -0.021  0.00  0.00    +0.162 A 
ENDROOT
BRANCH   3   7
ATOM      7  C   UNL     1      -1.302   2.115   0.020  0.00  0.00    +0.138 C 
ATOM      8  N   UNL     1      -1.318   3.413   0.027  0.00  0.00    -0.187 NA
BRANCH   8   9
ATOM      9  N   UNL     1      -2.540   4.098   0.036  0.00  0.00    -0.203 N 
ATOM     10  C   UNL     1      -2.556   5.446   0.044  0.00  0.00    +0.270 C 
ATOM     11  O   UNL     1      -1.509   6.068   0.042  0.00  0.00    -0.268 OA
ATOM     12  H   UNL     1      -3.374   3.603   0.038  0.00  0.00    +0.178 HD
BRANCH  10  13
ATOM     13  C   UNL     1      -3.831   6.162   0.054  0.00  0.00    +0.081 A 
ATOM     14  C   UNL     1      -4.054   7.513   0.062  0.00  0.00    -0.012 A 
ATOM     15  C   UNL     1      -5.369   7.949   0.070  0.00  0.00    +0.083 A 
ATOM     16  C   UNL     1      -6.377   6.978   0.069  0.00  0.00    +0.081 A 
ATOM     17  S   UNL     1      -5.484   5.492   0.050  0.00  0.00    -0.068 S 
ATOM     18  C   UNL     1      -2.908   8.492   0.063  0.00  0.00    +0.046 C 
BRANCH  16  19
ATOM     19  N   UNL     1      -7.742   7.158   0.076  0.00  0.00    -0.352 N 
ATOM     20  H   UNL     1      -8.113   8.054   0.083  0.00  0.00    +0.143 HD
ATOM     21  H   UNL     1      -8.333   6.389   0.075  0.00  0.00    +0.143 HD
ENDBRANCH  16  19
BRANCH  15  22
ATOM     22  C   UNL     1      -5.686   9.345   0.080  0.00  0.00    +0.102 C 
ATOM     23  N   UNL     1      -5.938  10.453   0.087  0.00  0.00    -0.191 NA
ENDBRANCH  15  22
ENDBRANCH  10  13
ENDBRANCH   8   9
ENDBRANCH   3   7
BRANCH   1  24
ATOM     24  O   UNL     1       1.232  -2.035  -0.021  0.00  0.00    -0.489 OA
BRANCH  24  26
ATOM     25  C   UNL     1       0.195  -4.218  -0.022  0.00  0.00    +0.048 C 
ATOM     26  C   UNL     1      -0.030  -2.705  -0.012  0.00  0.00    +0.226 C 
ENDBRANCH  24  26
ENDBRANCH   1  24
BRANCH   6  27
ATOM     27  O   UNL     1       3.592  -0.622  -0.036  0.00  0.00    -0.484 OA
BRANCH  27  28
ATOM     28  C   UNL     1       4.779   0.174  -0.044  0.00  0.00    +0.266 C 
BRANCH  28  29
ATOM     29  C   UNL     1       5.988  -0.726  -0.061  0.00  0.00    +0.008 A 
ATOM     30  C   UNL     1       5.827  -2.099  -0.067  0.00  0.00    +0.010 A 
ATOM     31  C   UNL     1       6.934  -2.925  -0.083  0.00  0.00    +0.020 A 
ATOM     32  C   UNL     1       8.205  -2.379  -0.093  0.00  0.00    +0.042 A 
ATOM     33  C   UNL     1       8.367  -1.005  -0.087  0.00  0.00    +0.040 A 
ATOM     34  C   UNL     1       7.258  -0.178  -0.076  0.00  0.00    +0.049 A 
ATOM     35 CL   UNL     1       7.460   1.546  -0.076  0.00  0.00    -0.083 Cl
ATOM     36 CL   UNL     1       9.597  -3.417  -0.112  0.00  0.00    -0.083 Cl
ENDBRANCH  28  29
ENDBRANCH  27  28
ENDBRANCH   6  27
TORSDOF 10
