REMARK  Name = ZINC19898892
REMARK  3 active torsions:
REMARK  status: ('A' for Active; 'I' for Inactive)
REMARK    1  A    between atoms: C_1  and  C_2
REMARK    2  A    between atoms: N_15  and  N_16
REMARK    3  A    between atoms: C_22  and  C_27
REMARK                            x       y       z     vdW  Elec       q    Type
REMARK                         _______ _______ _______ _____ _____    ______ ____
ROOT
ATOM      1  C   UNL     1      -0.064  -7.501  -2.550  0.00  0.00    +0.011 C 
ATOM      2  C   UNL     1      -0.645  -6.164  -3.031  0.00  0.00    -0.029 C 
ATOM      3  C   UNL     1      -1.471  -6.353  -4.332  0.00  0.00    +0.007 C 
ATOM      4  C   UNL     1      -2.536  -5.244  -4.299  0.00  0.00    +0.001 C 
ATOM      5  C   UNL     1      -2.744  -4.868  -2.817  0.00  0.00    +0.004 C 
ATOM      6  C   UNL     1      -1.658  -5.597  -2.034  0.00  0.00    -0.002 C 
ATOM      7  C   UNL     1      -1.065  -4.839  -0.885  0.00  0.00    -0.003 C 
ATOM      8  C   UNL     1      -2.123  -4.221   0.017  0.00  0.00    +0.008 C 
ATOM      9  C   UNL     1      -2.507  -2.811  -0.419  0.00  0.00    +0.031 C 
ATOM     10  C   UNL     1      -1.246  -1.979  -0.546  0.00  0.00    -0.062 C 
ATOM     11  C   UNL     1      -1.208  -0.826   0.116  0.00  0.00    +0.024 C 
ATOM     12  C   UNL     1       0.012  -0.004   0.001  0.00  0.00    +0.059 C 
ATOM     13  N   UNL     1      -0.015   1.291   0.009  0.00  0.00    -0.184 NA
ATOM     14  C   UNL     1       1.296  -0.802  -0.136  0.00  0.00    +0.058 C 
ATOM     15  C   UNL     1       1.160  -1.707  -1.354  0.00  0.00    +0.017 C 
ATOM     16  C   UNL     1      -0.137  -2.492  -1.412  0.00  0.00    -0.007 C 
ATOM     17  C   UNL     1       0.125  -3.962  -1.145  0.00  0.00    +0.002 C 
ATOM     18  C   UNL     1       1.109  -4.569  -2.133  0.00  0.00    +0.005 C 
ATOM     19  C   UNL     1       0.462  -5.168  -3.361  0.00  0.00    +0.007 C 
ATOM     20  C   UNL     1      -0.624  -2.306  -2.853  0.00  0.00    +0.016 C 
ENDROOT
BRANCH  13  21
ATOM     21  N   UNL     1       1.183   2.017   0.015  0.00  0.00    -0.191 N 
ATOM     22  C   UNL     1       1.157   3.360   0.125  0.00  0.00    +0.317 C 
ATOM     23  O   UNL     1       2.197   3.990   0.131  0.00  0.00    -0.251 OA
ATOM     24  N   UNL     1      -0.022   4.005   0.229  0.00  0.00    -0.312 N 
ATOM     25  H   UNL     1       2.145   1.491  -0.070  0.00  0.00    +0.179 HD
ATOM     26  H   UNL     1      -0.044   5.101   0.319  0.00  0.00    +0.147 HD
ATOM     27  H   UNL     1      -0.963   3.435   0.225  0.00  0.00    +0.147 HD
ENDBRANCH  13  21
TORSDOF 1
