REMARK  Name = ZINC08915507
REMARK  7 active torsions:
REMARK  status: ('A' for Active; 'I' for Inactive)
REMARK    1  A    between atoms: C_4  and  O_7
REMARK    2  A    between atoms: O_7  and  C_8
REMARK    3  A    between atoms: C_12  and  C_14
REMARK    4  A    between atoms: C_16  and  C_28
REMARK    5  A    between atoms: C_18  and  C_23
REMARK    6  A    between atoms: C_18  and  O_27
REMARK    7  A    between atoms: C_28  and  C_30
REMARK                            x       y       z     vdW  Elec       q    Type
REMARK                         _______ _______ _______ _____ _____    ______ ____
ROOT
ATOM      1  C   UNL     1       6.303  -4.682   0.145  0.00  0.00    +0.120 C 
ATOM      2  C   UNL     1       6.703  -5.165  -1.253  0.00  0.00    +0.145 C 
ATOM      3  C   UNL     1       8.010  -5.956  -1.141  0.00  0.00    +0.243 C 
ATOM      4  N   UNL     1       7.834  -7.039  -0.171  0.00  0.00    -0.264 N 
ATOM      5  C   UNL     1       6.973  -6.926   0.852  0.00  0.00    +0.302 C 
ATOM      6  O   UNL     1       6.873  -7.851   1.635  0.00  0.00    -0.253 OA
ATOM      7  N   UNL     1       6.220  -5.832   1.046  0.00  0.00    -0.292 N 
ATOM      8  H   UNL     1       8.350  -7.854  -0.270  0.00  0.00    +0.153 HD
ATOM      9  H   UNL     1       5.608  -5.804   1.798  0.00  0.00    +0.151 HD
ENDROOT
BRANCH   1  14
ATOM     10  C   UNL     1       3.657  -1.988  -0.010  0.00  0.00    +0.129 A 
ATOM     11  C   UNL     1       2.495  -2.747  -0.046  0.00  0.00    +0.046 A 
ATOM     12  C   UNL     1       2.571  -4.125  -0.020  0.00  0.00    +0.004 A 
ATOM     13  C   UNL     1       3.803  -4.750   0.042  0.00  0.00    +0.006 A 
ATOM     14  C   UNL     1       4.962  -3.997   0.077  0.00  0.00    -0.023 A 
ATOM     15  C   UNL     1       4.892  -2.618   0.046  0.00  0.00    +0.051 A 
BRANCH  10  16
ATOM     16  O   UNL     1       3.586  -0.632  -0.036  0.00  0.00    -0.456 OA
BRANCH  16  20
ATOM     17  C   UNL     1       3.335   1.363   3.566  0.00  0.00    +0.000 A 
ATOM     18  C   UNL     1       3.417  -0.017   3.546  0.00  0.00    +0.004 A 
ATOM     19  C   UNL     1       3.501  -0.687   2.341  0.00  0.00    +0.046 A 
ATOM     20  C   UNL     1       3.503   0.025   1.150  0.00  0.00    +0.128 A 
ATOM     21  C   UNL     1       3.420   1.410   1.174  0.00  0.00    +0.046 A 
ATOM     22  C   UNL     1       3.336   2.076   2.381  0.00  0.00    +0.004 A 
ENDBRANCH  16  20
ENDBRANCH  10  16
ENDBRANCH   1  14
BRANCH   3  23
ATOM     23  C   UNL     1       8.369  -6.546  -2.506  0.00  0.00    +0.436 C 
ATOM     24  F   UNL     1       8.530  -5.512  -3.434  0.00  0.00    -0.166 F 
ATOM     25  F   UNL     1       9.563  -7.269  -2.402  0.00  0.00    -0.166 F 
ATOM     26  F   UNL     1       7.344  -7.398  -2.930  0.00  0.00    -0.166 F 
ENDBRANCH   3  23
BRANCH   3  27
ATOM     27  O   UNL     1       9.058  -5.089  -0.703  0.00  0.00    -0.364 OA
ATOM     28  H   UNL     1       9.916  -5.525  -0.610  0.00  0.00    +0.212 HD
ENDBRANCH   3  27
BRANCH   2  29
ATOM     29  C   UNL     1       6.902  -3.978  -2.160  0.00  0.00    +0.179 C 
ATOM     30  O   UNL     1       7.280  -2.919  -1.701  0.00  0.00    -0.291 OA
BRANCH  29  31
ATOM     31  C   UNL     1       6.649  -4.097  -3.545  0.00  0.00    +0.055 A 
ATOM     32  C   UNL     1       6.774  -3.138  -4.545  0.00  0.00    +0.019 A 
ATOM     33  C   UNL     1       6.452  -3.554  -5.812  0.00  0.00    +0.008 A 
ATOM     34  C   UNL     1       6.045  -4.836  -6.003  0.00  0.00    +0.046 A 
ATOM     35  S   UNL     1       6.094  -5.518  -4.468  0.00  0.00    -0.094 S 
ENDBRANCH  29  31
ENDBRANCH   2  29
TORSDOF 7
