REMARK  Name = ZINC09102726
REMARK  8 active torsions:
REMARK  status: ('A' for Active; 'I' for Inactive)
REMARK    1  A    between atoms: C_3  and  C_6
REMARK    2  A    between atoms: C_6  and  C_8
REMARK    3  A    between atoms: C_6  and  S_23
REMARK    4  A    between atoms: C_8  and  N_9
REMARK    5  A    between atoms: N_9  and  S_10
REMARK    6  A    between atoms: S_10  and  C_13
REMARK    7  A    between atoms: C_20  and  O_22
REMARK    8  A    between atoms: S_23  and  C_26
REMARK                            x       y       z     vdW  Elec       q    Type
REMARK                         _______ _______ _______ _____ _____    ______ ____
ROOT
ATOM      1  C   UNL     1       0.421   1.210  -0.781  0.00  0.00    +0.188 C 
ENDROOT
BRANCH   1   4
ATOM      2  C   UNL     1       4.056   1.860  -1.717  0.00  0.00    +0.008 A 
ATOM      3  C   UNL     1       2.918   1.125  -1.443  0.00  0.00    +0.013 A 
ATOM      4  C   UNL     1       1.776   1.778  -1.117  0.00  0.00    +0.015 A 
ATOM      5  S   UNL     1       2.291   3.486  -1.198  0.00  0.00    -0.100 S 
ATOM      6  C   UNL     1       3.996   3.213  -1.652  0.00  0.00    +0.045 A 
ENDBRANCH   1   4
BRANCH   1   7
ATOM      7  S   UNL     1      -0.049   1.721   0.895  0.00  0.00    +0.006 S 
ATOM      8  O   UNL     1      -0.043   3.139   0.995  0.00  0.00    -0.169 OA
ATOM      9  O   UNL     1      -1.169   0.968   1.340  0.00  0.00    -0.169 OA
BRANCH   7  10
ATOM     10  C   UNL     1       1.284   1.192   1.920  0.00  0.00    +0.093 A 
ATOM     11  C   UNL     1       2.352   2.039   2.154  0.00  0.00    +0.031 A 
ATOM     12  C   UNL     1       3.400   1.629   2.956  0.00  0.00    +0.051 A 
ATOM     13  C   UNL     1       3.382   0.367   3.530  0.00  0.00    +0.166 A 
ATOM     14  C   UNL     1       2.305  -0.485   3.295  0.00  0.00    +0.168 A 
ATOM     15  C   UNL     1       1.256  -0.065   2.493  0.00  0.00    +0.076 A 
ATOM     16  O   UNL     1       2.521  -1.655   3.964  0.00  0.00    -0.453 OA
ATOM     17  C   UNL     1       3.540  -1.358   4.938  0.00  0.00    +0.466 C 
ATOM     18  O   UNL     1       4.271  -0.269   4.346  0.00  0.00    -0.453 OA
ENDBRANCH   7  10
ENDBRANCH   1   7
BRANCH   1  19
ATOM     19  C   UNL     1      -0.613   1.731  -1.781  0.00  0.00    +0.137 C 
BRANCH  19  20
ATOM     20  N   UNL     1      -1.930   1.179  -1.454  0.00  0.00    -0.192 NA
ATOM     21  H   UNL     1      -2.003   0.430  -0.842  0.00  0.00    +0.148 HD
BRANCH  20  22
ATOM     22  S   UNL     1      -3.293   1.835  -2.128  0.00  0.00    +0.036 S 
ATOM     23  O   UNL     1      -3.039   1.841  -3.526  0.00  0.00    -0.158 OA
ATOM     24  O   UNL     1      -4.365   1.073  -1.590  0.00  0.00    -0.158 OA
BRANCH  22  25
ATOM     25  C   UNL     1      -3.354   3.534  -1.496  0.00  0.00    +0.199 C 
ATOM     26  C   UNL     1      -3.481   3.503   0.052  0.00  0.00    +0.196 C 
ATOM     27  S   UNL     1      -4.147   5.201   0.341  0.00  0.00    -0.027 S 
ATOM     28  O   UNL     1      -5.030   5.174   1.454  0.00  0.00    -0.174 OA
ATOM     29  O   UNL     1      -3.076   6.134   0.317  0.00  0.00    -0.174 OA
ATOM     30  C   UNL     1      -5.130   5.365  -1.208  0.00  0.00    +0.199 C 
ATOM     31  C   UNL     1      -4.552   4.258  -2.110  0.00  0.00    +0.163 C 
BRANCH  31  32
ATOM     32  O   UNL     1      -5.578   3.301  -2.377  0.00  0.00    -0.388 OA
ATOM     33  H   UNL     1      -6.377   3.680  -2.769  0.00  0.00    +0.210 HD
ENDBRANCH  31  32
ENDBRANCH  22  25
ENDBRANCH  20  22
ENDBRANCH  19  20
ENDBRANCH   1  19
TORSDOF 8
