REMARK  Name = ZINC39895262
REMARK  10 active torsions:
REMARK  status: ('A' for Active; 'I' for Inactive)
REMARK    1  A    between atoms: C_1  and  C_2
REMARK    2  A    between atoms: C_2  and  C_3
REMARK    3  A    between atoms: C_6  and  N_9
REMARK    4  A    between atoms: N_9  and  C_10
REMARK    5  A    between atoms: C_11  and  C_29
REMARK    6  A    between atoms: C_15  and  C_22
REMARK    7  A    between atoms: C_16  and  C_20
REMARK    8  A    between atoms: C_17  and  N_19
REMARK    9  A    between atoms: C_25  and  C_28
REMARK   10  A    between atoms: N_31  and  C_32
REMARK                            x       y       z     vdW  Elec       q    Type
REMARK                         _______ _______ _______ _____ _____    ______ ____
ROOT
ATOM      1  C   UNL     1       2.071  -2.035   5.786  0.00  0.00    +0.085 A 
ATOM      2  C   UNL     1       2.584  -2.382   7.030  0.00  0.00    +0.091 A 
ATOM      3  C   UNL     1       1.654  -2.480   8.154  0.00  0.00    +0.095 A 
ATOM      4  C   UNL     1       0.311  -2.204   7.838  0.00  0.00    +0.049 A 
ATOM      5  S   UNL     1       0.330  -1.827   6.105  0.00  0.00    -0.071 S 
ATOM      6  C   UNL     1      -0.692  -2.255   8.793  0.00  0.00    +0.019 A 
ATOM      7  C   UNL     1      -0.328  -2.595  10.117  0.00  0.00    +0.100 A 
ATOM      8  C   UNL     1       1.028  -2.861  10.378  0.00  0.00    +0.135 A 
ATOM      9  N   UNL     1       1.940  -2.799   9.435  0.00  0.00    -0.230 NA
ENDROOT
BRANCH   6  10
ATOM     10  C   UNL     1      -2.100  -1.961   8.440  0.00  0.00    -0.015 A 
ATOM     11  C   UNL     1      -2.462  -0.684   8.011  0.00  0.00    +0.009 A 
ATOM     12  C   UNL     1      -3.775  -0.416   7.682  0.00  0.00    +0.004 A 
ATOM     13  C   UNL     1      -4.732  -1.411   7.778  0.00  0.00    -0.050 A 
ATOM     14  C   UNL     1      -4.379  -2.680   8.203  0.00  0.00    +0.004 A 
ATOM     15  C   UNL     1      -3.068  -2.961   8.528  0.00  0.00    +0.009 A 
ATOM     16  C   UNL     1      -6.165  -1.112   7.418  0.00  0.00    +0.044 C 
ENDBRANCH   6  10
BRANCH   2  17
ATOM     17  C   UNL     1       4.012  -2.641   7.209  0.00  0.00    +0.248 C 
ATOM     18  O   UNL     1       4.764  -1.730   7.504  0.00  0.00    -0.270 OA
ATOM     19  N   UNL     1       4.495  -3.889   7.049  0.00  0.00    -0.314 N 
ATOM     20  C   UNL     1       5.926  -4.149   7.229  0.00  0.00    +0.128 C 
ATOM     21  H   UNL     1       3.896  -4.615   6.815  0.00  0.00    +0.149 HD
ENDBRANCH   2  17
BRANCH   8  22
ATOM     22  N   UNL     1       1.413  -3.198  11.667  0.00  0.00    -0.342 N 
ATOM     23  H   UNL     1       0.751  -3.248  12.373  0.00  0.00    +0.144 HD
ATOM     24  H   UNL     1       2.345  -3.384  11.862  0.00  0.00    +0.144 HD
ENDBRANCH   8  22
BRANCH   1  25
ATOM     25  N   UNL     1       2.745  -1.883   4.597  0.00  0.00    -0.308 N 
ATOM     26  H   UNL     1       3.687  -2.109   4.541  0.00  0.00    +0.153 HD
BRANCH  25  30
ATOM     27  C   UNL     1       0.745  -0.450   1.237  0.00  0.00    -0.048 A 
ATOM     28  C   UNL     1       0.399   0.011   2.494  0.00  0.00    +0.005 A 
ATOM     29  C   UNL     1       1.060  -0.462   3.610  0.00  0.00    +0.023 A 
ATOM     30  C   UNL     1       2.074  -1.402   3.469  0.00  0.00    +0.032 A 
ATOM     31  C   UNL     1       2.418  -1.863   2.205  0.00  0.00    +0.023 A 
ATOM     32  C   UNL     1       1.749  -1.390   1.093  0.00  0.00    +0.005 A 
BRANCH  27  34
ATOM     33  C   UNL     1      -1.196  -0.815  -0.263  0.00  0.00    +0.009 C 
ATOM     34  C   UNL     1       0.021   0.068   0.021  0.00  0.00    +0.032 C 
ENDBRANCH  27  34
ENDBRANCH  25  30
ENDBRANCH   1  25
BRANCH   7  35
ATOM     35  C   UNL     1      -1.309  -2.667  11.157  0.00  0.00    +0.103 C 
ATOM     36  N   UNL     1      -2.087  -2.724  11.983  0.00  0.00    -0.191 NA
ENDBRANCH   7  35
TORSDOF 7
