REMARK  Name = ZINC32125077
REMARK  11 active torsions:
REMARK  status: ('A' for Active; 'I' for Inactive)
REMARK    1  A    between atoms: C_1  and  C_2
REMARK    2  A    between atoms: C_2  and  O_3
REMARK    3  A    between atoms: O_3  and  C_4
REMARK    4  A    between atoms: C_6  and  C_13
REMARK    5  A    between atoms: C_8  and  O_10
REMARK    6  A    between atoms: O_10  and  C_11
REMARK    7  A    between atoms: C_11  and  C_12
REMARK    8  A    between atoms: N_15  and  C_16
REMARK    9  A    between atoms: C_16  and  N_18
REMARK   10  A    between atoms: N_18  and  C_19
REMARK   11  A    between atoms: C_20  and  C_29
REMARK                            x       y       z     vdW  Elec       q    Type
REMARK                         _______ _______ _______ _____ _____    ______ ____
ROOT
ATOM      1  C   UNL     1       4.804   4.202  -0.023  0.00  0.00    +0.141 C 
ATOM      2  S   UNL     1       6.296   3.364  -0.042  0.00  0.00    -0.018 S 
ENDROOT
BRANCH   1   5
ATOM      3  C   UNL     1       3.661   2.167  -0.022  0.00  0.00    +0.250 C 
ATOM      4  O   UNL     1       4.720   1.572  -0.036  0.00  0.00    -0.270 OA
ATOM      5  N   UNL     1       3.645   3.514  -0.015  0.00  0.00    -0.264 N 
ATOM      6  H   UNL     1       2.686   4.053  -0.003  0.00  0.00    +0.157 HD
BRANCH   3   9
ATOM      7  C   UNL     1      -0.017   1.383   0.010  0.00  0.00    +0.125 A 
ATOM      8  C   UNL     1       1.172   2.094   0.002  0.00  0.00    +0.059 A 
ATOM      9  C   UNL     1       2.390   1.413  -0.014  0.00  0.00    +0.044 A 
ATOM     10  C   UNL     1       2.404   0.017  -0.021  0.00  0.00    +0.059 A 
ATOM     11  C   UNL     1       1.210  -0.685  -0.013  0.00  0.00    +0.125 A 
ATOM     12  C   UNL     1       0.002  -0.004   0.002  0.00  0.00    +0.091 A 
BRANCH   7  13
ATOM     13  O   UNL     1      -1.203   2.046   0.019  0.00  0.00    -0.492 OA
BRANCH  13  15
ATOM     14  C   UNL     1      -3.617   2.164   0.031  0.00  0.00    +0.048 C 
ATOM     15  C   UNL     1      -2.390   1.250   0.020  0.00  0.00    +0.225 C 
ENDBRANCH  13  15
ENDBRANCH   7  13
BRANCH  11  16
ATOM     16  O   UNL     1       1.223  -2.044  -0.021  0.00  0.00    -0.492 OA
BRANCH  16  17
ATOM     17  C   UNL     1      -0.044  -2.705  -0.012  0.00  0.00    +0.225 C 
ATOM     18  C   UNL     1       0.171  -4.220  -0.022  0.00  0.00    +0.048 C 
ENDBRANCH  16  17
ENDBRANCH  11  16
ENDBRANCH   3   9
ENDBRANCH   1   5
BRANCH   1  19
ATOM     19  N   UNL     1       4.788   5.550  -0.015  0.00  0.00    -0.291 N 
ATOM     20  H   UNL     1       3.829   6.088  -0.003  0.00  0.00    +0.154 HD
BRANCH  19  21
ATOM     21  C   UNL     1       5.979   6.257  -0.024  0.00  0.00    +0.084 A 
ATOM     22  C   UNL     1       6.167   7.631  -0.024  0.00  0.00    +0.068 A 
ATOM     23  C   UNL     1       7.536   8.128  -0.026  0.00  0.00    -0.023 A 
ATOM     24  C   UNL     1       8.489   7.171  -0.045  0.00  0.00    -0.004 A 
ATOM     25  S   UNL     1       7.598   5.640  -0.043  0.00  0.00    -0.077 S 
ATOM     26  C   UNL     1       9.973   7.359  -0.078  0.00  0.00    +0.043 C 
ATOM     27  C   UNL     1      10.380   8.372   1.002  0.00  0.00    +0.005 C 
ATOM     28  C   UNL     1      10.337   9.770   0.392  0.00  0.00    +0.001 C 
ATOM     29  C   UNL     1       9.228   9.853  -0.654  0.00  0.00    +0.005 C 
ATOM     30  C   UNL     1       7.867   9.615  -0.008  0.00  0.00    +0.037 C 
BRANCH  22  31
ATOM     31  C   UNL     1       5.026   8.551  -0.017  0.00  0.00    +0.244 C 
ATOM     32  O   UNL     1       4.558   8.933   1.039  0.00  0.00    -0.270 OA
ATOM     33  N   UNL     1       4.495   8.974  -1.182  0.00  0.00    -0.325 N 
ATOM     34  H   UNL     1       3.639   9.665  -1.177  0.00  0.00    +0.145 HD
ATOM     35  H   UNL     1       4.918   8.629  -2.137  0.00  0.00    +0.145 HD
ENDBRANCH  22  31
ENDBRANCH  19  21
ENDBRANCH   1  19
TORSDOF 9
