REMARK  Name = ZINC42027162
REMARK  4 active torsions:
REMARK  status: ('A' for Active; 'I' for Inactive)
REMARK    1  A    between atoms: C_1  and  C_2
REMARK    2  A    between atoms: C_5  and  N_20
REMARK    3  A    between atoms: C_7  and  C_8
REMARK    4  A    between atoms: N_12  and  C_13
REMARK                            x       y       z     vdW  Elec       q    Type
REMARK                         _______ _______ _______ _____ _____    ______ ____
ROOT
ATOM      1  C   UNL     1       0.254   0.014   2.525  0.00  0.00    +0.187 A 
ATOM      2  N   UNL     1       0.226   1.323   2.671  0.00  0.00    -0.108 NA
ATOM      3  N   UNL     1      -0.067   1.635   3.881  0.00  0.00    -0.022 NA
ATOM      4  N   UNL     1      -0.247   0.575   4.592  0.00  0.00    -0.039 NA
ATOM      5  N   UNL     1      -0.051  -0.526   3.740  0.00  0.00    -0.193 N 
ENDROOT
BRANCH   1  12
ATOM      6  C   UNL     1      -1.067   0.761   0.065  0.00  0.00    +0.044 C 
ATOM      7  C   UNL     1      -0.078  -0.376   0.087  0.00  0.00    -0.040 A 
ATOM      8  C   UNL     1       0.206  -1.066  -1.074  0.00  0.00    +0.006 A 
ATOM      9  C   UNL     1       1.112  -2.109  -1.059  0.00  0.00    +0.023 A 
ATOM     10  C   UNL     1       1.743  -2.471   0.126  0.00  0.00    +0.025 A 
ATOM     11  C   UNL     1       1.464  -1.783   1.297  0.00  0.00    +0.034 A 
ATOM     12  C   UNL     1       0.553  -0.728   1.280  0.00  0.00    +0.026 A 
BRANCH  10  13
ATOM     13  N   UNL     1       2.657  -3.527   0.137  0.00  0.00    -0.358 N 
ATOM     14  H   UNL     1       2.852  -4.008  -0.683  0.00  0.00    +0.142 HD
ATOM     15  H   UNL     1       3.097  -3.779   0.964  0.00  0.00    +0.142 HD
ENDBRANCH  10  13
ENDBRANCH   1  12
BRANCH   5  16
ATOM     16  C   UNL     1      -0.147  -1.886   4.068  0.00  0.00    +0.069 A 
ATOM     17  C   UNL     1       0.381  -2.351   5.264  0.00  0.00    +0.029 A 
ATOM     18  C   UNL     1       0.286  -3.691   5.585  0.00  0.00    +0.017 A 
ATOM     19  C   UNL     1      -0.335  -4.569   4.715  0.00  0.00    +0.018 A 
ATOM     20  C   UNL     1      -0.862  -4.109   3.522  0.00  0.00    +0.017 A 
ATOM     21  C   UNL     1      -0.775  -2.768   3.199  0.00  0.00    +0.029 A 
ATOM     22 BR   UNL     1      -0.463  -6.404   5.157  0.00  0.00    -0.050 Br
ENDBRANCH   5  16
TORSDOF 3
