REMARK  Name = ZINC15620558
REMARK  10 active torsions:
REMARK  status: ('A' for Active; 'I' for Inactive)
REMARK    1  A    between atoms: C_1  and  C_2
REMARK    2  A    between atoms: C_4  and  C_32
REMARK    3  A    between atoms: C_5  and  N_9
REMARK    4  A    between atoms: C_6  and  C_8
REMARK    5  A    between atoms: C_10  and  C_12
REMARK    6  A    between atoms: C_12  and  N_13
REMARK    7  A    between atoms: C_14  and  C_16
REMARK    8  A    between atoms: C_16  and  C_17
REMARK    9  A    between atoms: C_17  and  N_18
REMARK   10  A    between atoms: N_21  and  C_22
REMARK                            x       y       z     vdW  Elec       q    Type
REMARK                         _______ _______ _______ _____ _____    ______ ____
ROOT
ATOM      1  N   UNL     1     -10.571  -0.611   4.424  0.00  0.00    -0.307 N 
ATOM      2  C   UNL     1      -9.272  -0.264   4.514  0.00  0.00    +0.215 C 
ATOM      3  O   UNL     1      -8.967   0.851   4.883  0.00  0.00    -0.276 OA
ATOM      4  H   UNL     1     -10.816  -1.502   4.129  0.00  0.00    +0.149 HD
ENDROOT
BRANCH   1   5
ATOM      5  C   UNL     1     -11.614   0.357   4.771  0.00  0.00    +0.200 C 
BRANCH   5   7
ATOM      6  N   UNL     1     -14.086   0.433   4.847  0.00  0.00    -0.284 N 
ATOM      7  C   UNL     1     -12.969  -0.276   4.586  0.00  0.00    +0.234 C 
ATOM      8  O   UNL     1     -13.055  -1.423   4.202  0.00  0.00    -0.274 OA
ATOM      9  H   UNL     1     -14.017   1.332   5.205  0.00  0.00    +0.155 HD
BRANCH   6  14
ATOM     10  C   UNL     1     -19.188  -1.841   3.857  0.00  0.00    +0.044 C 
ATOM     11  C   UNL     1     -17.832  -1.237   4.120  0.00  0.00    -0.050 A 
ATOM     12  C   UNL     1     -17.549  -0.692   5.359  0.00  0.00    +0.008 A 
ATOM     13  C   UNL     1     -16.308  -0.138   5.603  0.00  0.00    -0.029 A 
ATOM     14  C   UNL     1     -15.344  -0.128   4.603  0.00  0.00    +0.039 A 
ATOM     15  C   UNL     1     -15.634  -0.672   3.359  0.00  0.00    -0.029 A 
ATOM     16  C   UNL     1     -16.875  -1.229   3.122  0.00  0.00    +0.008 A 
ATOM     17  C   UNL     1     -14.593  -0.658   2.269  0.00  0.00    +0.045 C 
ATOM     18  C   UNL     1     -15.999   0.456   6.954  0.00  0.00    +0.045 C 
ENDBRANCH   6  14
ENDBRANCH   5   7
ENDBRANCH   1   5
BRANCH   2  19
ATOM     19  C   UNL     1      -8.199  -1.260   4.157  0.00  0.00    +0.114 C 
BRANCH  19  20
ATOM     20  C   UNL     1      -6.824  -0.617   4.345  0.00  0.00    +0.115 C 
BRANCH  20  21
ATOM     21  N   UNL     1      -5.781  -1.586   3.998  0.00  0.00    -0.299 N 
ATOM     22  C   UNL     1      -4.482  -1.238   4.088  0.00  0.00    +0.300 C 
ATOM     23  O   UNL     1      -4.175  -0.121   4.458  0.00  0.00    -0.253 OA
ATOM     24  N   UNL     1      -3.522  -2.129   3.769  0.00  0.00    -0.294 N 
ATOM     25  H   UNL     1      -6.025  -2.477   3.703  0.00  0.00    +0.150 HD
ATOM     26  H   UNL     1      -3.767  -3.020   3.474  0.00  0.00    +0.151 HD
BRANCH  24  27
ATOM     27  C   UNL     1      -2.110  -1.752   3.867  0.00  0.00    +0.037 C 
ATOM     28  C   UNL     1      -1.235  -2.936   3.450  0.00  0.00    +0.029 C 
ATOM     29  C   UNL     1       0.239  -2.542   3.553  0.00  0.00    -0.008 C 
ATOM     30  C   UNL     1       0.564  -2.151   4.996  0.00  0.00    +0.007 C 
ATOM     31  C   UNL     1      -0.311  -0.967   5.413  0.00  0.00    -0.008 C 
ATOM     32  C   UNL     1      -1.786  -1.361   5.310  0.00  0.00    +0.029 C 
ATOM     33  C   UNL     1      -0.035   0.221   4.489  0.00  0.00    +0.007 C 
ATOM     34  C   UNL     1      -0.359  -0.170   3.045  0.00  0.00    -0.008 C 
ATOM     35  C   UNL     1       0.515  -1.354   2.629  0.00  0.00    +0.007 C 
ATOM     36  C   UNL     1      -1.834  -0.564   2.943  0.00  0.00    +0.029 C 
ENDBRANCH  24  27
ENDBRANCH  20  21
ENDBRANCH  19  20
ENDBRANCH   2  19
TORSDOF 7
