REMARK  Name = ZINC04816191
REMARK  10 active torsions:
REMARK  status: ('A' for Active; 'I' for Inactive)
REMARK    1  A    between atoms: C_1  and  C_2
REMARK    2  A    between atoms: C_6  and  C_26
REMARK    3  A    between atoms: C_10  and  C_12
REMARK    4  A    between atoms: C_12  and  C_24
REMARK    5  A    between atoms: C_13  and  N_23
REMARK    6  A    between atoms: C_14  and  C_21
REMARK    7  A    between atoms: C_16  and  C_17
REMARK    8  A    between atoms: C_16  and  C_19
REMARK    9  A    between atoms: C_26  and  C_27
REMARK   10  A    between atoms: C_26  and  C_28
REMARK                            x       y       z     vdW  Elec       q    Type
REMARK                         _______ _______ _______ _____ _____    ______ ____
ROOT
ATOM      1  C   UNL     1       1.713   1.050   1.403  0.00  0.00    +0.136 C 
ATOM      2  C   UNL     1       2.455   0.993   0.087  0.00  0.00    +0.031 C 
ATOM      3  C   UNL     1       3.559   0.221   0.203  0.00  0.00    +0.012 C 
ATOM      4  C   UNL     1       3.674  -0.322   1.609  0.00  0.00    +0.078 C 
ATOM      5  C   UNL     1       2.732   0.562   2.457  0.00  0.00    +0.171 C 
ENDROOT
BRANCH   1  13
ATOM      6  C   UNL     1      -0.711   1.926   0.128  0.00  0.00    +0.008 C 
ATOM      7  C   UNL     1      -0.356   0.438   0.135  0.00  0.00    -0.002 C 
ATOM      8  C   UNL     1      -1.640  -0.392   0.179  0.00  0.00    +0.005 C 
ATOM      9  C   UNL     1      -2.476   0.009   1.396  0.00  0.00    +0.011 C 
ATOM     10  C   UNL     1      -1.702  -0.323   2.677  0.00  0.00    +0.058 C 
ATOM     11  C   UNL     1      -0.346   0.343   2.605  0.00  0.00    +0.142 C 
ATOM     12  O   UNL     1       0.054   1.032   3.512  0.00  0.00    -0.297 OA
ATOM     13  C   UNL     1       0.497   0.122   1.368  0.00  0.00    +0.086 C 
BRANCH  10  14
ATOM     14  C   UNL     1      -1.530  -1.839   2.795  0.00  0.00    -0.007 C 
ATOM     15  C   UNL     1      -0.933  -2.179   4.162  0.00  0.00    +0.008 C 
ATOM     16  C   UNL     1      -2.893  -2.519   2.650  0.00  0.00    +0.008 C 
ENDBRANCH  10  14
ENDBRANCH   1  13
BRANCH   2  17
ATOM     17  N   UNL     1       2.066   1.629  -1.054  0.00  0.00    -0.360 N 
ATOM     18  H   UNL     1       1.259   2.167  -1.058  0.00  0.00    +0.142 HD
ATOM     19  H   UNL     1       2.597   1.544  -1.861  0.00  0.00    +0.142 HD
ENDBRANCH   2  17
BRANCH   5  20
ATOM     20  C   UNL     1       3.462   1.695   3.046  0.00  0.00    +0.087 C 
ATOM     21  N   UNL     1       4.026   2.570   3.501  0.00  0.00    -0.195 NA
ENDBRANCH   5  20
BRANCH   5  22
ATOM     22  C   UNL     1       2.066  -0.233   3.502  0.00  0.00    +0.087 C 
ATOM     23  N   UNL     1       1.552  -0.846   4.309  0.00  0.00    -0.195 NA
ENDBRANCH   5  22
BRANCH   3  24
ATOM     24  C   UNL     1       4.468  -0.039  -0.832  0.00  0.00    +0.256 C 
ATOM     25  O   UNL     1       5.434  -0.749  -0.630  0.00  0.00    -0.296 OA
ENDBRANCH   3  24
BRANCH   1  26
ATOM     26  C   UNL     1       1.294   2.430   1.697  0.00  0.00    +0.079 C 
ATOM     27  N   UNL     1       0.971   3.495   1.924  0.00  0.00    -0.195 NA
ENDBRANCH   1  26
TORSDOF 7
