REMARK  Name = ZINC66595675
REMARK  10 active torsions:
REMARK  status: ('A' for Active; 'I' for Inactive)
REMARK    1  A    between atoms: C_1  and  C_2
REMARK    2  A    between atoms: C_5  and  C_9
REMARK    3  A    between atoms: C_6  and  C_8
REMARK    4  A    between atoms: C_9  and  C_10
REMARK    5  A    between atoms: C_10  and  C_12
REMARK    6  A    between atoms: C_10  and  N_13
REMARK    7  A    between atoms: N_16  and  C_17
REMARK    8  A    between atoms: C_17  and  C_18
REMARK    9  A    between atoms: C_21  and  S_23
REMARK   10  A    between atoms: S_23  and  N_26
REMARK                            x       y       z     vdW  Elec       q    Type
REMARK                         _______ _______ _______ _____ _____    ______ ____
ROOT
ATOM      1  N   UNL     1      -2.143  -4.420  -1.074  0.00  0.00    -0.297 N 
ATOM      2  C   UNL     1      -3.484  -4.311  -0.997  0.00  0.00    +0.300 C 
ATOM      3  O   UNL     1      -4.053  -4.532   0.055  0.00  0.00    -0.253 OA
ATOM      4  N   UNL     1      -4.196  -3.958  -2.086  0.00  0.00    -0.295 N 
ATOM      5  H   UNL     1      -1.690  -4.245  -1.914  0.00  0.00    +0.151 HD
ATOM      6  H   UNL     1      -3.742  -3.782  -2.925  0.00  0.00    +0.151 HD
ENDROOT
BRANCH   1   7
ATOM      7  C   UNL     1      -1.370  -4.804   0.109  0.00  0.00    +0.076 C 
ATOM      8  C   UNL     1      -1.341  -6.330   0.226  0.00  0.00    +0.028 C 
BRANCH   7   9
ATOM      9  C   UNL     1       0.059  -4.275  -0.021  0.00  0.00    +0.057 C 
BRANCH   9  14
ATOM     10  C   UNL     1      -0.018   1.503   0.010  0.00  0.00    +0.044 C 
ATOM     11  C   UNL     1       0.002  -0.004   0.002  0.00  0.00    -0.050 A 
ATOM     12  C   UNL     1       0.006  -0.689  -1.199  0.00  0.00    +0.003 A 
ATOM     13  C   UNL     1       0.025  -2.071  -1.207  0.00  0.00    +0.004 A 
ATOM     14  C   UNL     1       0.040  -2.768  -0.013  0.00  0.00    -0.043 A 
ATOM     15  C   UNL     1       0.037  -2.084   1.188  0.00  0.00    -0.047 A 
ATOM     16  C   UNL     1       0.023  -0.702   1.195  0.00  0.00    +0.007 A 
ATOM     17  C   UNL     1       0.054  -2.845   2.489  0.00  0.00    +0.044 C 
ENDBRANCH   9  14
ENDBRANCH   7   9
ENDBRANCH   1   7
BRANCH   4  18
ATOM     18  C   UNL     1      -5.653  -3.839  -2.002  0.00  0.00    +0.148 C 
BRANCH  18  19
ATOM     19  C   UNL     1      -6.203  -3.435  -3.346  0.00  0.00    +0.009 A 
ATOM     20  C   UNL     1      -6.617  -4.220  -4.370  0.00  0.00    +0.015 A 
ATOM     21  C   UNL     1      -7.090  -3.623  -5.523  0.00  0.00    +0.036 A 
ATOM     22  C   UNL     1      -7.126  -2.270  -5.596  0.00  0.00    +0.142 A 
ATOM     23  S   UNL     1      -6.484  -1.797  -3.998  0.00  0.00    -0.072 S 
BRANCH  22  24
ATOM     24  S   UNL     1      -7.672  -1.244  -6.920  0.00  0.00    +0.062 S 
ATOM     25  O   UNL     1      -7.018   0.007  -6.761  0.00  0.00    -0.153 OA
ATOM     26  O   UNL     1      -7.557  -2.017  -8.107  0.00  0.00    -0.153 OA
BRANCH  24  27
ATOM     27  N   UNL     1      -9.288  -0.966  -6.691  0.00  0.00    -0.203 NA
ATOM     28  H   UNL     1      -9.686  -0.137  -7.000  0.00  0.00    +0.144 HD
ATOM     29  H   UNL     1      -9.836  -1.631  -6.247  0.00  0.00    +0.144 HD
ENDBRANCH  24  27
ENDBRANCH  22  24
ENDBRANCH  18  19
ENDBRANCH   4  18
TORSDOF 7
