REMARK  Name = ZINC50398211
REMARK  3 active torsions:
REMARK  status: ('A' for Active; 'I' for Inactive)
REMARK    1  A    between atoms: C_3  and  N_9
REMARK    2  A    between atoms: C_14  and  O_22
REMARK    3  A    between atoms: C_17  and  C_19
REMARK                            x       y       z     vdW  Elec       q    Type
REMARK                         _______ _______ _______ _____ _____    ______ ____
ROOT
ATOM      1  N   UNL     1       3.524   1.904   1.250  0.00  0.00    -0.288 N 
ATOM      2  C   UNL     1       4.234   2.143   2.371  0.00  0.00    +0.304 C 
ATOM      3  O   UNL     1       3.675   2.163   3.451  0.00  0.00    -0.253 OA
ATOM      4  N   UNL     1       5.561   2.362   2.294  0.00  0.00    -0.269 N 
ATOM      5  C   UNL     1       6.360   2.373   1.055  0.00  0.00    +0.141 C 
ATOM      6  C   UNL     1       7.803   2.042   1.510  0.00  0.00    +0.134 C 
ATOM      7  C   UNL     1       7.880   2.788   2.868  0.00  0.00    +0.067 C 
ATOM      8  C   UNL     1       6.452   2.634   3.432  0.00  0.00    +0.193 C 
ATOM      9  H   UNL     1       3.969   1.888   0.388  0.00  0.00    +0.151 HD
ENDROOT
BRANCH   1  12
ATOM     10  C   UNL     1      -0.019   1.525   0.010  0.00  0.00    +0.021 C 
ATOM     11  C   UNL     1       1.427   2.036  -0.001  0.00  0.00    +0.033 C 
ATOM     12  C   UNL     1       2.081   1.666   1.333  0.00  0.00    +0.160 C 
ATOM     13  C   UNL     1       1.832   0.217   1.640  0.00  0.00    +0.233 C 
ATOM     14  O   UNL     1       2.533  -0.322   2.471  0.00  0.00    -0.274 OA
ATOM     15  N   UNL     1       0.882  -0.508   1.049  0.00  0.00    -0.314 N 
ATOM     16  C   UNL     1       0.002  -0.004   0.002  0.00  0.00    +0.104 C 
ATOM     17  H   UNL     1       0.771  -1.429   1.332  0.00  0.00    +0.149 HD
ENDBRANCH   1  12
BRANCH   8  18
ATOM     18  C   UNL     1       6.030   3.907   4.120  0.00  0.00    +0.376 C 
ATOM     19  O   UNL     1       5.056   4.522   3.720  0.00  0.00    -0.244 OA
ATOM     20  O   UNL     1       6.662   4.321   5.076  0.00  0.00    -0.244 OA
ENDBRANCH   8  18
BRANCH   6  21
ATOM     21  O   UNL     1       7.973   0.634   1.688  0.00  0.00    -0.390 OA
ATOM     22  H   UNL     1       7.837   0.116   0.883  0.00  0.00    +0.210 HD
ENDBRANCH   6  21
TORSDOF 3
