REMARK  Name = ZINC36984595
REMARK  4 active torsions:
REMARK  status: ('A' for Active; 'I' for Inactive)
REMARK    1  A    between atoms: C_3  and  S_12
REMARK    2  A    between atoms: C_6  and  S_7
REMARK    3  A    between atoms: S_7  and  N_10
REMARK    4  A    between atoms: S_12  and  N_15
REMARK                            x       y       z     vdW  Elec       q    Type
REMARK                         _______ _______ _______ _____ _____    ______ ____
ROOT
ATOM      1  C   UNL     1      -0.017   1.378   0.010  0.00  0.00    +0.030 A 
ATOM      2  C   UNL     1       1.171   2.086   0.002  0.00  0.00    +0.031 A 
ATOM      3  C   UNL     1       2.377   1.412  -0.013  0.00  0.00    +0.119 A 
ATOM      4  C   UNL     1       2.397   0.029  -0.021  0.00  0.00    +0.046 A 
ATOM      5  C   UNL     1       1.208  -0.679  -0.013  0.00  0.00    +0.045 A 
ATOM      6  C   UNL     1       0.002  -0.004   0.002  0.00  0.00    +0.106 A 
ATOM      7 BR   UNL     1       4.047  -0.894  -0.042  0.00  0.00    -0.048 Br
ENDROOT
BRANCH   6   8
ATOM      8  S   UNL     1      -1.512  -0.906   0.012  0.00  0.00    +0.056 S 
ATOM      9  O   UNL     1      -1.218  -2.186   0.553  0.00  0.00    -0.153 OA
ATOM     10  O   UNL     1      -2.492  -0.046   0.578  0.00  0.00    -0.153 OA
BRANCH   8  11
ATOM     11  N   UNL     1      -1.948  -1.148  -1.567  0.00  0.00    -0.204 NA
ATOM     12  H   UNL     1      -1.389  -0.807  -2.282  0.00  0.00    +0.144 HD
ATOM     13  H   UNL     1      -2.763  -1.631  -1.776  0.00  0.00    +0.144 HD
ENDBRANCH   8  11
ENDBRANCH   6   8
BRANCH   3  14
ATOM     14  S   UNL     1       3.891   2.314  -0.023  0.00  0.00    +0.057 S 
ATOM     15  O   UNL     1       4.688   1.758  -1.059  0.00  0.00    -0.153 OA
ATOM     16  O   UNL     1       3.543   3.692   0.014  0.00  0.00    -0.153 OA
BRANCH  14  17
ATOM     17  N   UNL     1       4.668   1.984   1.401  0.00  0.00    -0.203 NA
ATOM     18  H   UNL     1       4.262   1.385   2.047  0.00  0.00    +0.144 HD
ATOM     19  H   UNL     1       5.528   2.389   1.590  0.00  0.00    +0.144 HD
ENDBRANCH  14  17
ENDBRANCH   3  14
TORSDOF 4
