REMARK  Name = ZINC36298904
REMARK  9 active torsions:
REMARK  status: ('A' for Active; 'I' for Inactive)
REMARK    1  A    between atoms: C_1  and  C_2
REMARK    2  A    between atoms: C_2  and  C_3
REMARK    3  A    between atoms: C_2  and  C_4
REMARK    4  A    between atoms: C_4  and  C_5
REMARK    5  A    between atoms: C_5  and  C_7
REMARK    6  A    between atoms: C_5  and  N_20
REMARK    7  A    between atoms: C_7  and  N_8
REMARK    8  A    between atoms: N_8  and  S_9
REMARK    9  A    between atoms: S_9  and  C_12
REMARK                            x       y       z     vdW  Elec       q    Type
REMARK                         _______ _______ _______ _____ _____    ______ ____
ROOT
ATOM      1  N   UNL     1       4.450  -0.504  -2.095  0.00  0.00    -0.191 NA
ATOM      2  H   UNL     1       4.691   0.228  -1.506  0.00  0.00    +0.148 HD
ENDROOT
BRANCH   1   3
ATOM      3  S   UNL     1       5.625  -1.301  -2.948  0.00  0.00    +0.060 S 
ATOM      4  O   UNL     1       6.857  -0.670  -2.629  0.00  0.00    -0.153 OA
ATOM      5  O   UNL     1       5.404  -2.690  -2.743  0.00  0.00    -0.153 OA
BRANCH   3   6
ATOM      6  C   UNL     1       5.328  -0.991  -4.657  0.00  0.00    +0.124 A 
ATOM      7  C   UNL     1       6.249  -0.277  -5.400  0.00  0.00    +0.031 A 
ATOM      8  C   UNL     1       6.017  -0.033  -6.741  0.00  0.00    +0.017 A 
ATOM      9  C   UNL     1       4.862  -0.504  -7.340  0.00  0.00    +0.019 A 
ATOM     10  C   UNL     1       3.940  -1.219  -6.597  0.00  0.00    +0.037 A 
ATOM     11  C   UNL     1       4.176  -1.467  -5.257  0.00  0.00    +0.068 A 
ATOM     12 CL   UNL     1       3.022  -2.370  -4.325  0.00  0.00    -0.081 Cl
ATOM     13 BR   UNL     1       4.544  -0.170  -9.174  0.00  0.00    -0.050 Br
ENDBRANCH   3   6
ENDBRANCH   1   3
BRANCH   1  14
ATOM     14  C   UNL     1       3.048  -0.906  -2.229  0.00  0.00    +0.090 C 
BRANCH  14  15
ATOM     15  C   UNL     1       2.230  -0.292  -1.091  0.00  0.00    -0.059 C 
BRANCH  15  16
ATOM     16  N   UNL     1       2.424   1.164  -1.079  0.00  0.00    +0.381 N 
ATOM     17  H   UNL     1       3.400   1.373  -0.926  0.00  0.00    -0.090 HD
ATOM     18  H   UNL     1       2.133   1.550  -1.965  0.00  0.00    -0.090 HD
ATOM     19  H   UNL     1       1.874   1.571  -0.338  0.00  0.00    -0.090 HD
ENDBRANCH  15  16
BRANCH  15  20
ATOM     20  C   UNL     1       0.748  -0.607  -1.299  0.00  0.00    -0.012 C 
BRANCH  20  22
ATOM     21  C   UNL     1      -1.548  -0.302  -0.361  0.00  0.00    +0.007 C 
ATOM     22  C   UNL     1      -0.053  -0.114  -0.093  0.00  0.00    -0.019 C 
ATOM     23  C   UNL     1       0.347  -0.916   1.147  0.00  0.00    +0.007 C 
ENDBRANCH  20  22
ENDBRANCH  15  20
ENDBRANCH  14  15
ENDBRANCH   1  14
TORSDOF 7
