REMARK  Name = ZINC32825619
REMARK  6 active torsions:
REMARK  status: ('A' for Active; 'I' for Inactive)
REMARK    1  A    between atoms: C_1  and  N_2
REMARK    2  A    between atoms: C_6  and  C_7
REMARK    3  A    between atoms: N_9  and  N_10
REMARK    4  A    between atoms: C_11  and  C_13
REMARK    5  A    between atoms: C_13  and  S_14
REMARK    6  A    between atoms: S_14  and  C_15
REMARK                            x       y       z     vdW  Elec       q    Type
REMARK                         _______ _______ _______ _____ _____    ______ ____
ROOT
ATOM      1  N   UNL     1      -3.550  -1.331  -0.009  0.00  0.00    -0.233 N 
ATOM      2  C   UNL     1      -4.801  -0.839  -0.106  0.00  0.00    +0.239 C 
ATOM      3  O   UNL     1      -4.973   0.349  -0.279  0.00  0.00    -0.273 OA
ATOM      4  H   UNL     1      -3.394  -2.409   0.147  0.00  0.00    +0.173 HD
ENDROOT
BRANCH   1   7
ATOM      5  C   UNL     1      -1.198  -0.964  -0.011  0.00  0.00    +0.277 C 
ATOM      6  O   UNL     1      -1.022  -2.165   0.069  0.00  0.00    -0.267 OA
ATOM      7  N   UNL     1      -2.449  -0.471  -0.107  0.00  0.00    -0.229 N 
ATOM      8  H   UNL     1      -2.605   0.606  -0.264  0.00  0.00    +0.173 HD
BRANCH   5  14
ATOM      9  C   UNL     1       1.788  -1.789  -0.012  0.00  0.00    +0.149 C 
ATOM     10  N   UNL     1       1.278  -0.416  -0.004  0.00  0.00    -0.345 N 
ATOM     11  C   UNL     1       2.036   0.709   0.007  0.00  0.00    +0.101 A 
ATOM     12  C   UNL     1       1.217   1.788   0.018  0.00  0.00    +0.036 A 
ATOM     13  C   UNL     1      -0.103   1.326   0.012  0.00  0.00    +0.047 A 
ATOM     14  C   UNL     1      -0.049  -0.052  -0.001  0.00  0.00    +0.107 A 
ATOM     15 BR   UNL     1       1.763   3.599   0.035  0.00  0.00    -0.049 Br
ENDBRANCH   5  14
ENDBRANCH   1   7
BRANCH   2  16
ATOM     16  C   UNL     1      -5.986  -1.764  -0.000  0.00  0.00    +0.174 C 
BRANCH  16  17
ATOM     17  S   UNL     1      -7.514  -0.809  -0.169  0.00  0.00    -0.077 S 
BRANCH  17  18
ATOM     18  C   UNL     1      -8.701  -2.102  -0.011  0.00  0.00    +0.184 A 
ATOM     19  N   UNL     1     -10.059  -1.967  -0.059  0.00  0.00    -0.209 NA
ATOM     20  C   UNL     1     -10.562  -3.228   0.108  0.00  0.00    +0.245 A 
ATOM     21  N   UNL     1      -9.549  -4.034   0.254  0.00  0.00    -0.160 NA
ATOM     22  N   UNL     1      -8.447  -3.376   0.176  0.00  0.00    -0.254 N 
ATOM     23  H   UNL     1      -7.485  -3.902   0.266  0.00  0.00    +0.191 HD
ENDBRANCH  17  18
ENDBRANCH  16  17
ENDBRANCH   2  16
TORSDOF 5
