REMARK  Name = ZINC34759581
REMARK  9 active torsions:
REMARK  status: ('A' for Active; 'I' for Inactive)
REMARK    1  A    between atoms: C_1  and  C_2
REMARK    2  A    between atoms: C_3  and  C_36
REMARK    3  A    between atoms: C_7  and  N_16
REMARK    4  A    between atoms: C_9  and  S_11
REMARK    5  A    between atoms: S_11  and  C_12
REMARK    6  A    between atoms: C_12  and  C_13
REMARK    7  A    between atoms: N_19  and  C_22
REMARK    8  A    between atoms: C_22  and  C_23
REMARK    9  A    between atoms: N_25  and  C_26
REMARK                            x       y       z     vdW  Elec       q    Type
REMARK                         _______ _______ _______ _____ _____    ______ ____
ROOT
ATOM      1  N   UNL     1       0.032   1.057   3.071  0.00  0.00    -0.318 N 
ATOM      2  C   UNL     1      -0.205   2.052   2.014  0.00  0.00    +0.088 C 
ATOM      3  C   UNL     1      -1.306   3.008   2.485  0.00  0.00    -0.059 C 
ATOM      4  N   UNL     1      -0.932   3.582   3.784  0.00  0.00    +0.387 N 
ATOM      5  C   UNL     1      -0.868   2.522   4.798  0.00  0.00    -0.059 C 
ATOM      6  C   UNL     1       0.249   1.542   4.443  0.00  0.00    +0.088 C 
ATOM      7  H   UNL     1      -0.030   4.027   3.706  0.00  0.00    -0.081 HD
ENDROOT
BRANCH   1  14
ATOM      8  C   UNL     1       2.887   1.018   2.805  0.00  0.00    +0.045 C 
ATOM      9  C   UNL     1       2.631  -0.440   2.521  0.00  0.00    -0.028 A 
ATOM     10  C   UNL     1       3.652  -1.269   2.259  0.00  0.00    -0.008 A 
ATOM     11  S   UNL     1       2.854  -2.842   1.998  0.00  0.00    -0.073 S 
ATOM     12  C   UNL     1       1.171  -2.343   2.247  0.00  0.00    +0.115 A 
ATOM     13  C   UNL     1       1.276  -0.964   2.533  0.00  0.00    +0.051 A 
ATOM     14  C   UNL     1       0.046  -0.296   2.785  0.00  0.00    +0.134 A 
ATOM     15  N   UNL     1      -1.084  -0.981   2.742  0.00  0.00    -0.206 NA
ATOM     16  C   UNL     1      -1.111  -2.280   2.471  0.00  0.00    +0.191 A 
ATOM     17  N   UNL     1       0.003  -2.954   2.219  0.00  0.00    -0.214 NA
ATOM     18  C   UNL     1       5.123  -0.948   2.200  0.00  0.00    +0.052 C 
BRANCH  16  19
ATOM     19  S   UNL     1      -2.658  -3.123   2.433  0.00  0.00    -0.077 S 
BRANCH  19  20
ATOM     20  C   UNL     1      -2.215  -4.836   2.033  0.00  0.00    +0.172 C 
BRANCH  20  21
ATOM     21  C   UNL     1      -3.465  -5.676   1.969  0.00  0.00    +0.221 C 
ATOM     22  O   UNL     1      -4.547  -5.169   2.173  0.00  0.00    -0.275 OA
ATOM     23  N   UNL     1      -3.379  -6.991   1.684  0.00  0.00    -0.329 N 
ATOM     24  H   UNL     1      -2.513  -7.396   1.521  0.00  0.00    +0.145 HD
ATOM     25  H   UNL     1      -4.183  -7.532   1.643  0.00  0.00    +0.145 HD
ENDBRANCH  20  21
ENDBRANCH  19  20
ENDBRANCH  16  19
ENDBRANCH   1  14
BRANCH   4  26
ATOM     26  C   UNL     1      -1.934   4.580   4.183  0.00  0.00    +0.019 C 
BRANCH  26  27
ATOM     27  C   UNL     1      -1.490   5.257   5.453  0.00  0.00    +0.201 C 
ATOM     28  O   UNL     1      -0.442   4.940   5.975  0.00  0.00    -0.278 OA
ATOM     29  N   UNL     1      -2.257   6.215   6.010  0.00  0.00    -0.287 N 
ATOM     30  H   UNL     1      -3.131   6.413   5.639  0.00  0.00    +0.155 HD
BRANCH  29  31
ATOM     31  C   UNL     1      -1.793   6.924   7.120  0.00  0.00    +0.041 A 
ATOM     32  C   UNL     1      -0.440   7.047   7.351  0.00  0.00    +0.024 A 
ATOM     33  C   UNL     1       0.033   7.751   8.454  0.00  0.00    +0.002 A 
ATOM     34  C   UNL     1      -0.825   8.336   9.334  0.00  0.00    +0.008 A 
ATOM     35  C   UNL     1      -2.212   8.235   9.135  0.00  0.00    -0.016 A 
ATOM     36  C   UNL     1      -2.705   7.525   8.013  0.00  0.00    +0.003 A 
ATOM     37  C   UNL     1      -4.091   7.428   7.813  0.00  0.00    +0.010 A 
ATOM     38  C   UNL     1      -4.942   8.020   8.695  0.00  0.00    +0.001 A 
ATOM     39  C   UNL     1      -4.458   8.723   9.796  0.00  0.00    +0.001 A 
ATOM     40  C   UNL     1      -3.121   8.829  10.028  0.00  0.00    +0.008 A 
ENDBRANCH  29  31
ENDBRANCH  26  27
ENDBRANCH   4  26
TORSDOF 7
