REMARK  Name = ZINC32863430
REMARK  6 active torsions:
REMARK  status: ('A' for Active; 'I' for Inactive)
REMARK    1  A    between atoms: C_3  and  N_20
REMARK    2  A    between atoms: C_6  and  C_7
REMARK    3  A    between atoms: N_12  and  C_15
REMARK    4  A    between atoms: C_15  and  C_16
REMARK    5  A    between atoms: N_20  and  S_21
REMARK    6  A    between atoms: S_21  and  C_24
REMARK                            x       y       z     vdW  Elec       q    Type
REMARK                         _______ _______ _______ _____ _____    ______ ____
ROOT
ATOM      1  C   UNL     1      -2.191   2.762   0.352  0.00  0.00    +0.015 A 
ATOM      2  C   UNL     1      -3.503   3.160   0.466  0.00  0.00    +0.025 A 
ATOM      3  C   UNL     1      -4.496   2.220   0.730  0.00  0.00    +0.048 A 
ATOM      4  C   UNL     1      -4.165   0.876   0.875  0.00  0.00    +0.025 A 
ATOM      5  C   UNL     1      -2.855   0.471   0.758  0.00  0.00    +0.015 A 
ATOM      6  C   UNL     1      -1.856   1.412   0.492  0.00  0.00    +0.037 A 
ENDROOT
BRANCH   6   7
ATOM      7  C   UNL     1      -0.451   0.982   0.365  0.00  0.00    +0.247 C 
ATOM      8  O   UNL     1      -0.042   0.040   1.017  0.00  0.00    -0.270 OA
ATOM      9  N   UNL     1       0.379   1.629  -0.478  0.00  0.00    -0.295 N 
ATOM     10  C   UNL     1       1.809   1.291  -0.537  0.00  0.00    +0.123 C 
ATOM     11  C   UNL     1       2.185   1.043  -2.006  0.00  0.00    +0.103 C 
ATOM     12  N   UNL     1       1.789   2.207  -2.811  0.00  0.00    -0.291 NA
ATOM     13  C   UNL     1       0.332   2.396  -2.791  0.00  0.00    +0.103 C 
ATOM     14  C   UNL     1      -0.121   2.695  -1.358  0.00  0.00    +0.123 C 
BRANCH  12  15
ATOM     15  C   UNL     1       2.286   2.088  -4.188  0.00  0.00    +0.198 C 
BRANCH  15  16
ATOM     16  C   UNL     1       2.336   3.475  -4.833  0.00  0.00    +0.402 C 
ATOM     17  F   UNL     1       3.079   4.340  -4.023  0.00  0.00    -0.169 F 
ATOM     18  F   UNL     1       2.938   3.382  -6.092  0.00  0.00    -0.169 F 
ATOM     19  F   UNL     1       1.035   3.971  -4.974  0.00  0.00    -0.169 F 
ENDBRANCH  15  16
ENDBRANCH  12  15
ENDBRANCH   6   7
BRANCH   3  20
ATOM     20  N   UNL     1      -5.821   2.626   0.850  0.00  0.00    -0.216 N 
ATOM     21  H   UNL     1      -6.615   2.071   0.329  0.00  0.00    +0.174 HD
BRANCH  20  22
ATOM     22  S   UNL     1      -6.202   3.944   1.776  0.00  0.00    +0.072 S 
ATOM     23  O   UNL     1      -5.372   5.008   1.331  0.00  0.00    -0.150 OA
ATOM     24  O   UNL     1      -7.620   4.037   1.786  0.00  0.00    -0.150 OA
BRANCH  22  25
ATOM     25  C   UNL     1      -5.711   3.580   3.429  0.00  0.00    +0.111 A 
ATOM     26  C   UNL     1      -4.475   4.002   3.889  0.00  0.00    +0.031 A 
ATOM     27  C   UNL     1      -4.081   3.722   5.182  0.00  0.00    +0.030 A 
ATOM     28  C   UNL     1      -4.926   3.015   6.024  0.00  0.00    +0.067 A 
ATOM     29  C   UNL     1      -6.173   2.589   5.559  0.00  0.00    +0.069 A 
ATOM     30  C   UNL     1      -6.562   2.880   4.261  0.00  0.00    +0.056 A 
ATOM     31  N   UNL     1      -6.786   1.915   6.613  0.00  0.00    -0.306 N 
ATOM     32  H   UNL     1      -7.790   1.485   6.481  0.00  0.00    +0.170 HD
ATOM     33  C   UNL     1      -5.951   1.931   7.669  0.00  0.00    +0.325 A 
ATOM     34  O   UNL     1      -6.183   1.428   8.753  0.00  0.00    -0.247 OA
ATOM     35  N   UNL     1      -4.821   2.586   7.345  0.00  0.00    -0.306 N 
ATOM     36  H   UNL     1      -3.913   2.809   7.925  0.00  0.00    +0.170 HD
ENDBRANCH  22  25
ENDBRANCH  20  22
ENDBRANCH   3  20
TORSDOF 6
