REMARK  Name = ZINC13639963
REMARK  8 active torsions:
REMARK  status: ('A' for Active; 'I' for Inactive)
REMARK    1  A    between atoms: C_1  and  C_2
REMARK    2  A    between atoms: C_2  and  C_3
REMARK    3  A    between atoms: C_2  and  N_4
REMARK    4  A    between atoms: N_4  and  S_5
REMARK    5  A    between atoms: S_5  and  C_8
REMARK    6  A    between atoms: C_21  and  C_24
REMARK    7  A    between atoms: C_27  and  O_31
REMARK    8  A    between atoms: C_29  and  O_30
REMARK                            x       y       z     vdW  Elec       q    Type
REMARK                         _______ _______ _______ _____ _____    ______ ____
ROOT
ATOM      1  C   UNL     1      -2.119   3.485   3.620  0.00  0.00    +0.106 A 
ATOM      2  C   UNL     1      -2.844   2.396   4.069  0.00  0.00    +0.030 A 
ATOM      3  C   UNL     1      -2.900   2.108   5.417  0.00  0.00    +0.025 A 
ATOM      4  C   UNL     1      -2.236   2.914   6.335  0.00  0.00    +0.031 A 
ATOM      5  C   UNL     1      -1.497   4.009   5.872  0.00  0.00    -0.018 A 
ATOM      6  C   UNL     1      -1.450   4.289   4.524  0.00  0.00    +0.034 A 
ATOM      7  C   UNL     1      -0.771   4.815   6.877  0.00  0.00    +0.049 C 
ATOM      8  C   UNL     1      -0.415   6.252   6.668  0.00  0.00    -0.023 C 
ATOM      9  C   UNL     1      -0.439   6.883   7.836  0.00  0.00    -0.030 C 
ATOM     10  C   UNL     1      -0.829   5.908   8.948  0.00  0.00    +0.033 C 
ATOM     11  C   UNL     1      -1.637   4.859   8.172  0.00  0.00    +0.029 C 
ATOM     12  C   UNL     1      -1.631   3.441   8.712  0.00  0.00    +0.108 C 
ATOM     13  N   UNL     1      -2.339   2.626   7.701  0.00  0.00    -0.336 N 
ATOM     14  H   UNL     1      -2.884   1.877   7.989  0.00  0.00    +0.147 HD
ENDROOT
BRANCH  12  15
ATOM     15  C   UNL     1      -0.215   2.952   8.876  0.00  0.00    +0.015 A 
ATOM     16  C   UNL     1       0.406   2.275   7.844  0.00  0.00    +0.012 A 
ATOM     17  C   UNL     1       1.706   1.830   7.989  0.00  0.00    +0.046 A 
ATOM     18  C   UNL     1       2.388   2.053   9.177  0.00  0.00    +0.120 A 
ATOM     19  C   UNL     1       1.765   2.728  10.216  0.00  0.00    +0.091 A 
ATOM     20  C   UNL     1       0.463   3.178  10.066  0.00  0.00    +0.125 A 
BRANCH  20  21
ATOM     21  O   UNL     1      -0.150   3.840  11.082  0.00  0.00    -0.506 OA
ATOM     22  H   UNL     1      -0.629   3.264  11.694  0.00  0.00    +0.292 HD
ENDBRANCH  20  21
BRANCH  18  23
ATOM     23  O   UNL     1       3.665   1.611   9.322  0.00  0.00    -0.507 OA
ATOM     24  H   UNL     1       3.733   0.716   9.681  0.00  0.00    +0.292 HD
ENDBRANCH  18  23
ENDBRANCH  12  15
BRANCH   1  25
ATOM     25  S   UNL     1      -2.054   3.851   1.898  0.00  0.00    +0.059 S 
ATOM     26  O   UNL     1      -1.764   5.238   1.788  0.00  0.00    -0.153 OA
ATOM     27  O   UNL     1      -3.210   3.266   1.314  0.00  0.00    -0.153 OA
BRANCH  25  28
ATOM     28  N   UNL     1      -0.749   3.044   1.275  0.00  0.00    -0.187 NA
ATOM     29  H   UNL     1       0.003   3.541   0.915  0.00  0.00    +0.148 HD
BRANCH  28  31
ATOM     30  C   UNL     1      -0.013   1.086   0.008  0.00  0.00    +0.025 C 
ATOM     31  C   UNL     1      -0.729   1.579   1.267  0.00  0.00    +0.070 C 
ATOM     32  C   UNL     1       0.011   1.072   2.506  0.00  0.00    +0.025 C 
ENDBRANCH  28  31
ENDBRANCH  25  28
ENDBRANCH   1  25
TORSDOF 6
