REMARK  Name = ZINC21081930
REMARK  13 active torsions:
REMARK  status: ('A' for Active; 'I' for Inactive)
REMARK    1  A    between atoms: C_1  and  C_2
REMARK    2  A    between atoms: C_2  and  C_3
REMARK    3  A    between atoms: C_3  and  C_5
REMARK    4  A    between atoms: C_3  and  N_6
REMARK    5  A    between atoms: N_6  and  S_7
REMARK    6  A    between atoms: S_7  and  C_10
REMARK    7  A    between atoms: C_13  and  N_16
REMARK    8  A    between atoms: C_17  and  C_19
REMARK    9  A    between atoms: C_19  and  S_20
REMARK   10  A    between atoms: S_20  and  C_21
REMARK   11  A    between atoms: N_26  and  N_27
REMARK   12  A    between atoms: C_28  and  C_29
REMARK   13  A    between atoms: C_28  and  C_30
REMARK                            x       y       z     vdW  Elec       q    Type
REMARK                         _______ _______ _______ _____ _____    ______ ____
ROOT
ATOM      1  C   UNL     1       3.706   2.813  -0.025  0.00  0.00    +0.173 C 
ENDROOT
BRANCH   1   3
ATOM      2  N   UNL     1       6.079   3.512  -0.036  0.00  0.00    -0.285 N 
ATOM      3  C   UNL     1       5.181   2.506  -0.031  0.00  0.00    +0.227 C 
ATOM      4  O   UNL     1       5.561   1.354  -0.032  0.00  0.00    -0.275 OA
ATOM      5  H   UNL     1       5.737   4.554  -0.112  0.00  0.00    +0.155 HD
BRANCH   2   9
ATOM      6  C   UNL     1      10.150   2.671   0.237  0.00  0.00    +0.105 A 
ATOM      7  C   UNL     1       9.313   1.813  -0.454  0.00  0.00    +0.030 A 
ATOM      8  C   UNL     1       7.963   2.089  -0.546  0.00  0.00    +0.025 A 
ATOM      9  C   UNL     1       7.447   3.229   0.056  0.00  0.00    +0.034 A 
ATOM     10  C   UNL     1       8.290   4.091   0.744  0.00  0.00    +0.025 A 
ATOM     11  C   UNL     1       9.639   3.806   0.838  0.00  0.00    +0.030 A 
BRANCH   6  12
ATOM     12  S   UNL     1      11.872   2.315   0.352  0.00  0.00    +0.059 S 
ATOM     13  O   UNL     1      12.348   2.983   1.512  0.00  0.00    -0.153 OA
ATOM     14  O   UNL     1      12.010   0.912   0.171  0.00  0.00    -0.153 OA
BRANCH  12  15
ATOM     15  N   UNL     1      12.609   3.034  -0.944  0.00  0.00    -0.187 NA
ATOM     16  H   UNL     1      12.943   2.411  -1.787  0.00  0.00    +0.148 HD
BRANCH  15  17
ATOM     17  C   UNL     1      12.616   4.494  -1.065  0.00  0.00    +0.073 C 
ATOM     18  C   UNL     1      13.918   5.048  -0.483  0.00  0.00    +0.025 C 
BRANCH  17  20
ATOM     19  C   UNL     1      11.154   4.439  -3.091  0.00  0.00    +0.005 C 
ATOM     20  C   UNL     1      12.511   4.884  -2.541  0.00  0.00    +0.017 C 
ENDBRANCH  17  20
ENDBRANCH  15  17
ENDBRANCH  12  15
ENDBRANCH   6  12
ENDBRANCH   2   9
ENDBRANCH   1   3
BRANCH   1  21
ATOM     21  S   UNL     1       2.766   1.262  -0.019  0.00  0.00    -0.075 S 
BRANCH  21  22
ATOM     22  C   UNL     1       1.083   1.784  -0.012  0.00  0.00    +0.211 A 
ATOM     23  N   UNL     1      -0.011   0.967  -0.006  0.00  0.00    -0.186 NA
ATOM     24  C   UNL     1      -1.128   1.755  -0.007  0.00  0.00    +0.232 A 
ATOM     25  N   UNL     1      -0.740   3.007  -0.003  0.00  0.00    -0.245 N 
ATOM     26  N   UNL     1       0.661   3.026  -0.010  0.00  0.00    -0.144 NA
ATOM     27  N   UNL     1      -2.442   1.309  -0.007  0.00  0.00    -0.205 N 
ATOM     28  H   UNL     1      -2.656   0.230  -0.007  0.00  0.00    +0.177 HD
ATOM     29  H   UNL     1      -1.487   3.815   0.004  0.00  0.00    +0.192 HD
BRANCH  27  30
ATOM     30  N   UNL     1      -3.496   2.232  -0.008  0.00  0.00    -0.184 NA
ATOM     31  C   UNL     1      -4.725   1.814  -0.009  0.00  0.00    +0.063 C 
ATOM     32  C   UNL     1      -5.019   0.336  -0.009  0.00  0.00    +0.068 C 
BRANCH  31  33
ATOM     33  C   UNL     1      -5.834   2.785  -0.010  0.00  0.00    -0.002 A 
ATOM     34  C   UNL     1      -7.158   2.339  -0.017  0.00  0.00    +0.012 A 
ATOM     35  C   UNL     1      -8.191   3.252  -0.011  0.00  0.00    +0.039 A 
ATOM     36  C   UNL     1      -7.918   4.611  -0.011  0.00  0.00    +0.123 A 
ATOM     37  C   UNL     1      -6.607   5.060  -0.010  0.00  0.00    +0.039 A 
ATOM     38  C   UNL     1      -5.565   4.157  -0.010  0.00  0.00    +0.012 A 
ATOM     39  F   UNL     1      -8.934   5.502  -0.012  0.00  0.00    -0.205 F 
ENDBRANCH  31  33
ENDBRANCH  27  30
ENDBRANCH  21  22
ENDBRANCH   1  21
TORSDOF 10
