REMARK  Name = ZINC01172862
REMARK  7 active torsions:
REMARK  status: ('A' for Active; 'I' for Inactive)
REMARK    1  A    between atoms: C_1  and  C_2
REMARK    2  A    between atoms: C_9  and  C_11
REMARK    3  A    between atoms: C_13  and  N_18
REMARK    4  A    between atoms: C_16  and  O_17
REMARK    5  A    between atoms: N_18  and  C_19
REMARK    6  A    between atoms: C_19  and  N_21
REMARK    7  A    between atoms: C_22  and  C_24
REMARK                            x       y       z     vdW  Elec       q    Type
REMARK                         _______ _______ _______ _____ _____    ______ ____
ROOT
ATOM      1  C   UNL     1       0.336  -5.506   2.335  0.00  0.00    +0.080 A 
ATOM      2  C   UNL     1       0.361  -6.718   1.643  0.00  0.00    +0.040 A 
ATOM      3  C   UNL     1       0.118  -7.902   2.317  0.00  0.00    +0.034 A 
ATOM      4  C   UNL     1      -0.152  -7.886   3.681  0.00  0.00    +0.027 A 
ATOM      5  C   UNL     1      -0.179  -6.691   4.372  0.00  0.00    +0.048 A 
ATOM      6  C   UNL     1       0.070  -5.498   3.710  0.00  0.00    +0.129 A 
ENDROOT
BRANCH   1  15
ATOM      7  C   UNL     1       1.429   1.438   0.088  0.00  0.00    +0.044 C 
ATOM      8  C   UNL     1       1.290  -0.063   0.073  0.00  0.00    -0.048 A 
ATOM      9  C   UNL     1       1.455  -0.758  -1.116  0.00  0.00    +0.007 A 
ATOM     10  C   UNL     1       1.331  -2.132  -1.147  0.00  0.00    +0.049 A 
ATOM     11  C   UNL     1       1.040  -2.826   0.017  0.00  0.00    +0.156 A 
ATOM     12  C   UNL     1       0.872  -2.126   1.223  0.00  0.00    +0.110 A 
ATOM     13  C   UNL     1       1.006  -0.736   1.240  0.00  0.00    +0.035 A 
ATOM     14  N   UNL     1       0.599  -3.053   2.177  0.00  0.00    -0.209 NA
ATOM     15  C   UNL     1       0.594  -4.239   1.622  0.00  0.00    +0.232 A 
ATOM     16  O   UNL     1       0.859  -4.134   0.306  0.00  0.00    -0.435 OA
ENDBRANCH   1  15
BRANCH   6  17
ATOM     17  O   UNL     1       0.049  -4.324   4.392  0.00  0.00    -0.506 OA
ATOM     18  H   UNL     1      -0.821  -3.902   4.422  0.00  0.00    +0.292 HD
ENDBRANCH   6  17
BRANCH   3  19
ATOM     19  N   UNL     1       0.143  -9.120   1.624  0.00  0.00    -0.297 N 
ATOM     20  H   UNL     1      -0.530  -9.794   1.805  0.00  0.00    +0.154 HD
BRANCH  19  21
ATOM     21  C   UNL     1       1.102  -9.353   0.707  0.00  0.00    +0.141 C 
ATOM     22  S   UNL     1       2.371  -8.225   0.488  0.00  0.00    -0.018 S 
BRANCH  21  23
ATOM     23  N   UNL     1       1.062 -10.475  -0.039  0.00  0.00    -0.263 N 
ATOM     24  C   UNL     1       2.022 -10.709  -0.957  0.00  0.00    +0.256 C 
ATOM     25  O   UNL     1       2.923  -9.906  -1.112  0.00  0.00    -0.269 OA
ATOM     26  H   UNL     1       0.344 -11.115   0.085  0.00  0.00    +0.157 HD
BRANCH  24  27
ATOM     27  C   UNL     1       1.979 -11.928  -1.767  0.00  0.00    +0.074 A 
ATOM     28  C   UNL     1       2.859 -12.356  -2.750  0.00  0.00    +0.021 A 
ATOM     29  C   UNL     1       2.554 -13.558  -3.342  0.00  0.00    +0.008 A 
ATOM     30  C   UNL     1       1.445 -14.227  -2.941  0.00  0.00    +0.046 A 
ATOM     31  S   UNL     1       0.785 -13.252  -1.743  0.00  0.00    -0.092 S 
ENDBRANCH  24  27
ENDBRANCH  21  23
ENDBRANCH  19  21
ENDBRANCH   3  19
TORSDOF 6
