REMARK  Name = ZINC04671719
REMARK  9 active torsions:
REMARK  status: ('A' for Active; 'I' for Inactive)
REMARK    1  A    between atoms: C_1  and  C_2
REMARK    2  A    between atoms: C_2  and  N_3
REMARK    3  A    between atoms: N_3  and  N_4
REMARK    4  A    between atoms: C_5  and  C_7
REMARK    5  A    between atoms: C_7  and  C_8
REMARK    6  A    between atoms: C_18  and  C_19
REMARK    7  A    between atoms: N_21  and  C_22
REMARK    8  A    between atoms: C_25  and  O_28
REMARK    9  A    between atoms: O_28  and  C_29
REMARK                            x       y       z     vdW  Elec       q    Type
REMARK                         _______ _______ _______ _____ _____    ______ ____
ROOT
ATOM      1  N   UNL     1      -0.052   1.739  -2.377  0.00  0.00    -0.269 N 
ATOM      2  H   UNL     1       0.918   1.707  -2.377  0.00  0.00    +0.170 HD
ENDROOT
BRANCH   1   3
ATOM      3  N   UNL     1      -0.748   1.870  -3.585  0.00  0.00    -0.237 N 
ATOM      4  C   UNL     1      -0.071   1.953  -4.748  0.00  0.00    +0.233 C 
ATOM      5  O   UNL     1       1.141   1.913  -4.748  0.00  0.00    -0.274 OA
ATOM      6  H   UNL     1      -1.718   1.902  -3.585  0.00  0.00    +0.173 HD
BRANCH   4   7
ATOM      7  C   UNL     1      -0.821   2.094  -6.048  0.00  0.00    +0.133 C 
BRANCH   7   8
ATOM      8  C   UNL     1       0.162   2.164  -7.189  0.00  0.00    -0.031 A 
ATOM      9  C   UNL     1       0.572   3.372  -7.664  0.00  0.00    +0.005 A 
ATOM     10  C   UNL     1       1.480   3.457  -8.718  0.00  0.00    +0.001 A 
ATOM     11  C   UNL     1       1.981   2.334  -9.303  0.00  0.00    +0.008 A 
ATOM     12  C   UNL     1       1.581   1.070  -8.839  0.00  0.00    -0.018 A 
ATOM     13  C   UNL     1       0.662   0.984  -7.763  0.00  0.00    -0.014 A 
ATOM     14  C   UNL     1       0.266  -0.281  -7.295  0.00  0.00    +0.009 A 
ATOM     15  C   UNL     1       0.772  -1.402  -7.876  0.00  0.00    +0.001 A 
ATOM     16  C   UNL     1       1.680  -1.318  -8.930  0.00  0.00    +0.001 A 
ATOM     17  C   UNL     1       2.076  -0.111  -9.418  0.00  0.00    +0.008 A 
ENDBRANCH   7   8
ENDBRANCH   4   7
ENDBRANCH   1   3
BRANCH   1  19
ATOM     18  C   UNL     1       0.011   1.514   0.102  0.00  0.00    +0.062 C 
ATOM     19  C   UNL     1      -0.738   1.655  -1.198  0.00  0.00    +0.024 C 
ATOM     20  C   UNL     1      -2.087   1.700  -1.198  0.00  0.00    +0.087 C 
BRANCH  20  21
ATOM     21  C   UNL     1      -2.803   1.437  -0.007  0.00  0.00    +0.243 C 
ATOM     22  O   UNL     1      -2.202   1.192   1.024  0.00  0.00    -0.270 OA
ATOM     23  N   UNL     1      -4.150   1.456  -0.013  0.00  0.00    -0.282 N 
ATOM     24  H   UNL     1      -4.628   1.713  -0.817  0.00  0.00    +0.155 HD
BRANCH  23  25
ATOM     25  C   UNL     1      -4.861   1.105   1.142  0.00  0.00    +0.034 A 
ATOM     26  C   UNL     1      -4.363   1.443   2.393  0.00  0.00    +0.027 A 
ATOM     27  C   UNL     1      -5.064   1.098   3.531  0.00  0.00    +0.047 A 
ATOM     28  C   UNL     1      -6.266   0.413   3.425  0.00  0.00    +0.120 A 
ATOM     29  C   UNL     1      -6.763   0.074   2.175  0.00  0.00    +0.047 A 
ATOM     30  C   UNL     1      -6.066   0.424   1.036  0.00  0.00    +0.027 A 
BRANCH  28  31
ATOM     31  O   UNL     1      -6.956   0.072   4.546  0.00  0.00    -0.495 OA
ATOM     32  C   UNL     1      -8.185  -0.632   4.362  0.00  0.00    +0.277 C 
ENDBRANCH  28  31
ENDBRANCH  23  25
ENDBRANCH  20  21
ENDBRANCH   1  19
TORSDOF 7
