REMARK  Name = ZINC08253659
REMARK  6 active torsions:
REMARK  status: ('A' for Active; 'I' for Inactive)
REMARK    1  A    between atoms: C_3  and  C_6
REMARK    2  A    between atoms: C_6  and  N_7
REMARK    3  A    between atoms: C_12  and  C_21
REMARK    4  A    between atoms: C_15  and  O_20
REMARK    5  A    between atoms: C_17  and  O_19
REMARK    6  A    between atoms: N_24  and  C_27
REMARK                            x       y       z     vdW  Elec       q    Type
REMARK                         _______ _______ _______ _____ _____    ______ ____
ROOT
ATOM      1  N   UNL     1      -4.452   4.621   0.935  0.00  0.00    -0.300 N 
ATOM      2  C   UNL     1      -3.023   4.888   0.640  0.00  0.00    +0.128 C 
ATOM      3  C   UNL     1      -2.532   3.559   0.113  0.00  0.00    +0.115 C 
ATOM      4  C   UNL     1      -1.173   3.080   0.482  0.00  0.00    +0.100 C 
ATOM      5  C   UNL     1      -0.664   3.532   1.831  0.00  0.00    +0.048 C 
ATOM      6  C   UNL     1      -0.915   5.007   2.064  0.00  0.00    +0.146 C 
ATOM      7  C   UNL     1      -2.368   5.375   1.911  0.00  0.00    +0.165 C 
ATOM      8  N   UNL     1      -3.612   2.609   0.381  0.00  0.00    -0.277 N 
ATOM      9  C   UNL     1      -4.680   3.306   0.807  0.00  0.00    +0.141 C 
ATOM     10  S   UNL     1      -6.192   2.581   1.155  0.00  0.00    -0.018 S 
ENDROOT
BRANCH   8  11
ATOM     11  C   UNL     1      -3.545   1.221   0.223  0.00  0.00    +0.036 A 
ATOM     12  C   UNL     1      -3.396   0.671  -1.044  0.00  0.00    +0.025 A 
ATOM     13  C   UNL     1      -3.324  -0.700  -1.196  0.00  0.00    +0.022 A 
ATOM     14  C   UNL     1      -3.412  -1.526  -0.090  0.00  0.00    +0.041 A 
ATOM     15  C   UNL     1      -3.566  -0.981   1.173  0.00  0.00    +0.022 A 
ATOM     16  C   UNL     1      -3.633   0.389   1.332  0.00  0.00    +0.025 A 
ATOM     17 CL   UNL     1      -3.328  -3.249  -0.286  0.00  0.00    -0.084 Cl
ENDBRANCH   8  11
BRANCH   4  18
ATOM     18  C   UNL     1      -1.182   1.573   0.461  0.00  0.00    +0.216 C 
ATOM     19  O   UNL     1      -1.340   0.954   1.491  0.00  0.00    -0.276 OA
ATOM     20  N   UNL     1      -1.014   0.915  -0.703  0.00  0.00    -0.329 N 
ATOM     21  H   UNL     1      -1.020  -0.055  -0.716  0.00  0.00    +0.145 HD
ATOM     22  H   UNL     1      -0.892   1.410  -1.528  0.00  0.00    +0.145 HD
ENDBRANCH   4  18
BRANCH   7  23
ATOM     23  O   UNL     1      -3.088   4.839   3.022  0.00  0.00    -0.387 OA
ATOM     24  H   UNL     1      -2.735   5.102   3.884  0.00  0.00    +0.210 HD
ENDBRANCH   7  23
BRANCH   6  25
ATOM     25  O   UNL     1      -0.145   5.761   1.126  0.00  0.00    -0.389 OA
ATOM     26  H   UNL     1       0.805   5.581   1.161  0.00  0.00    +0.210 HD
ENDBRANCH   6  25
BRANCH   1  27
ATOM     27  C   UNL     1      -5.449   5.628   1.305  0.00  0.00    +0.149 C 
BRANCH  27  30
ATOM     28  C   UNL     1      -4.941   6.597   4.954  0.00  0.00    +0.008 A 
ATOM     29  C   UNL     1      -4.748   6.623   3.585  0.00  0.00    +0.013 A 
ATOM     30  C   UNL     1      -5.473   5.786   2.803  0.00  0.00    +0.007 A 
ATOM     31  S   UNL     1      -6.457   4.913   4.010  0.00  0.00    -0.100 S 
ATOM     32  C   UNL     1      -5.841   5.728   5.474  0.00  0.00    +0.045 A 
ENDBRANCH  27  30
ENDBRANCH   1  27
TORSDOF 6
