REMARK  Name = ZINC18516784
REMARK  8 active torsions:
REMARK  status: ('A' for Active; 'I' for Inactive)
REMARK    1  A    between atoms: C_1  and  C_2
REMARK    2  A    between atoms: C_2  and  C_4
REMARK    3  A    between atoms: C_2  and  S_19
REMARK    4  A    between atoms: N_6  and  C_7
REMARK    5  A    between atoms: S_19  and  C_20
REMARK    6  A    between atoms: N_25  and  C_26
REMARK    7  A    between atoms: C_29  and  O_32
REMARK    8  A    between atoms: O_32  and  C_33
REMARK                            x       y       z     vdW  Elec       q    Type
REMARK                         _______ _______ _______ _____ _____    ______ ____
ROOT
ATOM      1  S   UNL     1       1.468   2.408  -0.228  0.00  0.00    -0.084 S 
ENDROOT
BRANCH   1   2
ATOM      2  C   UNL     1       2.109   1.318  -1.455  0.00  0.00    +0.161 A 
ATOM      3  N   UNL     1       1.512   0.322  -2.081  0.00  0.00    -0.133 NA
ATOM      4  N   UNL     1       2.206  -0.411  -3.017  0.00  0.00    -0.125 NA
ATOM      5  C   UNL     1       3.463  -0.114  -3.283  0.00  0.00    +0.187 A 
ATOM      6  S   UNL     1       3.736   1.272  -2.189  0.00  0.00    -0.024 S 
ATOM      7  N   UNL     1       4.339  -0.715  -4.180  0.00  0.00    -0.292 N 
ATOM      8  H   UNL     1       5.269  -0.441  -4.207  0.00  0.00    +0.154 HD
BRANCH   7   9
ATOM      9  C   UNL     1       3.880  -1.716  -5.043  0.00  0.00    +0.033 A 
ATOM     10  C   UNL     1       4.759  -2.678  -5.522  0.00  0.00    +0.027 A 
ATOM     11  C   UNL     1       4.304  -3.669  -6.370  0.00  0.00    +0.048 A 
ATOM     12  C   UNL     1       2.971  -3.696  -6.752  0.00  0.00    +0.130 A 
ATOM     13  C   UNL     1       2.092  -2.732  -6.278  0.00  0.00    +0.048 A 
ATOM     14  C   UNL     1       2.545  -1.744  -5.426  0.00  0.00    +0.027 A 
BRANCH  12  15
ATOM     15  O   UNL     1       2.524  -4.669  -7.591  0.00  0.00    -0.406 OA
BRANCH  15  16
ATOM     16  C   UNL     1       3.483  -5.629  -8.039  0.00  0.00    +0.575 C 
ATOM     17  F   UNL     1       4.021  -6.301  -6.937  0.00  0.00    -0.133 F 
ATOM     18  F   UNL     1       2.859  -6.550  -8.888  0.00  0.00    -0.133 F 
ATOM     19  F   UNL     1       4.507  -4.976  -8.733  0.00  0.00    -0.133 F 
ENDBRANCH  15  16
ENDBRANCH  12  15
ENDBRANCH   7   9
ENDBRANCH   1   2
BRANCH   1  21
ATOM     20  C   UNL     1      -1.033   2.085  -1.288  0.00  0.00    +0.029 C 
ATOM     21  C   UNL     1      -0.243   1.853   0.003  0.00  0.00    +0.136 C 
BRANCH  21  22
ATOM     22  C   UNL     1      -0.877   2.631   1.126  0.00  0.00    +0.230 C 
ATOM     23  O   UNL     1      -0.460   3.734   1.411  0.00  0.00    -0.274 OA
ATOM     24  N   UNL     1      -1.908   2.103   1.815  0.00  0.00    -0.285 N 
ATOM     25  H   UNL     1      -2.197   1.195   1.634  0.00  0.00    +0.155 HD
BRANCH  24  26
ATOM     26  C   UNL     1      -2.563   2.865   2.791  0.00  0.00    +0.035 A 
ATOM     27  C   UNL     1      -3.930   2.711   2.990  0.00  0.00    +0.025 A 
ATOM     28  C   UNL     1      -4.581   3.459   3.950  0.00  0.00    +0.029 A 
ATOM     29  C   UNL     1      -3.869   4.367   4.720  0.00  0.00    +0.067 A 
ATOM     30  C   UNL     1      -2.496   4.523   4.523  0.00  0.00    +0.069 A 
ATOM     31  C   UNL     1      -1.844   3.767   3.561  0.00  0.00    +0.051 A 
ATOM     32  N   UNL     1      -2.066   5.490   5.430  0.00  0.00    -0.306 N 
ATOM     33  H   UNL     1      -1.156   5.811   5.528  0.00  0.00    +0.170 HD
ATOM     34  C   UNL     1      -3.129   5.903   6.146  0.00  0.00    +0.325 A 
ATOM     35  O   UNL     1      -3.097   6.744   7.024  0.00  0.00    -0.247 OA
ATOM     36  N   UNL     1      -4.231   5.244   5.742  0.00  0.00    -0.306 N 
ATOM     37  H   UNL     1      -5.125   5.361   6.100  0.00  0.00    +0.170 HD
ENDBRANCH  24  26
ENDBRANCH  21  22
ENDBRANCH   1  21
TORSDOF 7
