REMARK  Name = ZINC39716105
REMARK  7 active torsions:
REMARK  status: ('A' for Active; 'I' for Inactive)
REMARK    1  A    between atoms: C_1  and  C_2
REMARK    2  A    between atoms: C_5  and  N_8
REMARK    3  A    between atoms: C_9  and  N_32
REMARK    4  A    between atoms: C_13  and  S_15
REMARK    5  A    between atoms: S_15  and  C_16
REMARK    6  A    between atoms: C_16  and  C_17
REMARK    7  A    between atoms: C_25  and  C_29
REMARK                            x       y       z     vdW  Elec       q    Type
REMARK                         _______ _______ _______ _____ _____    ______ ____
ROOT
ATOM      1  N   UNL     1      -0.159  -4.329  -0.089  0.00  0.00    -0.304 N 
ATOM      2  C   UNL     1       0.173  -5.057   1.153  0.00  0.00    +0.105 C 
ATOM      3  N   UNL     1      -0.237  -6.458   0.876  0.00  0.00    -0.251 NA
ATOM      4  N   UNL     1       0.128  -6.636  -0.538  0.00  0.00    -0.228 NA
ATOM      5  C   UNL     1      -0.195  -5.334  -1.165  0.00  0.00    +0.216 C 
ATOM      6  H   UNL     1      -1.229  -6.579   1.011  0.00  0.00    +0.140 HD
ATOM      7  H   UNL     1      -0.408  -7.380  -0.959  0.00  0.00    +0.143 HD
ENDROOT
BRANCH   1  12
ATOM      8  C   UNL     1      -1.132   1.234  -0.605  0.00  0.00    +0.044 C 
ATOM      9  C   UNL     1      -0.874  -0.244  -0.468  0.00  0.00    -0.050 A 
ATOM     10  C   UNL     1      -1.172  -1.097  -1.515  0.00  0.00    +0.005 A 
ATOM     11  C   UNL     1      -0.936  -2.452  -1.393  0.00  0.00    +0.023 A 
ATOM     12  C   UNL     1      -0.399  -2.958  -0.216  0.00  0.00    +0.031 A 
ATOM     13  C   UNL     1      -0.100  -2.099   0.834  0.00  0.00    +0.023 A 
ATOM     14  C   UNL     1      -0.333  -0.744   0.703  0.00  0.00    +0.005 A 
ENDBRANCH   1  12
BRANCH   2  15
ATOM     15  N   UNL     1      -0.586  -4.511   2.287  0.00  0.00    +0.401 N 
ATOM     16  C   UNL     1      -2.043  -4.576   2.006  0.00  0.00    -0.074 C 
ATOM     17  C   UNL     1      -2.678  -4.523   3.419  0.00  0.00    -0.020 C 
ATOM     18  C   UNL     1      -1.698  -5.362   4.270  0.00  0.00    -0.020 C 
ATOM     19  C   UNL     1      -0.369  -5.342   3.491  0.00  0.00    -0.074 C 
ATOM     20  H   UNL     1      -0.307  -3.558   2.466  0.00  0.00    -0.077 HD
ENDBRANCH   2  15
BRANCH   5  21
ATOM     21  S   UNL     1       1.043  -4.934  -2.430  0.00  0.00    -0.114 S 
BRANCH  21  22
ATOM     22  C   UNL     1       2.617  -4.963  -1.529  0.00  0.00    +0.146 C 
BRANCH  22  23
ATOM     23  C   UNL     1       3.744  -4.642  -2.476  0.00  0.00    +0.120 A 
ATOM     24  N   UNL     1       5.011  -4.620  -1.987  0.00  0.00    -0.310 N 
ATOM     25  H   UNL     1       5.167  -4.809  -1.048  0.00  0.00    +0.170 HD
ATOM     26  C   UNL     1       6.058  -4.338  -2.796  0.00  0.00    +0.259 A 
ATOM     27  O   UNL     1       7.198  -4.316  -2.371  0.00  0.00    -0.267 OA
ATOM     28  C   UNL     1       5.764  -4.059  -4.213  0.00  0.00    +0.065 A 
ATOM     29  C   UNL     1       6.772  -3.759  -5.127  0.00  0.00    +0.016 A 
ATOM     30  C   UNL     1       6.456  -3.508  -6.431  0.00  0.00    +0.016 A 
ATOM     31  C   UNL     1       5.123  -3.549  -6.861  0.00  0.00    +0.065 A 
ATOM     32  C   UNL     1       4.102  -3.846  -5.965  0.00  0.00    +0.043 A 
ATOM     33  C   UNL     1       4.416  -4.105  -4.630  0.00  0.00    +0.079 A 
ATOM     34  N   UNL     1       3.455  -4.405  -3.720  0.00  0.00    -0.233 NA
BRANCH  31  35
ATOM     35  C   UNL     1       4.800  -3.274  -8.277  0.00  0.00    +0.387 C 
ATOM     36  O   UNL     1       5.694  -3.012  -9.069  0.00  0.00    -0.241 OA
ATOM     37  O   UNL     1       3.638  -3.309  -8.657  0.00  0.00    -0.241 OA
ENDBRANCH  31  35
ENDBRANCH  22  23
ENDBRANCH  21  22
ENDBRANCH   5  21
TORSDOF 6
