REMARK  Name = ZINC50627653
REMARK  8 active torsions:
REMARK  status: ('A' for Active; 'I' for Inactive)
REMARK    1  A    between atoms: C_4  and  C_7
REMARK    2  A    between atoms: C_7  and  N_8
REMARK    3  A    between atoms: C_12  and  C_14
REMARK    4  A    between atoms: C_14  and  N_15
REMARK    5  A    between atoms: C_16  and  C_18
REMARK    6  A    between atoms: C_18  and  N_19
REMARK    7  A    between atoms: N_22  and  C_23
REMARK    8  A    between atoms: C_23  and  C_24
REMARK                            x       y       z     vdW  Elec       q    Type
REMARK                         _______ _______ _______ _____ _____    ______ ____
ROOT
ATOM      1  N   UNL     1       7.397  -3.360   4.106  0.00  0.00    -0.314 N 
ATOM      2  C   UNL     1       8.485  -4.122   4.333  0.00  0.00    +0.230 C 
ATOM      3  O   UNL     1       9.186  -4.470   3.406  0.00  0.00    -0.274 OA
ATOM      4  H   UNL     1       6.836  -3.081   4.847  0.00  0.00    +0.149 HD
ENDROOT
BRANCH   1   5
ATOM      5  C   UNL     1       7.060  -2.951   2.740  0.00  0.00    +0.106 C 
BRANCH   5  10
ATOM      6  N   UNL     1       4.153  -0.953   1.342  0.00  0.00    +0.383 N 
ATOM      7  C   UNL     1       4.424   0.329   2.003  0.00  0.00    -0.078 C 
ATOM      8  C   UNL     1       4.807   0.083   3.464  0.00  0.00    -0.018 C 
ATOM      9  C   UNL     1       6.060  -0.796   3.517  0.00  0.00    +0.001 C 
ATOM     10  C   UNL     1       5.790  -2.099   2.760  0.00  0.00    -0.011 C 
ATOM     11  C   UNL     1       5.371  -1.772   1.325  0.00  0.00    -0.073 C 
ATOM     12  H   UNL     1       3.427  -1.441   1.844  0.00  0.00    -0.081 HD
BRANCH   6  13
ATOM     13  C   UNL     1       3.711  -0.707  -0.038  0.00  0.00    -0.043 C 
BRANCH  13  17
ATOM     14  C   UNL     1      -0.017   1.378   0.010  0.00  0.00    +0.000 A 
ATOM     15  C   UNL     1       1.171   2.086   0.002  0.00  0.00    +0.000 A 
ATOM     16  C   UNL     1       2.377   1.411  -0.013  0.00  0.00    +0.002 A 
ATOM     17  C   UNL     1       2.396   0.029  -0.020  0.00  0.00    -0.064 A 
ATOM     18  C   UNL     1       1.208  -0.679  -0.012  0.00  0.00    +0.002 A 
ATOM     19  C   UNL     1       0.002  -0.004   0.002  0.00  0.00    +0.000 A 
ENDBRANCH  13  17
ENDBRANCH   6  13
ENDBRANCH   5  10
ENDBRANCH   1   5
BRANCH   2  20
ATOM     20  C   UNL     1       8.831  -4.541   5.738  0.00  0.00    +0.201 C 
BRANCH  20  21
ATOM     21  N   UNL     1      10.047  -5.357   5.719  0.00  0.00    -0.291 N 
ATOM     22  C   UNL     1      10.549  -5.847   6.870  0.00  0.00    +0.300 C 
ATOM     23  O   UNL     1       9.991  -5.613   7.925  0.00  0.00    -0.253 OA
ATOM     24  N   UNL     1      11.668  -6.598   6.852  0.00  0.00    -0.299 N 
ATOM     25  H   UNL     1      10.492  -5.544   4.878  0.00  0.00    +0.151 HD
ATOM     26  H   UNL     1      12.113  -6.785   6.011  0.00  0.00    +0.150 HD
BRANCH  24  27
ATOM     27  C   UNL     1      12.213  -7.131   8.103  0.00  0.00    +0.109 C 
BRANCH  27  28
ATOM     28  C   UNL     1      13.476  -7.941   7.805  0.00  0.00    +0.006 C 
ATOM     29  C   UNL     1      13.112  -9.219   7.022  0.00  0.00    +0.005 C 
ATOM     30  C   UNL     1      14.074 -10.295   7.583  0.00  0.00    +0.000 C 
ATOM     31  C   UNL     1      14.138  -9.944   9.090  0.00  0.00    +0.000 C 
ATOM     32  C   UNL     1      14.129  -8.402   9.120  0.00  0.00    +0.005 C 
ENDBRANCH  27  28
ENDBRANCH  24  27
ENDBRANCH  20  21
ENDBRANCH   2  20
TORSDOF 8
