REMARK  Name = ZINC05296235
REMARK  8 active torsions:
REMARK  status: ('A' for Active; 'I' for Inactive)
REMARK    1  A    between atoms: C_1  and  C_2
REMARK    2  A    between atoms: C_3  and  C_19
REMARK    3  A    between atoms: C_4  and  C_10
REMARK    4  A    between atoms: C_13  and  O_18
REMARK    5  A    between atoms: C_14  and  O_16
REMARK    6  A    between atoms: O_16  and  C_17
REMARK    7  A    between atoms: N_21  and  N_22
REMARK    8  A    between atoms: C_23  and  C_24
REMARK                            x       y       z     vdW  Elec       q    Type
REMARK                         _______ _______ _______ _____ _____    ______ ____
ROOT
ATOM      1  C   UNL     1       1.558  -2.400  -2.864  0.00  0.00    +0.061 C 
ATOM      2  C   UNL     1       1.643  -1.626  -1.574  0.00  0.00    +0.017 C 
ATOM      3  C   UNL     1       0.704  -0.698  -1.294  0.00  0.00    +0.057 C 
ATOM      4  C   UNL     1       0.826   0.057   0.014  0.00  0.00    +0.139 C 
ATOM      5  N   UNL     1       1.968  -0.287   0.878  0.00  0.00    -0.315 N 
ATOM      6  C   UNL     1       2.824  -1.240   0.461  0.00  0.00    +0.135 C 
ATOM      7  S   UNL     1       4.155  -1.651   1.457  0.00  0.00    -0.019 S 
ATOM      8  N   UNL     1       2.668  -1.876  -0.707  0.00  0.00    -0.300 N 
ATOM      9  H   UNL     1       2.100   0.162   1.728  0.00  0.00    +0.149 HD
ATOM     10  H   UNL     1       3.319  -2.553  -0.950  0.00  0.00    +0.154 HD
ENDROOT
BRANCH   4  11
ATOM     11  C   UNL     1       0.911   1.528  -0.304  0.00  0.00    -0.019 A 
ATOM     12  C   UNL     1       2.100   2.068  -0.757  0.00  0.00    +0.009 A 
ATOM     13  C   UNL     1       2.183   3.416  -1.051  0.00  0.00    +0.049 A 
ATOM     14  C   UNL     1       1.072   4.229  -0.892  0.00  0.00    +0.158 A 
ATOM     15  C   UNL     1      -0.125   3.686  -0.437  0.00  0.00    +0.162 A 
ATOM     16  C   UNL     1      -0.202   2.332  -0.149  0.00  0.00    +0.055 A 
BRANCH  15  17
ATOM     17  O   UNL     1      -1.218   4.479  -0.279  0.00  0.00    -0.491 OA
ATOM     18  C   UNL     1      -2.388   3.871   0.270  0.00  0.00    +0.277 C 
ENDBRANCH  15  17
BRANCH  14  19
ATOM     19  O   UNL     1       1.152   5.556  -1.182  0.00  0.00    -0.503 OA
ATOM     20  H   UNL     1       0.933   5.772  -2.099  0.00  0.00    +0.292 HD
ENDBRANCH  14  19
ENDBRANCH   4  11
BRANCH   3  21
ATOM     21  C   UNL     1      -0.359  -0.438  -2.192  0.00  0.00    +0.263 C 
ATOM     22  O   UNL     1      -1.461  -0.914  -1.986  0.00  0.00    -0.269 OA
ATOM     23  N   UNL     1      -0.152   0.336  -3.276  0.00  0.00    -0.203 N 
ATOM     24  H   UNL     1       0.740   0.660  -3.478  0.00  0.00    +0.178 HD
BRANCH  23  25
ATOM     25  N   UNL     1      -1.225   0.674  -4.112  0.00  0.00    -0.187 NA
ATOM     26  C   UNL     1      -1.044   1.498  -5.098  0.00  0.00    +0.138 C 
BRANCH  26  27
ATOM     27  C   UNL     1      -2.194   1.939  -5.909  0.00  0.00    -0.005 A 
ATOM     28  C   UNL     1      -3.478   1.469  -5.622  0.00  0.00    +0.009 A 
ATOM     29  C   UNL     1      -4.549   1.892  -6.381  0.00  0.00    +0.001 A 
ATOM     30  C   UNL     1      -4.353   2.769  -7.432  0.00  0.00    +0.000 A 
ATOM     31  C   UNL     1      -3.084   3.235  -7.726  0.00  0.00    +0.001 A 
ATOM     32  C   UNL     1      -2.004   2.826  -6.972  0.00  0.00    +0.009 A 
ENDBRANCH  26  27
ENDBRANCH  23  25
ENDBRANCH   3  21
TORSDOF 6
