REMARK  Name = ZINC20159905
REMARK  13 active torsions:
REMARK  status: ('A' for Active; 'I' for Inactive)
REMARK    1  A    between atoms: C_1  and  C_2
REMARK    2  A    between atoms: C_2  and  C_29
REMARK    3  A    between atoms: N_3  and  N_4
REMARK    4  A    between atoms: C_7  and  S_10
REMARK    5  A    between atoms: S_10  and  C_11
REMARK    6  A    between atoms: C_11  and  C_12
REMARK    7  A    between atoms: N_14  and  C_15
REMARK    8  A    between atoms: C_18  and  S_21
REMARK    9  A    between atoms: S_21  and  N_24
REMARK   10  A    between atoms: N_24  and  C_25
REMARK   11  A    between atoms: C_25  and  C_26
REMARK   12  A    between atoms: C_25  and  C_27
REMARK   13  A    between atoms: C_25  and  C_28
REMARK                            x       y       z     vdW  Elec       q    Type
REMARK                         _______ _______ _______ _____ _____    ______ ____
ROOT
ATOM      1  C   UNL     1      -4.596   4.625   6.445  0.00  0.00    +0.173 C 
ENDROOT
BRANCH   1   2
ATOM      2  C   UNL     1      -3.664   4.328   5.298  0.00  0.00    +0.227 C 
ATOM      3  O   UNL     1      -2.831   5.145   4.967  0.00  0.00    -0.275 OA
ATOM      4  N   UNL     1      -3.756   3.155   4.641  0.00  0.00    -0.285 N 
ATOM      5  H   UNL     1      -4.561   2.447   4.889  0.00  0.00    +0.155 HD
BRANCH   4   6
ATOM      6  C   UNL     1      -2.828   2.837   3.644  0.00  0.00    +0.034 A 
ATOM      7  C   UNL     1      -1.510   3.259   3.760  0.00  0.00    +0.025 A 
ATOM      8  C   UNL     1      -0.596   2.943   2.774  0.00  0.00    +0.030 A 
ATOM      9  C   UNL     1      -0.992   2.207   1.672  0.00  0.00    +0.105 A 
ATOM     10  C   UNL     1      -2.304   1.789   1.552  0.00  0.00    +0.030 A 
ATOM     11  C   UNL     1      -3.222   2.098   2.536  0.00  0.00    +0.025 A 
BRANCH   9  12
ATOM     12  S   UNL     1       0.177   1.805   0.417  0.00  0.00    +0.059 S 
ATOM     13  O   UNL     1       1.048   2.922   0.301  0.00  0.00    -0.153 OA
ATOM     14  O   UNL     1      -0.566   1.301  -0.684  0.00  0.00    -0.153 OA
BRANCH  12  15
ATOM     15  N   UNL     1       1.094   0.548   0.984  0.00  0.00    -0.185 NA
ATOM     16  H   UNL     1       2.073   0.759   1.439  0.00  0.00    +0.149 HD
BRANCH  15  17
ATOM     17  C   UNL     1       0.516  -0.795   1.080  0.00  0.00    +0.032 C 
ATOM     18  C   UNL     1       0.243  -1.333  -0.326  0.00  0.00    +0.029 C 
ATOM     19  C   UNL     1       1.497  -1.722   1.800  0.00  0.00    +0.029 C 
ATOM     20  C   UNL     1      -0.795  -0.731   1.865  0.00  0.00    +0.029 C 
ENDBRANCH  15  17
ENDBRANCH  12  15
ENDBRANCH   9  12
ENDBRANCH   4   6
ENDBRANCH   1   2
BRANCH   1  21
ATOM     21  S   UNL     1      -4.224   6.269   7.116  0.00  0.00    -0.075 S 
BRANCH  21  25
ATOM     22  N   UNL     1      -6.941   8.181  11.127  0.00  0.00    -0.205 N 
ATOM     23  C   UNL     1      -6.509   7.317  10.130  0.00  0.00    +0.232 A 
ATOM     24  N   UNL     1      -5.496   7.555   9.244  0.00  0.00    -0.186 NA
ATOM     25  C   UNL     1      -5.383   6.465   8.429  0.00  0.00    +0.211 A 
ATOM     26  N   UNL     1      -6.291   5.591   8.793  0.00  0.00    -0.144 NA
ATOM     27  N   UNL     1      -7.001   6.129   9.874  0.00  0.00    -0.245 N 
ATOM     28  H   UNL     1      -6.455   9.160  11.255  0.00  0.00    +0.177 HD
ATOM     29  H   UNL     1      -7.831   5.736  10.479  0.00  0.00    +0.192 HD
BRANCH  22  32
ATOM     30  C   UNL     1      -7.734   9.956  13.077  0.00  0.00    +0.068 C 
ATOM     31  C   UNL     1      -8.400   8.616  12.901  0.00  0.00    +0.063 C 
ATOM     32  N   UNL     1      -7.996   7.807  11.969  0.00  0.00    -0.184 NA
BRANCH  31  33
ATOM     33  C   UNL     1      -9.511   8.223  13.788  0.00  0.00    -0.003 A 
ATOM     34  C   UNL     1      -9.945   9.088  14.796  0.00  0.00    +0.010 A 
ATOM     35  C   UNL     1     -10.986   8.715  15.619  0.00  0.00    +0.001 A 
ATOM     36  C   UNL     1     -11.596   7.483  15.454  0.00  0.00    +0.000 A 
ATOM     37  C   UNL     1     -11.169   6.620  14.461  0.00  0.00    +0.001 A 
ATOM     38  C   UNL     1     -10.131   6.981  13.628  0.00  0.00    +0.010 A 
ENDBRANCH  31  33
ENDBRANCH  22  32
ENDBRANCH  21  25
ENDBRANCH   1  21
TORSDOF 9
