REMARK  Name = ZINC00300244
REMARK  5 active torsions:
REMARK  status: ('A' for Active; 'I' for Inactive)
REMARK    1  A    between atoms: C_1  and  C_2
REMARK    2  A    between atoms: C_2  and  C_19
REMARK    3  A    between atoms: C_9  and  N_15
REMARK    4  A    between atoms: N_13  and  N_14
REMARK    5  A    between atoms: N_15  and  N_16
REMARK                            x       y       z     vdW  Elec       q    Type
REMARK                         _______ _______ _______ _____ _____    ______ ____
ROOT
ATOM      1  C   UNL     1       5.372  -1.138   3.002  0.00  0.00    +0.041 C 
ATOM      2  C   UNL     1       5.805  -1.165   1.535  0.00  0.00    +0.068 C 
ATOM      3  C   UNL     1       4.947  -0.182   0.734  0.00  0.00    +0.071 C 
ATOM      4  C   UNL     1       3.530  -0.745   0.655  0.00  0.00    -0.020 A 
ATOM      5  C   UNL     1       3.317  -2.052   0.917  0.00  0.00    +0.021 A 
ATOM      6  S   UNL     1       1.573  -2.284   0.719  0.00  0.00    -0.071 S 
ATOM      7  C   UNL     1       1.131  -0.622   0.283  0.00  0.00    +0.116 A 
ATOM      8  C   UNL     1       2.363   0.063   0.307  0.00  0.00    +0.052 A 
ATOM      9  C   UNL     1       2.299   1.449  -0.012  0.00  0.00    +0.146 A 
ATOM     10  N   UNL     1       1.129   1.993  -0.302  0.00  0.00    -0.197 NA
ATOM     11  C   UNL     1       0.005   1.288  -0.306  0.00  0.00    +0.232 A 
ATOM     12  N   UNL     1       0.004  -0.006  -0.017  0.00  0.00    -0.206 NA
ATOM     13  N   UNL     1      -1.189   1.914  -0.623  0.00  0.00    -0.252 N 
ATOM     14  C   UNL     1       4.358  -3.061   1.292  0.00  0.00    +0.203 C 
ATOM     15  O   UNL     1       5.647  -2.490   1.018  0.00  0.00    -0.368 OA
ATOM     16  C   UNL     1       7.275  -0.753   1.432  0.00  0.00    +0.041 C 
ATOM     17  H   UNL     1      -1.198   2.861  -0.836  0.00  0.00    +0.169 HD
ENDROOT
BRANCH  13  18
ATOM     18  N   UNL     1      -2.353   1.200  -0.636  0.00  0.00    -0.254 NA
ATOM     19  H   UNL     1      -2.509   0.745   0.251  0.00  0.00    +0.140 HD
ATOM     20  H   UNL     1      -3.135   1.787  -0.884  0.00  0.00    +0.140 HD
ENDBRANCH  13  18
BRANCH   9  21
ATOM     21  N   UNL     1       3.449   2.217  -0.019  0.00  0.00    -0.267 N 
ATOM     22  H   UNL     1       4.318   1.791   0.043  0.00  0.00    +0.167 HD
BRANCH  21  23
ATOM     23  N   UNL     1       3.360   3.577  -0.114  0.00  0.00    -0.255 NA
ATOM     24  H   UNL     1       4.276   4.001  -0.107  0.00  0.00    +0.140 HD
ATOM     25  H   UNL     1       2.842   3.849  -0.936  0.00  0.00    +0.140 HD
ENDBRANCH  21  23
ENDBRANCH   9  21
TORSDOF 3
