REMARK  Name = ZINC05134586
REMARK  3 active torsions:
REMARK  status: ('A' for Active; 'I' for Inactive)
REMARK    1  A    between atoms: C_3  and  C_12
REMARK    2  A    between atoms: C_3  and  N_22
REMARK    3  A    between atoms: C_8  and  C_10
REMARK                            x       y       z     vdW  Elec       q    Type
REMARK                         _______ _______ _______ _____ _____    ______ ____
ROOT
ATOM      1  C   UNL     1      -0.019   1.538   0.011  0.00  0.00    +0.004 C 
ATOM      2  C   UNL     1       1.477   1.939  -0.002  0.00  0.00    -0.001 C 
ATOM      3  C   UNL     1       2.119   0.871   0.929  0.00  0.00    +0.037 C 
ATOM      4  C   UNL     1       1.365  -0.428   0.577  0.00  0.00    +0.006 C 
ATOM      5  C   UNL     1       0.002  -0.004   0.002  0.00  0.00    +0.006 C 
ATOM      6  C   UNL     1       1.009  -0.709  -0.910  0.00  0.00    +0.108 C 
ENDROOT
BRANCH   3   9
ATOM      7  H   UNL     1       2.414   2.060   2.583  0.00  0.00    -0.088 HD
ATOM      8  H   UNL     1       0.943   1.285   2.567  0.00  0.00    -0.088 HD
ATOM      9  N   UNL     1       1.935   1.191   2.355  0.00  0.00    +0.389 N 
ATOM     10  H   UNL     1       2.328   0.432   2.925  0.00  0.00    -0.088 HD
ENDBRANCH   3   9
BRANCH   6  11
ATOM     11  C   UNL     1       0.720  -2.137  -1.291  0.00  0.00    +0.360 C 
ATOM     12  O   UNL     1       0.775  -3.009  -0.456  0.00  0.00    -0.246 OA
ATOM     13  O   UNL     1       0.400  -2.442  -2.559  0.00  0.00    -0.246 OA
ENDBRANCH   6  11
BRANCH   3  14
ATOM     14  C   UNL     1       3.586   0.729   0.619  0.00  0.00    +0.345 C 
ATOM     15  O   UNL     1       3.954  -0.061  -0.218  0.00  0.00    -0.248 OA
ATOM     16  O   UNL     1       4.486   1.481   1.272  0.00  0.00    -0.248 OA
ENDBRANCH   3  14
TORSDOF 3
