REMARK  Name = ZINC14558893
REMARK  10 active torsions:
REMARK  status: ('A' for Active; 'I' for Inactive)
REMARK    1  A    between atoms: C_1  and  C_2
REMARK    2  A    between atoms: C_2  and  C_3
REMARK    3  A    between atoms: C_2  and  C_4
REMARK    4  A    between atoms: C_4  and  O_5
REMARK    5  A    between atoms: O_5  and  C_6
REMARK    6  A    between atoms: C_11  and  C_12
REMARK    7  A    between atoms: N_14  and  C_15
REMARK    8  A    between atoms: C_15  and  N_17
REMARK    9  A    between atoms: N_17  and  C_18
REMARK   10  A    between atoms: C_22  and  C_24
REMARK                            x       y       z     vdW  Elec       q    Type
REMARK                         _______ _______ _______ _____ _____    ______ ____
ROOT
ATOM      1  C   UNL     1       0.089   0.076  -0.535  0.00  0.00    +0.253 C 
ATOM      2  O   UNL     1      -0.934  -0.541  -0.761  0.00  0.00    -0.270 OA
ATOM      3  N   UNL     1       0.033   1.395  -0.263  0.00  0.00    -0.263 N 
ATOM      4  H   UNL     1       0.849   1.888  -0.083  0.00  0.00    +0.157 HD
ENDROOT
BRANCH   1  10
ATOM      5  C   UNL     1       1.451  -1.990  -0.836  0.00  0.00    +0.133 A 
ATOM      6  C   UNL     1       2.681  -2.632  -0.862  0.00  0.00    +0.047 A 
ATOM      7  C   UNL     1       3.837  -1.923  -0.605  0.00  0.00    +0.019 A 
ATOM      8  C   UNL     1       3.780  -0.567  -0.324  0.00  0.00    +0.019 A 
ATOM      9  C   UNL     1       2.567   0.088  -0.300  0.00  0.00    +0.032 A 
ATOM     10  C   UNL     1       1.389  -0.618  -0.559  0.00  0.00    +0.080 A 
ATOM     11 BR   UNL     1       5.373   0.390   0.027  0.00  0.00    -0.050 Br
BRANCH   5  12
ATOM     12  O   UNL     1       0.314  -2.687  -1.083  0.00  0.00    -0.491 OA
BRANCH  12  13
ATOM     13  C   UNL     1       0.455  -4.083  -1.358  0.00  0.00    +0.232 C 
BRANCH  13  15
ATOM     14  C   UNL     1      -0.765  -6.158  -2.025  0.00  0.00    +0.010 C 
ATOM     15  C   UNL     1      -0.925  -4.695  -1.609  0.00  0.00    +0.020 C 
ATOM     16  C   UNL     1      -1.759  -4.616  -0.329  0.00  0.00    +0.010 C 
ENDBRANCH  13  15
ENDBRANCH  12  13
ENDBRANCH   5  12
ENDBRANCH   1  10
BRANCH   3  17
ATOM     17  C   UNL     1      -1.155   2.030  -0.246  0.00  0.00    +0.141 C 
ATOM     18  S   UNL     1      -2.595   1.162  -0.571  0.00  0.00    -0.018 S 
BRANCH  17  19
ATOM     19  N   UNL     1      -1.211   3.349   0.026  0.00  0.00    -0.297 N 
ATOM     20  H   UNL     1      -0.407   3.824   0.289  0.00  0.00    +0.154 HD
BRANCH  19  21
ATOM     21  C   UNL     1      -2.428   4.033  -0.070  0.00  0.00    +0.033 A 
ATOM     22  C   UNL     1      -3.284   3.781  -1.135  0.00  0.00    +0.023 A 
ATOM     23  C   UNL     1      -4.490   4.449  -1.232  0.00  0.00    +0.003 A 
ATOM     24  C   UNL     1      -4.847   5.380  -0.277  0.00  0.00    +0.013 A 
ATOM     25  C   UNL     1      -3.991   5.644   0.793  0.00  0.00    +0.038 A 
ATOM     26  C   UNL     1      -2.776   4.966   0.894  0.00  0.00    +0.036 A 
BRANCH  25  27
ATOM     27  C   UNL     1      -4.370   6.641   1.817  0.00  0.00    +0.242 C 
ATOM     28  O   UNL     1      -3.623   6.871   2.749  0.00  0.00    -0.270 OA
ATOM     29  N   UNL     1      -5.544   7.296   1.718  0.00  0.00    -0.325 N 
ATOM     30  H   UNL     1      -6.140   7.113   0.975  0.00  0.00    +0.145 HD
ATOM     31  H   UNL     1      -5.793   7.950   2.390  0.00  0.00    +0.145 HD
ENDBRANCH  25  27
ENDBRANCH  19  21
ENDBRANCH  17  19
ENDBRANCH   3  17
TORSDOF 8
