REMARK  Name = ZINC54535295
REMARK  12 active torsions:
REMARK  status: ('A' for Active; 'I' for Inactive)
REMARK    1  A    between atoms: C_1  and  C_2
REMARK    2  A    between atoms: C_2  and  C_3
REMARK    3  A    between atoms: C_3  and  C_4
REMARK    4  A    between atoms: C_4  and  N_5
REMARK    5  A    between atoms: N_5  and  C_6
REMARK    6  A    between atoms: C_9  and  S_24
REMARK    7  A    between atoms: C_11  and  N_12
REMARK    8  A    between atoms: N_12  and  S_13
REMARK    9  A    between atoms: S_13  and  C_16
REMARK   10  A    between atoms: C_18  and  C_23
REMARK   11  A    between atoms: C_21  and  C_22
REMARK   12  A    between atoms: S_24  and  N_27
REMARK                            x       y       z     vdW  Elec       q    Type
REMARK                         _______ _______ _______ _____ _____    ______ ____
ROOT
ATOM      1  C   UNL     1       1.362  -3.316  -2.860  0.00  0.00    +0.050 A 
ATOM      2  C   UNL     1       0.649  -4.037  -1.914  0.00  0.00    +0.027 A 
ATOM      3  C   UNL     1       0.623  -5.419  -1.975  0.00  0.00    +0.030 A 
ATOM      4  C   UNL     1       1.305  -6.084  -2.976  0.00  0.00    +0.107 A 
ATOM      5  C   UNL     1       2.019  -5.373  -3.923  0.00  0.00    +0.054 A 
ATOM      6  C   UNL     1       2.046  -3.987  -3.873  0.00  0.00    +0.071 A 
ENDROOT
BRANCH   4   7
ATOM      7  S   UNL     1       1.267  -7.845  -3.045  0.00  0.00    +0.056 S 
ATOM      8  O   UNL     1       2.430  -8.249  -3.753  0.00  0.00    -0.153 OA
ATOM      9  O   UNL     1       0.980  -8.296  -1.728  0.00  0.00    -0.153 OA
BRANCH   7  10
ATOM     10  N   UNL     1      -0.030  -8.269  -3.984  0.00  0.00    -0.204 NA
ATOM     11  H   UNL     1      -0.594  -7.582  -4.371  0.00  0.00    +0.144 HD
ATOM     12  H   UNL     1      -0.225  -9.205  -4.146  0.00  0.00    +0.144 HD
ENDBRANCH   7  10
ENDBRANCH   4   7
BRANCH   1  13
ATOM     13  N   UNL     1       1.390  -1.917  -2.801  0.00  0.00    -0.342 N 
ATOM     14  H   UNL     1       1.886  -1.414  -3.466  0.00  0.00    +0.146 HD
BRANCH  13  15
ATOM     15  C   UNL     1       0.671  -1.214  -1.736  0.00  0.00    +0.101 C 
BRANCH  15  16
ATOM     16  C   UNL     1       0.863   0.295  -1.901  0.00  0.00    +0.018 C 
BRANCH  16  18
ATOM     17  C   UNL     1       0.303   2.538  -0.953  0.00  0.00    +0.004 C 
ATOM     18  C   UNL     1       0.111   1.029  -0.788  0.00  0.00    -0.002 C 
ENDBRANCH  16  18
ENDBRANCH  15  16
ENDBRANCH  13  15
ENDBRANCH   1  13
BRANCH   6  19
ATOM     19  N   UNL     1       2.764  -3.264  -4.834  0.00  0.00    -0.214 N 
ATOM     20  H   UNL     1       3.222  -2.447  -4.584  0.00  0.00    +0.174 HD
BRANCH  19  21
ATOM     21  S   UNL     1       2.829  -3.805  -6.398  0.00  0.00    +0.073 S 
ATOM     22  O   UNL     1       3.498  -2.799  -7.147  0.00  0.00    -0.150 OA
ATOM     23  O   UNL     1       3.290  -5.148  -6.345  0.00  0.00    -0.150 OA
BRANCH  21  24
ATOM     24  C   UNL     1       1.174  -3.864  -6.999  0.00  0.00    +0.112 A 
ATOM     25  C   UNL     1       0.606  -5.077  -7.341  0.00  0.00    +0.032 A 
ATOM     26  C   UNL     1      -0.693  -5.123  -7.812  0.00  0.00    -0.049 A 
ATOM     27  C   UNL     1      -1.424  -3.956  -7.940  0.00  0.00    +0.004 A 
ATOM     28  C   UNL     1      -0.856  -2.744  -7.597  0.00  0.00    +0.005 A 
ATOM     29  C   UNL     1       0.441  -2.698  -7.122  0.00  0.00    -0.024 A 
ATOM     30  C   UNL     1       1.059  -1.377  -6.742  0.00  0.00    +0.046 C 
ATOM     31  C   UNL     1      -1.312  -6.445  -8.187  0.00  0.00    +0.044 C 
ENDBRANCH  21  24
ENDBRANCH  19  21
ENDBRANCH   6  19
TORSDOF 9
