REMARK  Name = ZINC04393649
REMARK  5 active torsions:
REMARK  status: ('A' for Active; 'I' for Inactive)
REMARK    1  A    between atoms: C_1  and  C_2
REMARK    2  A    between atoms: C_2  and  C_3
REMARK    3  A    between atoms: C_6  and  N_9
REMARK    4  A    between atoms: N_19  and  C_22
REMARK    5  A    between atoms: C_26  and  C_28
REMARK                            x       y       z     vdW  Elec       q    Type
REMARK                         _______ _______ _______ _____ _____    ______ ____
ROOT
ATOM      1  N   UNL     1       0.002  -0.004   0.002  0.00  0.00    -0.249 N 
ATOM      2  C   UNL     1      -1.123  -0.892   0.014  0.00  0.00    +0.126 C 
ATOM      3  C   UNL     1      -2.516  -0.580  -0.476  0.00  0.00    +0.190 C 
ATOM      4  S   UNL     1      -3.128  -2.283  -0.877  0.00  0.00    -0.027 S 
ATOM      5  O   UNL     1      -3.486  -2.336  -2.252  0.00  0.00    -0.174 OA
ATOM      6  O   UNL     1      -4.071  -2.682   0.108  0.00  0.00    -0.174 OA
ATOM      7  C   UNL     1      -1.550  -3.226  -0.625  0.00  0.00    +0.190 C 
ATOM      8  C   UNL     1      -0.561  -2.081  -0.831  0.00  0.00    +0.126 C 
ATOM      9  N   UNL     1       0.786  -2.119  -0.308  0.00  0.00    -0.249 N 
ATOM     10  C   UNL     1       1.099  -0.822  -0.012  0.00  0.00    +0.314 C 
ATOM     11  O   UNL     1       2.230  -0.437   0.214  0.00  0.00    -0.252 OA
ENDROOT
BRANCH   9  12
ATOM     12  C   UNL     1       1.598  -3.247  -0.140  0.00  0.00    +0.038 A 
ATOM     13  C   UNL     1       1.125  -4.504  -0.493  0.00  0.00    +0.023 A 
ATOM     14  C   UNL     1       1.929  -5.614  -0.326  0.00  0.00    +0.002 A 
ATOM     15  C   UNL     1       3.203  -5.476   0.193  0.00  0.00    +0.003 A 
ATOM     16  C   UNL     1       3.677  -4.225   0.545  0.00  0.00    -0.049 A 
ATOM     17  C   UNL     1       2.880  -3.110   0.375  0.00  0.00    +0.027 A 
ATOM     18  C   UNL     1       5.067  -4.079   1.110  0.00  0.00    +0.044 C 
ENDBRANCH   9  12
BRANCH   1  22
ATOM     19  C   UNL     1      -0.054   4.162   0.024  0.00  0.00    -0.048 A 
ATOM     20  C   UNL     1       1.153   3.488   0.009  0.00  0.00    +0.005 A 
ATOM     21  C   UNL     1       1.175   2.107   0.002  0.00  0.00    +0.024 A 
ATOM     22  C   UNL     1      -0.017   1.395   0.010  0.00  0.00    +0.038 A 
ATOM     23  C   UNL     1      -1.228   2.075   0.019  0.00  0.00    +0.024 A 
ATOM     24  C   UNL     1      -1.243   3.456   0.031  0.00  0.00    +0.005 A 
BRANCH  19  26
ATOM     25  C   UNL     1      -0.095   6.186  -1.408  0.00  0.00    +0.009 C 
ATOM     26  C   UNL     1      -0.075   5.669   0.032  0.00  0.00    +0.032 C 
ENDBRANCH  19  26
ENDBRANCH   1  22
TORSDOF 3
