REMARK  Name = ZINC35183151
REMARK  5 active torsions:
REMARK  status: ('A' for Active; 'I' for Inactive)
REMARK    1  A    between atoms: C_1  and  O_2
REMARK    2  A    between atoms: O_2  and  C_3
REMARK    3  A    between atoms: C_3  and  C_5
REMARK    4  A    between atoms: C_18  and  C_21
REMARK    5  A    between atoms: C_25  and  N_27
REMARK                            x       y       z     vdW  Elec       q    Type
REMARK                         _______ _______ _______ _____ _____    ______ ____
ROOT
ATOM      1  C   UNL     1      -1.409  -1.976  -0.155  0.00  0.00    +0.169 C 
ATOM      2  C   UNL     1      -1.089  -2.385   1.289  0.00  0.00    +0.067 C 
ATOM      3  C   UNL     1      -1.284  -3.876   1.405  0.00  0.00    -0.015 A 
ATOM      4  C   UNL     1      -0.829  -4.782   2.436  0.00  0.00    +0.003 A 
ATOM      5  C   UNL     1      -0.095  -4.594   3.612  0.00  0.00    +0.010 A 
ATOM      6  C   UNL     1       0.160  -5.709   4.370  0.00  0.00    +0.001 A 
ATOM      7  C   UNL     1      -0.283  -6.968   3.999  0.00  0.00    +0.002 A 
ATOM      8  C   UNL     1      -1.011  -7.184   2.842  0.00  0.00    +0.026 A 
ATOM      9  C   UNL     1      -1.285  -6.070   2.052  0.00  0.00    +0.047 A 
ATOM     10  N   UNL     1      -1.962  -5.928   0.874  0.00  0.00    -0.356 N 
ATOM     11  H   UNL     1      -2.383  -6.649   0.381  0.00  0.00    +0.166 HD
ATOM     12  C   UNL     1      -1.957  -4.613   0.493  0.00  0.00    +0.042 A 
ATOM     13  C   UNL     1      -2.591  -4.017  -0.741  0.00  0.00    +0.132 C 
ATOM     14  N   UNL     1      -2.697  -2.561  -0.555  0.00  0.00    -0.292 NA
ATOM     15  H   UNL     1      -3.420  -2.333   0.111  0.00  0.00    +0.124 HD
ENDROOT
BRANCH  13  16
ATOM     16  C   UNL     1      -1.734  -4.316  -1.945  0.00  0.00    -0.023 A 
ATOM     17  C   UNL     1      -1.759  -3.471  -3.038  0.00  0.00    +0.006 A 
ATOM     18  C   UNL     1      -0.974  -3.745  -4.142  0.00  0.00    +0.003 A 
ATOM     19  C   UNL     1      -0.163  -4.865  -4.152  0.00  0.00    +0.033 A 
ATOM     20  C   UNL     1      -0.137  -5.710  -3.058  0.00  0.00    +0.127 A 
ATOM     21  C   UNL     1      -0.920  -5.433  -1.953  0.00  0.00    +0.038 A 
BRANCH  20  22
ATOM     22  N   UNL     1       0.730  -6.909  -3.070  0.00  0.00    +0.056 N 
ATOM     23  O   UNL     1       1.417  -7.149  -4.035  0.00  0.00    -0.126 OA
ATOM     24  O   UNL     1       0.753  -7.648  -2.113  0.00  0.00    -0.126 OA
ENDBRANCH  20  22
ENDBRANCH  13  16
BRANCH   1  25
ATOM     25  C   UNL     1      -1.490  -0.474  -0.245  0.00  0.00    +0.324 C 
ATOM     26  O   UNL     1      -2.567   0.074  -0.247  0.00  0.00    -0.249 OA
BRANCH  25  28
ATOM     27  C   UNL     1      -0.517   1.674  -0.407  0.00  0.00    +0.280 C 
ATOM     28  O   UNL     1      -0.366   0.255  -0.324  0.00  0.00    -0.467 OA
ENDBRANCH  25  28
ENDBRANCH   1  25
TORSDOF 4
