REMARK  Name = ZINC04984242
REMARK  7 active torsions:
REMARK  status: ('A' for Active; 'I' for Inactive)
REMARK    1  A    between atoms: C_1  and  C_2
REMARK    2  A    between atoms: C_2  and  C_3
REMARK    3  A    between atoms: C_3  and  O_4
REMARK    4  A    between atoms: O_4  and  C_5
REMARK    5  A    between atoms: C_10  and  C_11
REMARK    6  A    between atoms: N_13  and  C_14
REMARK    7  A    between atoms: C_15  and  C_23
REMARK                            x       y       z     vdW  Elec       q    Type
REMARK                         _______ _______ _______ _____ _____    ______ ____
ROOT
ATOM      1  C   UNL     1       1.209   0.255  -4.763  0.00  0.00    +0.252 C 
ATOM      2  O   UNL     1       1.691  -0.075  -3.696  0.00  0.00    -0.270 OA
ATOM      3  N   UNL     1       1.789  -0.138  -5.915  0.00  0.00    -0.275 N 
ATOM      4  H   UNL     1       1.404   0.126  -6.765  0.00  0.00    +0.156 HD
ENDROOT
BRANCH   3   5
ATOM      5  C   UNL     1       2.933  -0.918  -5.883  0.00  0.00    +0.085 A 
ATOM      6  C   UNL     1       3.664  -1.420  -6.951  0.00  0.00    +0.068 A 
ATOM      7  C   UNL     1       4.841  -2.215  -6.644  0.00  0.00    -0.023 A 
ATOM      8  C   UNL     1       5.091  -2.389  -5.328  0.00  0.00    -0.004 A 
ATOM      9  S   UNL     1       3.796  -1.508  -4.502  0.00  0.00    -0.077 S 
ATOM     10  C   UNL     1       6.220  -3.160  -4.717  0.00  0.00    +0.043 C 
ATOM     11  C   UNL     1       6.848  -4.042  -5.806  0.00  0.00    +0.005 C 
ATOM     12  C   UNL     1       7.087  -3.189  -7.055  0.00  0.00    +0.005 C 
ATOM     13  C   UNL     1       5.749  -2.829  -7.703  0.00  0.00    +0.037 C 
BRANCH   6  14
ATOM     14  C   UNL     1       3.265  -1.155  -8.337  0.00  0.00    +0.244 C 
ATOM     15  O   UNL     1       3.693  -0.174  -8.916  0.00  0.00    -0.270 OA
ATOM     16  N   UNL     1       2.425  -1.998  -8.969  0.00  0.00    -0.325 N 
ATOM     17  H   UNL     1       2.084  -2.780  -8.507  0.00  0.00    +0.145 HD
ATOM     18  H   UNL     1       2.161  -1.823  -9.886  0.00  0.00    +0.145 HD
ENDBRANCH   6  14
ENDBRANCH   3   5
BRANCH   1  24
ATOM     19  C   UNL     1      -0.616   1.496  -3.601  0.00  0.00    +0.133 A 
ATOM     20  C   UNL     1      -1.758   2.281  -3.644  0.00  0.00    +0.046 A 
ATOM     21  C   UNL     1      -2.298   2.651  -4.860  0.00  0.00    +0.004 A 
ATOM     22  C   UNL     1      -1.705   2.243  -6.044  0.00  0.00    +0.001 A 
ATOM     23  C   UNL     1      -0.569   1.463  -6.019  0.00  0.00    +0.017 A 
ATOM     24  C   UNL     1      -0.009   1.085  -4.796  0.00  0.00    +0.079 A 
BRANCH  19  25
ATOM     25  O   UNL     1      -0.084   1.132  -2.407  0.00  0.00    -0.491 OA
BRANCH  25  26
ATOM     26  C   UNL     1      -0.753   1.593  -1.232  0.00  0.00    +0.229 C 
BRANCH  26  28
ATOM     27  C   UNL     1      -0.729   1.579   1.267  0.00  0.00    +0.007 C 
ATOM     28  C   UNL     1      -0.013   1.086   0.008  0.00  0.00    +0.038 C 
ENDBRANCH  26  28
ENDBRANCH  25  26
ENDBRANCH  19  25
ENDBRANCH   1  24
TORSDOF 6
