REMARK  Name = ZINC05188240
REMARK  3 active torsions:
REMARK  status: ('A' for Active; 'I' for Inactive)
REMARK    1  A    between atoms: C_3  and  C_6
REMARK    2  A    between atoms: N_8  and  N_19
REMARK    3  A    between atoms: C_20  and  C_21
REMARK                            x       y       z     vdW  Elec       q    Type
REMARK                         _______ _______ _______ _____ _____    ______ ____
ROOT
ATOM      1  C   UNL     1       3.598  -1.746  -0.252  0.00  0.00    +0.307 C 
ATOM      2  O   UNL     1       4.106  -2.838  -0.430  0.00  0.00    -0.264 OA
ATOM      3  N   UNL     1       2.280  -1.651   0.011  0.00  0.00    -0.129 N 
ATOM      4  C   UNL     1       1.661  -0.411   0.009  0.00  0.00    +0.189 A 
ATOM      5  N   UNL     1       2.204   0.780  -0.085  0.00  0.00    -0.223 NA
ATOM      6  C   UNL     1       1.471   1.915  -0.073  0.00  0.00    +0.081 A 
ATOM      7  C   UNL     1       1.928   3.250  -0.165  0.00  0.00    +0.032 A 
ATOM      8  C   UNL     1       1.045   4.297  -0.137  0.00  0.00    +0.040 A 
ATOM      9  C   UNL     1      -0.324   4.088  -0.017  0.00  0.00    +0.125 A 
ATOM     10  C   UNL     1      -0.805   2.794   0.081  0.00  0.00    +0.055 A 
ATOM     11  C   UNL     1       0.074   1.740   0.048  0.00  0.00    +0.044 A 
ATOM     12  S   UNL     1      -0.081  -0.028   0.135  0.00  0.00    -0.050 S 
ATOM     13  F   UNL     1      -1.175   5.137   0.009  0.00  0.00    -0.205 F 
ENDROOT
BRANCH   1  16
ATOM     14  C   UNL     1       6.143   0.862  -0.461  0.00  0.00    +0.042 A 
ATOM     15  C   UNL     1       5.782  -0.494  -0.423  0.00  0.00    +0.054 A 
ATOM     16  C   UNL     1       4.420  -0.535  -0.322  0.00  0.00    +0.191 A 
ATOM     17  O   UNL     1       3.965   0.735  -0.305  0.00  0.00    -0.458 OA
ATOM     18  C   UNL     1       5.001   1.580  -0.383  0.00  0.00    +0.196 A 
ENDBRANCH   1  16
BRANCH   3  19
ATOM     19  N   UNL     1       1.535  -2.805   0.286  0.00  0.00    -0.177 NA
ATOM     20  C   UNL     1       2.138  -3.950   0.426  0.00  0.00    +0.146 C 
BRANCH  20  21
ATOM     21  C   UNL     1       1.352  -5.183   0.537  0.00  0.00    +0.032 A 
ATOM     22  C   UNL     1       1.792  -6.487   0.685  0.00  0.00    +0.017 A 
ATOM     23  C   UNL     1       0.852  -7.488   0.771  0.00  0.00    +0.008 A 
ATOM     24  C   UNL     1      -0.467  -7.169   0.700  0.00  0.00    +0.046 A 
ATOM     25  S   UNL     1      -0.420  -5.395   0.510  0.00  0.00    -0.096 S 
ENDBRANCH  20  21
ENDBRANCH   3  19
TORSDOF 3
