REMARK  Name = ZINC35804785
REMARK  5 active torsions:
REMARK  status: ('A' for Active; 'I' for Inactive)
REMARK    1  A    between atoms: C_1  and  C_2
REMARK    2  A    between atoms: C_2  and  C_3
REMARK    3  A    between atoms: N_25  and  C_28
REMARK    4  A    between atoms: C_31  and  O_34
REMARK    5  A    between atoms: O_34  and  C_35
REMARK                            x       y       z     vdW  Elec       q    Type
REMARK                         _______ _______ _______ _____ _____    ______ ____
ROOT
ATOM      1  C   UNL     1       1.026   0.233   1.339  0.00  0.00    -0.026 A 
ATOM      2  C   UNL     1       2.321  -0.237   1.255  0.00  0.00    +0.005 A 
ATOM      3  C   UNL     1       2.875  -0.947   2.304  0.00  0.00    +0.001 A 
ATOM      4  C   UNL     1       2.126  -1.189   3.443  0.00  0.00    +0.004 A 
ATOM      5  C   UNL     1       0.834  -0.724   3.530  0.00  0.00    -0.027 A 
ATOM      6  C   UNL     1       0.268  -0.002   2.483  0.00  0.00    +0.039 A 
ATOM      7  N   UNL     1      -1.040   0.368   2.803  0.00  0.00    -0.286 N 
ATOM      8  C   UNL     1      -1.405  -0.061   4.026  0.00  0.00    +0.212 C 
ATOM      9  O   UNL     1      -2.479   0.111   4.564  0.00  0.00    -0.277 OA
ATOM     10  C   UNL     1      -0.227  -0.809   4.592  0.00  0.00    +0.053 C 
ATOM     11  C   UNL     1       0.239  -0.170   5.905  0.00  0.00    +0.089 C 
ATOM     12  C   UNL     1       0.687  -1.366   6.788  0.00  0.00    +0.074 C 
ATOM     13  C   UNL     1       0.466  -2.616   5.919  0.00  0.00    -0.054 C 
ATOM     14  N   UNL     1      -0.564  -2.208   4.907  0.00  0.00    +0.395 N 
ATOM     15  C   UNL     1      -1.856  -2.247   5.630  0.00  0.00    -0.076 C 
ATOM     16  C   UNL     1      -1.757  -3.468   6.567  0.00  0.00    -0.020 C 
ATOM     17  C   UNL     1      -0.210  -3.711   6.765  0.00  0.00    -0.016 C 
ATOM     18  C   UNL     1      -0.305  -1.348   7.929  0.00  0.00    +0.228 C 
ATOM     19  O   UNL     1      -0.320  -2.127   8.858  0.00  0.00    -0.275 OA
ATOM     20  N   UNL     1      -1.165  -0.337   7.754  0.00  0.00    -0.210 N 
ATOM     21  C   UNL     1      -0.949   0.403   6.644  0.00  0.00    +0.229 C 
ATOM     22  O   UNL     1      -1.596   1.366   6.290  0.00  0.00    -0.275 OA
ATOM     23  H   UNL     1      -1.619   0.876   2.213  0.00  0.00    +0.155 HD
ATOM     24  H   UNL     1      -0.553  -2.799   4.090  0.00  0.00    -0.079 HD
ENDROOT
BRANCH  20  25
ATOM     25  C   UNL     1      -2.206  -0.062   8.654  0.00  0.00    +0.044 A 
ATOM     26  C   UNL     1      -1.915   0.387   9.935  0.00  0.00    +0.027 A 
ATOM     27  C   UNL     1      -2.940   0.658  10.820  0.00  0.00    +0.047 A 
ATOM     28  C   UNL     1      -4.260   0.481  10.430  0.00  0.00    +0.120 A 
ATOM     29  C   UNL     1      -4.550   0.032   9.150  0.00  0.00    +0.047 A 
ATOM     30  C   UNL     1      -3.526  -0.234   8.262  0.00  0.00    +0.027 A 
BRANCH  28  31
ATOM     31  O   UNL     1      -5.268   0.748  11.302  0.00  0.00    -0.495 OA
ATOM     32  C   UNL     1      -6.602   0.544  10.832  0.00  0.00    +0.277 C 
ENDBRANCH  28  31
ENDBRANCH  20  25
BRANCH   1  34
ATOM     33  C   UNL     1       0.611   2.506   0.439  0.00  0.00    +0.009 C 
ATOM     34  C   UNL     1       0.432   1.007   0.190  0.00  0.00    +0.033 C 
ENDBRANCH   1  34
TORSDOF 3
