REMARK  Name = ZINC59373326
REMARK  6 active torsions:
REMARK  status: ('A' for Active; 'I' for Inactive)
REMARK    1  A    between atoms: C_1  and  C_2
REMARK    2  A    between atoms: C_2  and  C_4
REMARK    3  A    between atoms: C_2  and  S_23
REMARK    4  A    between atoms: N_6  and  C_7
REMARK    5  A    between atoms: C_15  and  C_20
REMARK    6  A    between atoms: S_23  and  C_24
REMARK                            x       y       z     vdW  Elec       q    Type
REMARK                         _______ _______ _______ _____ _____    ______ ____
ROOT
ATOM      1  C   UNL     1       2.821  -0.286   2.738  0.00  0.00    +0.105 C 
ATOM      2  C   UNL     1       4.246  -0.783   2.506  0.00  0.00    +0.027 C 
ATOM      3  C   UNL     1       4.978  -0.784   3.854  0.00  0.00    +0.008 C 
ATOM      4  C   UNL     1       5.190   0.665   4.284  0.00  0.00    +0.054 C 
ATOM      5  C   UNL     1       3.896   1.437   4.219  0.00  0.00    +0.024 A 
ATOM      6  C   UNL     1       2.826   1.006   3.512  0.00  0.00    -0.007 A 
ATOM      7  C   UNL     1       1.655   1.776   3.481  0.00  0.00    +0.025 A 
ATOM      8  C   UNL     1       1.601   2.976   4.181  0.00  0.00    +0.101 A 
ATOM      9  C   UNL     1       2.746   3.383   4.914  0.00  0.00    +0.261 A 
ATOM     10  O   UNL     1       2.733   4.428   5.542  0.00  0.00    -0.267 OA
ATOM     11  N   UNL     1       3.841   2.610   4.911  0.00  0.00    -0.325 N 
ATOM     12  H   UNL     1       4.619   2.895   5.417  0.00  0.00    +0.169 HD
ENDROOT
BRANCH   8  13
ATOM     13  C   UNL     1       0.386   3.804   4.163  0.00  0.00    +0.247 C 
ATOM     14  O   UNL     1      -0.621   3.394   3.616  0.00  0.00    -0.270 OA
ATOM     15  N   UNL     1       0.387   5.016   4.752  0.00  0.00    -0.325 N 
ATOM     16  H   UNL     1       1.167   5.314   5.246  0.00  0.00    +0.145 HD
ATOM     17  H   UNL     1      -0.392   5.590   4.681  0.00  0.00    +0.145 HD
ENDBRANCH   8  13
BRANCH   1  20
ATOM     18  C   UNL     1       0.827  -0.140   1.345  0.00  0.00    +0.227 C 
ATOM     19  O   UNL     1       0.159  -0.380   2.328  0.00  0.00    -0.275 OA
ATOM     20  N   UNL     1       2.169  -0.071   1.443  0.00  0.00    -0.308 N 
ATOM     21  H   UNL     1       2.704   0.122   0.657  0.00  0.00    +0.149 HD
BRANCH  18  23
ATOM     22  C   UNL     1       0.061   1.583  -0.265  0.00  0.00    +0.029 C 
ATOM     23  C   UNL     1       0.156   0.082   0.014  0.00  0.00    +0.134 C 
BRANCH  23  24
ATOM     24  S   UNL     1      -1.510  -0.633   0.050  0.00  0.00    -0.111 S 
BRANCH  24  25
ATOM     25  C   UNL     1      -1.228  -2.372   0.067  0.00  0.00    +0.028 A 
ATOM     26  C   UNL     1       0.070  -2.866   0.077  0.00  0.00    +0.036 A 
ATOM     27  C   UNL     1       0.288  -4.231   0.090  0.00  0.00    +0.042 A 
ATOM     28  C   UNL     1      -0.786  -5.105   0.094  0.00  0.00    +0.021 A 
ATOM     29  C   UNL     1      -2.079  -4.616   0.083  0.00  0.00    +0.022 A 
ATOM     30  C   UNL     1      -2.304  -3.253   0.075  0.00  0.00    +0.054 A 
ATOM     31 CL   UNL     1      -3.929  -2.640   0.070  0.00  0.00    -0.082 Cl
ATOM     32 CL   UNL     1       1.910  -4.850   0.103  0.00  0.00    -0.084 Cl
ENDBRANCH  24  25
ENDBRANCH  23  24
ENDBRANCH  18  23
ENDBRANCH   1  20
TORSDOF 5
