REMARK  Name = ZINC24525670
REMARK  6 active torsions:
REMARK  status: ('A' for Active; 'I' for Inactive)
REMARK    1  A    between atoms: C_1  and  C_2
REMARK    2  A    between atoms: C_7  and  N_8
REMARK    3  A    between atoms: C_12  and  S_13
REMARK    4  A    between atoms: S_13  and  C_14
REMARK    5  A    between atoms: C_14  and  C_15
REMARK    6  A    between atoms: C_23  and  C_26
REMARK                            x       y       z     vdW  Elec       q    Type
REMARK                         _______ _______ _______ _____ _____    ______ ____
ROOT
ATOM      1  S   UNL     1       2.754   1.713  -0.015  0.00  0.00    -0.081 S 
ENDROOT
BRANCH   1   6
ATOM      2  N   UNL     1      -0.017   1.398   0.010  0.00  0.00    -0.294 N 
ATOM      3  C   UNL     1      -1.136   2.203   0.019  0.00  0.00    +0.113 A 
ATOM      4  C   UNL     1      -0.702   3.475   0.027  0.00  0.00    +0.131 A 
ATOM      5  N   UNL     1       0.641   3.466   0.014  0.00  0.00    -0.230 NA
ATOM      6  C   UNL     1       1.068   2.224   0.004  0.00  0.00    +0.174 A 
BRANCH   2  13
ATOM      7  C   UNL     1       1.084   0.054   2.264  0.00  0.00    +0.046 C 
ATOM      8  C   UNL     1       0.529  -0.698   1.082  0.00  0.00    -0.027 A 
ATOM      9  C   UNL     1       0.546  -2.080   1.072  0.00  0.00    +0.005 A 
ATOM     10  C   UNL     1       0.038  -2.771  -0.013  0.00  0.00    +0.000 A 
ATOM     11  C   UNL     1      -0.488  -2.082  -1.090  0.00  0.00    +0.002 A 
ATOM     12  C   UNL     1      -0.512  -0.701  -1.083  0.00  0.00    +0.026 A 
ATOM     13  C   UNL     1       0.002  -0.004   0.002  0.00  0.00    +0.051 A 
ENDBRANCH   2  13
ENDBRANCH   1   6
BRANCH   1  14
ATOM     14  C   UNL     1       3.572   3.328  -0.014  0.00  0.00    +0.133 C 
BRANCH  14  15
ATOM     15  C   UNL     1       5.066   3.134  -0.029  0.00  0.00    +0.059 A 
ATOM     16  C   UNL     1       5.779   3.359  -1.191  0.00  0.00    +0.094 A 
ATOM     17  C   UNL     1       7.167   3.172  -1.180  0.00  0.00    +0.259 A 
ATOM     18  O   UNL     1       7.825   3.362  -2.191  0.00  0.00    -0.267 OA
ATOM     19  N   UNL     1       7.765   2.778  -0.036  0.00  0.00    -0.268 N 
ATOM     20  C   UNL     1       9.113   2.592  -0.009  0.00  0.00    +0.096 A 
ATOM     21  C   UNL     1       9.735   2.198   1.125  0.00  0.00    +0.019 A 
ATOM     22  C   UNL     1       8.992   1.975   2.293  0.00  0.00    +0.008 A 
ATOM     23  C   UNL     1       7.642   2.158   2.277  0.00  0.00    -0.008 A 
ATOM     24  C   UNL     1       7.014   2.570   1.088  0.00  0.00    +0.143 A 
ATOM     25  N   UNL     1       5.695   2.754   1.072  0.00  0.00    -0.233 NA
ATOM     26  C   UNL     1       6.829   1.923   3.524  0.00  0.00    +0.047 C 
ENDBRANCH  14  15
ENDBRANCH   1  14
TORSDOF 4
