REMARK  Name = ZINC13976918
REMARK  9 active torsions:
REMARK  status: ('A' for Active; 'I' for Inactive)
REMARK    1  A    between atoms: C_5  and  O_7
REMARK    2  A    between atoms: O_7  and  C_8
REMARK    3  A    between atoms: C_8  and  C_9
REMARK    4  A    between atoms: N_11  and  C_12
REMARK    5  A    between atoms: C_12  and  N_14
REMARK    6  A    between atoms: N_14  and  N_15
REMARK    7  A    between atoms: C_16  and  C_18
REMARK    8  A    between atoms: C_21  and  N_24
REMARK    9  A    between atoms: C_25  and  C_27
REMARK                            x       y       z     vdW  Elec       q    Type
REMARK                         _______ _______ _______ _____ _____    ______ ____
ROOT
ATOM      1  N   UNL     1       1.497  -4.851  -0.038  0.00  0.00    -0.231 N 
ATOM      2  C   UNL     1       0.299  -4.242   0.073  0.00  0.00    +0.260 C 
ATOM      3  O   UNL     1      -0.712  -4.907   0.187  0.00  0.00    -0.269 OA
ATOM      4  H   UNL     1       2.304  -4.321  -0.129  0.00  0.00    +0.173 HD
ENDROOT
BRANCH   2   5
ATOM      5  C   UNL     1       0.217  -2.768   0.056  0.00  0.00    +0.038 A 
ATOM      6  C   UNL     1      -1.024  -2.135   0.171  0.00  0.00    +0.015 A 
ATOM      7  C   UNL     1      -1.098  -0.761   0.155  0.00  0.00    +0.024 A 
ATOM      8  C   UNL     1       0.061  -0.002   0.025  0.00  0.00    +0.033 A 
ATOM      9  C   UNL     1       1.297  -0.629  -0.096  0.00  0.00    +0.024 A 
ATOM     10  C   UNL     1       1.379  -2.003  -0.075  0.00  0.00    +0.015 A 
BRANCH   8  11
ATOM     11  N   UNL     1      -0.017   1.390   0.010  0.00  0.00    -0.285 N 
ATOM     12  C   UNL     1       0.961   2.126   0.573  0.00  0.00    +0.220 C 
ATOM     13  O   UNL     1       1.949   1.582   1.020  0.00  0.00    -0.275 OA
ATOM     14  H   UNL     1      -0.773   1.829  -0.410  0.00  0.00    +0.155 HD
BRANCH  12  15
ATOM     15  C   UNL     1       0.828   3.625   0.649  0.00  0.00    +0.075 C 
ATOM     16  C   UNL     1       0.702   4.198  -0.764  0.00  0.00    +0.013 C 
ATOM     17  C   UNL     1       0.566   5.720  -0.687  0.00  0.00    +0.001 C 
ATOM     18  C   UNL     1       1.804   6.309  -0.007  0.00  0.00    +0.000 C 
ATOM     19  C   UNL     1       1.930   5.736   1.407  0.00  0.00    +0.001 C 
ATOM     20  C   UNL     1       2.065   4.214   1.330  0.00  0.00    +0.013 C 
ENDBRANCH  12  15
ENDBRANCH   8  11
ENDBRANCH   2   5
BRANCH   1  21
ATOM     21  N   UNL     1       1.575  -6.250  -0.022  0.00  0.00    -0.245 N 
ATOM     22  H   UNL     1       0.768  -6.780   0.069  0.00  0.00    +0.172 HD
BRANCH  21  23
ATOM     23  C   UNL     1       2.772  -6.859  -0.133  0.00  0.00    +0.153 C 
ATOM     24  S   UNL     1       2.868  -8.568  -0.113  0.00  0.00    -0.017 S 
BRANCH  23  27
ATOM     25  C   UNL     1       5.091  -6.731  -0.371  0.00  0.00    +0.256 C 
ATOM     26  O   UNL     1       5.159  -7.942  -0.357  0.00  0.00    -0.272 OA
ATOM     27  N   UNL     1       3.894  -6.122  -0.260  0.00  0.00    -0.264 N 
ATOM     28  H   UNL     1       3.840  -5.154  -0.271  0.00  0.00    +0.157 HD
BRANCH  25  29
ATOM     29  C   UNL     1       6.345  -5.908  -0.512  0.00  0.00    +0.325 C 
BRANCH  29  30
ATOM     30  O   UNL     1       7.476  -6.775  -0.612  0.00  0.00    -0.481 OA
BRANCH  30  35
ATOM     31  C   UNL     1      10.039  -4.211  -0.917  0.00  0.00    +0.004 A 
ATOM     32  C   UNL     1      11.175  -4.992  -1.019  0.00  0.00    +0.002 A 
ATOM     33  C   UNL     1      11.074  -6.371  -0.985  0.00  0.00    +0.023 A 
ATOM     34  C   UNL     1       9.836  -6.971  -0.849  0.00  0.00    +0.083 A 
ATOM     35  C   UNL     1       8.695  -6.188  -0.746  0.00  0.00    +0.139 A 
ATOM     36  C   UNL     1       8.799  -4.806  -0.786  0.00  0.00    +0.047 A 
ATOM     37 CL   UNL     1       9.710  -8.702  -0.806  0.00  0.00    -0.080 Cl
ENDBRANCH  30  35
ENDBRANCH  29  30
ENDBRANCH  25  29
ENDBRANCH  23  27
ENDBRANCH  21  23
ENDBRANCH   1  21
TORSDOF 9
