REMARK  Name = ZINC59015395
REMARK  8 active torsions:
REMARK  status: ('A' for Active; 'I' for Inactive)
REMARK    1  A    between atoms: C_3  and  O_31
REMARK    2  A    between atoms: C_6  and  C_7
REMARK    3  A    between atoms: N_8  and  N_9
REMARK    4  A    between atoms: C_12  and  S_15
REMARK    5  A    between atoms: S_15  and  C_16
REMARK    6  A    between atoms: C_16  and  C_17
REMARK    7  A    between atoms: N_19  and  C_20
REMARK    8  A    between atoms: C_24  and  C_26
REMARK                            x       y       z     vdW  Elec       q    Type
REMARK                         _______ _______ _______ _____ _____    ______ ____
ROOT
ATOM      1  N   UNL     1      -2.446  -2.778   0.037  0.00  0.00    -0.205 N 
ATOM      2  C   UNL     1      -2.425  -4.160   0.026  0.00  0.00    +0.232 A 
ATOM      3  N   UNL     1      -1.348  -4.918   0.009  0.00  0.00    -0.186 NA
ATOM      4  C   UNL     1      -1.705  -6.207   0.003  0.00  0.00    +0.211 A 
ATOM      5  N   UNL     1      -3.014  -6.287   0.017  0.00  0.00    -0.144 NA
ATOM      6  N   UNL     1      -3.505  -4.971   0.038  0.00  0.00    -0.245 N 
ATOM      7  H   UNL     1      -3.293  -2.306   0.055  0.00  0.00    +0.177 HD
ATOM      8  H   UNL     1      -4.435  -4.699   0.056  0.00  0.00    +0.192 HD
ENDROOT
BRANCH   1  10
ATOM      9  C   UNL     1      -1.264  -0.761   0.033  0.00  0.00    +0.138 C 
ATOM     10  N   UNL     1      -1.244  -2.059   0.023  0.00  0.00    -0.188 NA
BRANCH   9  16
ATOM     11  C   UNL     1      -0.018   1.393   0.029  0.00  0.00    +0.013 A 
ATOM     12  C   UNL     1       1.167   2.096   0.015  0.00  0.00    +0.046 A 
ATOM     13  C   UNL     1       2.379   1.419  -0.010  0.00  0.00    +0.117 A 
ATOM     14  C   UNL     1       2.403   0.030  -0.021  0.00  0.00    +0.046 A 
ATOM     15  C   UNL     1       1.223  -0.682  -0.007  0.00  0.00    +0.013 A 
ATOM     16  C   UNL     1       0.001  -0.004   0.018  0.00  0.00    -0.005 A 
BRANCH  13  17
ATOM     17  O   UNL     1       3.545   2.116  -0.024  0.00  0.00    -0.507 OA
ATOM     18  H   UNL     1       3.897   2.312   0.855  0.00  0.00    +0.292 HD
ENDBRANCH  13  17
ENDBRANCH   9  16
ENDBRANCH   1  10
BRANCH   4  19
ATOM     19  S   UNL     1      -0.596  -7.576  -0.020  0.00  0.00    -0.075 S 
BRANCH  19  20
ATOM     20  C   UNL     1      -1.687  -9.025  -0.019  0.00  0.00    +0.173 C 
BRANCH  20  21
ATOM     21  C   UNL     1      -0.855 -10.281  -0.038  0.00  0.00    +0.227 C 
ATOM     22  O   UNL     1       0.356 -10.206  -0.051  0.00  0.00    -0.275 OA
ATOM     23  N   UNL     1      -1.455 -11.487  -0.041  0.00  0.00    -0.285 N 
ATOM     24  H   UNL     1      -2.420 -11.549   0.038  0.00  0.00    +0.155 HD
BRANCH  23  25
ATOM     25  C   UNL     1      -0.687 -12.652  -0.156  0.00  0.00    +0.034 A 
ATOM     26  C   UNL     1       0.569 -12.717   0.434  0.00  0.00    +0.025 A 
ATOM     27  C   UNL     1       1.325 -13.867   0.319  0.00  0.00    +0.022 A 
ATOM     28  C   UNL     1       0.833 -14.953  -0.385  0.00  0.00    +0.053 A 
ATOM     29  C   UNL     1      -0.417 -14.890  -0.974  0.00  0.00    +0.075 A 
ATOM     30  C   UNL     1      -1.181 -13.744  -0.856  0.00  0.00    +0.037 A 
ATOM     31 CL   UNL     1       1.787 -16.396  -0.529  0.00  0.00    -0.083 Cl
BRANCH  29  32
ATOM     32  C   UNL     1      -0.950 -16.074  -1.739  0.00  0.00    +0.419 C 
ATOM     33  F   UNL     1      -2.222 -15.773  -2.238  0.00  0.00    -0.166 F 
ATOM     34  F   UNL     1      -0.089 -16.367  -2.803  0.00  0.00    -0.166 F 
ATOM     35  F   UNL     1      -1.032 -17.180  -0.887  0.00  0.00    -0.166 F 
ENDBRANCH  29  32
ENDBRANCH  23  25
ENDBRANCH  20  21
ENDBRANCH  19  20
ENDBRANCH   4  19
TORSDOF 8
