REMARK  Name = ZINC16097302
REMARK  9 active torsions:
REMARK  status: ('A' for Active; 'I' for Inactive)
REMARK    1  A    between atoms: C_1  and  C_2
REMARK    2  A    between atoms: C_2  and  C_29
REMARK    3  A    between atoms: N_5  and  N_9
REMARK    4  A    between atoms: C_10  and  C_12
REMARK    5  A    between atoms: C_14  and  S_23
REMARK    6  A    between atoms: C_17  and  N_18
REMARK    7  A    between atoms: S_23  and  N_26
REMARK    8  A    between atoms: N_26  and  C_27
REMARK    9  A    between atoms: N_26  and  C_28
REMARK                            x       y       z     vdW  Elec       q    Type
REMARK                         _______ _______ _______ _____ _____    ______ ____
ROOT
ATOM      1  N   UNL     1       3.554   0.929  -0.163  0.00  0.00    -0.220 N 
ATOM      2  C   UNL     1       4.190   0.477  -1.261  0.00  0.00    +0.263 C 
ATOM      3  O   UNL     1       3.564   0.259  -2.281  0.00  0.00    -0.269 OA
ATOM      4  H   UNL     1       4.053   1.102   0.650  0.00  0.00    +0.174 HD
ENDROOT
BRANCH   1   9
ATOM      5  C   UNL     1      -0.562   2.756   0.949  0.00  0.00    +0.047 C 
ATOM      6  C   UNL     1       0.103   2.116  -0.272  0.00  0.00    +0.137 C 
ATOM      7  C   UNL     1       1.598   2.366  -0.257  0.00  0.00    +0.267 C 
ATOM      8  O   UNL     1       2.161   3.439  -0.294  0.00  0.00    -0.271 OA
ATOM      9  N   UNL     1       2.170   1.148  -0.195  0.00  0.00    -0.137 N 
ATOM     10  C   UNL     1       1.254   0.173  -0.169  0.00  0.00    +0.327 C 
ATOM     11  O   UNL     1       1.528  -1.010  -0.113  0.00  0.00    -0.251 OA
ATOM     12  N   UNL     1      -0.004   0.648  -0.211  0.00  0.00    -0.280 N 
ATOM     13  H   UNL     1      -0.821   0.126  -0.202  0.00  0.00    +0.152 HD
BRANCH   6  14
ATOM     14  C   UNL     1      -0.510   2.639  -1.546  0.00  0.00    -0.015 A 
ATOM     15  C   UNL     1      -0.007   3.784  -2.135  0.00  0.00    +0.006 A 
ATOM     16  C   UNL     1      -0.566   4.262  -3.306  0.00  0.00    +0.000 A 
ATOM     17  C   UNL     1      -1.633   3.599  -3.882  0.00  0.00    +0.000 A 
ATOM     18  C   UNL     1      -2.139   2.457  -3.290  0.00  0.00    +0.000 A 
ATOM     19  C   UNL     1      -1.578   1.978  -2.122  0.00  0.00    +0.006 A 
ENDBRANCH   6  14
ENDBRANCH   1   9
BRANCH   2  20
ATOM     20  C   UNL     1       5.646   0.246  -1.227  0.00  0.00    +0.061 A 
ATOM     21  C   UNL     1       6.388   0.601  -0.097  0.00  0.00    +0.043 A 
ATOM     22  C   UNL     1       7.747   0.383  -0.071  0.00  0.00    +0.106 A 
ATOM     23  C   UNL     1       8.386  -0.187  -1.162  0.00  0.00    +0.030 A 
ATOM     24  C   UNL     1       7.668  -0.541  -2.285  0.00  0.00    +0.026 A 
ATOM     25  C   UNL     1       6.295  -0.335  -2.327  0.00  0.00    +0.042 A 
BRANCH  25  26
ATOM     26  N   UNL     1       5.569  -0.698  -3.454  0.00  0.00    -0.329 N 
ATOM     27  C   UNL     1       6.149  -0.091  -4.679  0.00  0.00    +0.105 C 
ATOM     28  C   UNL     1       5.590  -0.983  -5.816  0.00  0.00    +0.020 C 
ATOM     29  C   UNL     1       5.611  -2.396  -5.189  0.00  0.00    +0.020 C 
ATOM     30  C   UNL     1       5.616  -2.161  -3.667  0.00  0.00    +0.105 C 
ENDBRANCH  25  26
BRANCH  22  31
ATOM     31  S   UNL     1       8.680   0.830   1.355  0.00  0.00    +0.060 S 
ATOM     32  O   UNL     1      10.018   1.026   0.920  0.00  0.00    -0.153 OA
ATOM     33  O   UNL     1       7.940   1.842   2.023  0.00  0.00    -0.153 OA
BRANCH  31  34
ATOM     34  N   UNL     1       8.697  -0.486   2.361  0.00  0.00    -0.183 NA
ATOM     35  C   UNL     1       9.763  -1.483   2.244  0.00  0.00    +0.131 C 
ATOM     36  C   UNL     1       7.646  -0.652   3.368  0.00  0.00    +0.131 C 
ENDBRANCH  31  34
ENDBRANCH  22  31
ENDBRANCH   2  20
TORSDOF 6
