REMARK  Name = ZINC57929134
REMARK  6 active torsions:
REMARK  status: ('A' for Active; 'I' for Inactive)
REMARK    1  A    between atoms: C_1  and  C_2
REMARK    2  A    between atoms: C_2  and  C_4
REMARK    3  A    between atoms: C_2  and  N_13
REMARK    4  A    between atoms: N_6  and  C_7
REMARK    5  A    between atoms: C_21  and  C_24
REMARK    6  A    between atoms: C_21  and  C_25
REMARK                            x       y       z     vdW  Elec       q    Type
REMARK                         _______ _______ _______ _____ _____    ______ ____
ROOT
ATOM      1  N   UNL     1       0.638  -0.045   1.333  0.00  0.00    -0.256 N 
ATOM      2  C   UNL     1       1.737  -0.910   1.384  0.00  0.00    +0.058 A 
ATOM      3  C   UNL     1       2.320  -1.379   0.218  0.00  0.00    +0.025 A 
ATOM      4  C   UNL     1       3.411  -2.226   0.285  0.00  0.00    +0.002 A 
ATOM      5  C   UNL     1       3.925  -2.608   1.511  0.00  0.00    +0.002 A 
ATOM      6  C   UNL     1       3.347  -2.147   2.681  0.00  0.00    +0.025 A 
ATOM      7  C   UNL     1       2.253  -1.303   2.620  0.00  0.00    +0.050 A 
ATOM      8  N   UNL     1       1.635  -0.839   3.790  0.00  0.00    -0.329 N 
ATOM      9  C   UNL     1       0.949   0.460   3.742  0.00  0.00    +0.104 C 
ATOM     10  C   UNL     1       0.193   0.572   2.443  0.00  0.00    +0.243 C 
ATOM     11  O   UNL     1      -0.830   1.222   2.399  0.00  0.00    -0.273 OA
ATOM     12  C   UNL     1       1.980   1.587   3.827  0.00  0.00    +0.041 C 
ATOM     13  C   UNL     1      -0.027   0.567   4.916  0.00  0.00    +0.041 C 
ATOM     14  H   UNL     1       1.660  -1.360   4.608  0.00  0.00    +0.147 HD
ENDROOT
BRANCH   1  16
ATOM     15  C   UNL     1      -0.046   1.698  -0.240  0.00  0.00    +0.038 C 
ATOM     16  C   UNL     1      -0.033   0.196   0.053  0.00  0.00    +0.164 C 
BRANCH  16  17
ATOM     17  C   UNL     1      -1.449  -0.314   0.125  0.00  0.00    +0.238 C 
ATOM     18  O   UNL     1      -1.858  -0.829   1.144  0.00  0.00    -0.273 OA
ATOM     19  N   UNL     1      -2.262  -0.198  -0.944  0.00  0.00    -0.284 N 
ATOM     20  H   UNL     1      -1.917   0.153  -1.780  0.00  0.00    +0.155 HD
BRANCH  19  21
ATOM     21  C   UNL     1      -3.603  -0.584  -0.849  0.00  0.00    +0.033 A 
ATOM     22  C   UNL     1      -4.582   0.123  -1.535  0.00  0.00    +0.023 A 
ATOM     23  C   UNL     1      -5.905  -0.261  -1.438  0.00  0.00    +0.002 A 
ATOM     24  C   UNL     1      -6.256  -1.348  -0.659  0.00  0.00    +0.000 A 
ATOM     25  C   UNL     1      -5.284  -2.054   0.026  0.00  0.00    +0.002 A 
ATOM     26  C   UNL     1      -3.958  -1.679  -0.072  0.00  0.00    +0.023 A 
ENDBRANCH  19  21
ENDBRANCH  16  17
ENDBRANCH   1  16
TORSDOF 3
