REMARK  Name = ZINC65389346
REMARK  4 active torsions:
REMARK  status: ('A' for Active; 'I' for Inactive)
REMARK    1  A    between atoms: C_1  and  C_2
REMARK    2  A    between atoms: C_5  and  C_8
REMARK    3  A    between atoms: C_16  and  O_33
REMARK    4  A    between atoms: O_33  and  C_34
REMARK                            x       y       z     vdW  Elec       q    Type
REMARK                         _______ _______ _______ _____ _____    ______ ____
ROOT
ATOM      1  C   UNL     1       0.059  -4.251  -0.021  0.00  0.00    +0.248 C 
ATOM      2  O   UNL     1      -0.016  -4.854  -1.074  0.00  0.00    -0.270 OA
ATOM      3  N   UNL     1       0.176  -4.930   1.137  0.00  0.00    -0.277 N 
ATOM      4  C   UNL     1       0.166  -4.199   2.410  0.00  0.00    +0.114 C 
ATOM      5  C   UNL     1      -0.962  -4.745   3.305  0.00  0.00    +0.052 C 
ATOM      6  C   UNL     1      -0.874  -6.250   3.248  0.00  0.00    -0.034 C 
ATOM      7  C   UNL     1      -0.814  -7.164   4.207  0.00  0.00    +0.003 A 
ATOM      8  C   UNL     1      -0.929  -7.062   5.670  0.00  0.00    +0.055 A 
ATOM      9  C   UNL     1      -0.796  -8.220   6.375  0.00  0.00    +0.121 A 
ATOM     10  C   UNL     1      -0.559  -9.472   5.789  0.00  0.00    +0.047 A 
ATOM     11  C   UNL     1      -0.446  -9.681   4.453  0.00  0.00    +0.029 A 
ATOM     12  C   UNL     1      -0.582  -8.504   3.584  0.00  0.00    +0.043 A 
ATOM     13  N   UNL     1      -0.549  -8.403   2.289  0.00  0.00    -0.375 N 
ATOM     14  C   UNL     1      -0.818  -7.011   1.927  0.00  0.00    +0.143 C 
ATOM     15  C   UNL     1       0.305  -6.390   1.111  0.00  0.00    +0.165 C 
ATOM     16  C   UNL     1       0.304  -6.905  -0.292  0.00  0.00    +0.008 A 
ATOM     17  C   UNL     1      -0.643  -6.838  -1.291  0.00  0.00    +0.008 A 
ATOM     18  C   UNL     1      -0.321  -7.430  -2.507  0.00  0.00    +0.000 A 
ATOM     19  C   UNL     1       0.893  -8.057  -2.702  0.00  0.00    +0.002 A 
ATOM     20  C   UNL     1       1.851  -8.129  -1.702  0.00  0.00    +0.023 A 
ATOM     21  C   UNL     1       1.540  -7.538  -0.476  0.00  0.00    +0.039 A 
ATOM     22  N   UNL     1       2.296  -7.462   0.680  0.00  0.00    -0.283 N 
ATOM     23  C   UNL     1       1.649  -6.804   1.666  0.00  0.00    +0.248 C 
ATOM     24  O   UNL     1       2.067  -6.588   2.784  0.00  0.00    -0.273 OA
ATOM     25  H   UNL     1       3.186  -7.836   0.771  0.00  0.00    +0.155 HD
ATOM     26  H   UNL     1      -0.375  -9.128   1.668  0.00  0.00    +0.160 HD
ENDROOT
BRANCH   1  31
ATOM     27  C   UNL     1      -0.085   1.501   0.017  0.00  0.00    +0.044 C 
ATOM     28  C   UNL     1      -0.047  -0.005   0.007  0.00  0.00    -0.050 A 
ATOM     29  C   UNL     1      -1.001  -0.713  -0.702  0.00  0.00    +0.004 A 
ATOM     30  C   UNL     1      -0.972  -2.092  -0.715  0.00  0.00    +0.013 A 
ATOM     31  C   UNL     1       0.022  -2.773  -0.012  0.00  0.00    +0.037 A 
ATOM     32  C   UNL     1       0.982  -2.053   0.701  0.00  0.00    +0.013 A 
ATOM     33  C   UNL     1       0.945  -0.674   0.702  0.00  0.00    +0.004 A 
ENDBRANCH   1  31
BRANCH   9  34
ATOM     34  O   UNL     1      -0.898  -8.157   7.729  0.00  0.00    -0.495 OA
ATOM     35  C   UNL     1      -0.755  -9.384   8.447  0.00  0.00    +0.277 C 
ENDBRANCH   9  34
TORSDOF 2
