REMARK  Name = ZINC21977978
REMARK  13 active torsions:
REMARK  status: ('A' for Active; 'I' for Inactive)
REMARK    1  A    between atoms: C_1  and  C_2
REMARK    2  A    between atoms: C_3  and  C_31
REMARK    3  A    between atoms: C_7  and  N_30
REMARK    4  A    between atoms: C_9  and  C_11
REMARK    5  A    between atoms: C_11  and  S_12
REMARK    6  A    between atoms: S_12  and  C_13
REMARK    7  A    between atoms: C_16  and  C_19
REMARK    8  A    between atoms: N_17  and  N_18
REMARK    9  A    between atoms: C_19  and  O_20
REMARK   10  A    between atoms: O_20  and  C_21
REMARK   11  A    between atoms: C_24  and  C_27
REMARK   12  A    between atoms: C_27  and  C_28
REMARK   13  A    between atoms: C_27  and  C_29
REMARK                            x       y       z     vdW  Elec       q    Type
REMARK                         _______ _______ _______ _____ _____    ______ ____
ROOT
ATOM      1  C   UNL     1      -2.401   1.835  -1.112  0.00  0.00    +0.209 A 
ATOM      2  N   UNL     1      -2.637   2.289  -2.321  0.00  0.00    -0.121 NA
ATOM      3  N   UNL     1      -1.555   2.269  -3.014  0.00  0.00    -0.128 NA
ATOM      4  C   UNL     1      -0.571   1.809  -2.294  0.00  0.00    +0.189 A 
ATOM      5  N   UNL     1      -1.076   1.512  -1.058  0.00  0.00    -0.225 N 
ENDROOT
BRANCH   5   6
ATOM      6  N   UNL     1      -0.394   1.002   0.011  0.00  0.00    -0.295 N 
ATOM      7  H   UNL     1       0.680   0.783  -0.076  0.00  0.00    +0.163 HD
ATOM      8  H   UNL     1      -0.920   0.811   0.958  0.00  0.00    +0.163 HD
ENDBRANCH   5   6
BRANCH   1   9
ATOM      9  S   UNL     1      -3.573   1.673   0.194  0.00  0.00    -0.077 S 
BRANCH   9  10
ATOM     10  C   UNL     1      -5.057   2.291  -0.638  0.00  0.00    +0.153 C 
BRANCH  10  19
ATOM     11  C   UNL     1     -10.380   1.154   3.226  0.00  0.00    +0.045 C 
ATOM     12  C   UNL     1      -9.407   2.283   3.003  0.00  0.00    -0.028 A 
ATOM     13  C   UNL     1      -9.521   3.424   3.698  0.00  0.00    -0.008 A 
ATOM     14  S   UNL     1      -8.172   4.419   3.089  0.00  0.00    -0.074 S 
ATOM     15  C   UNL     1      -7.491   3.274   1.918  0.00  0.00    +0.114 A 
ATOM     16  C   UNL     1      -8.334   2.147   2.033  0.00  0.00    +0.050 A 
ATOM     17  C   UNL     1      -8.008   1.053   1.185  0.00  0.00    +0.128 A 
ATOM     18  N   UNL     1      -6.973   1.158   0.366  0.00  0.00    -0.216 NA
ATOM     19  C   UNL     1      -6.224   2.244   0.315  0.00  0.00    +0.143 A 
ATOM     20  N   UNL     1      -6.477   3.291   1.077  0.00  0.00    -0.224 NA
ATOM     21  C   UNL     1     -10.545   3.781   4.744  0.00  0.00    +0.052 C 
BRANCH  17  22
ATOM     22  N   UNL     1      -8.764  -0.104   1.212  0.00  0.00    -0.343 N 
ATOM     23  H   UNL     1      -8.506  -0.946   0.553  0.00  0.00    +0.144 HD
ATOM     24  H   UNL     1      -9.625  -0.183   1.893  0.00  0.00    +0.144 HD
ENDBRANCH  17  22
ENDBRANCH  10  19
ENDBRANCH   9  10
ENDBRANCH   1   9
BRANCH   4  25
ATOM     25  C   UNL     1       0.858   1.635  -2.740  0.00  0.00    +0.306 C 
BRANCH  25  26
ATOM     26  O   UNL     1       1.027   0.331  -3.298  0.00  0.00    -0.484 OA
BRANCH  26  27
ATOM     27  C   UNL     1       2.267   0.010  -3.752  0.00  0.00    +0.121 A 
ATOM     28  C   UNL     1       3.298   0.934  -3.668  0.00  0.00    +0.046 A 
ATOM     29  C   UNL     1       4.559   0.604  -4.125  0.00  0.00    +0.007 A 
ATOM     30  C   UNL     1       4.792  -0.642  -4.677  0.00  0.00    -0.045 A 
ATOM     31  C   UNL     1       3.764  -1.563  -4.766  0.00  0.00    +0.007 A 
ATOM     32  C   UNL     1       2.503  -1.240  -4.305  0.00  0.00    +0.046 A 
BRANCH  30  33
ATOM     33  C   UNL     1       6.167  -0.998  -5.180  0.00  0.00    +0.013 C 
ATOM     34  C   UNL     1       6.572  -0.022  -6.287  0.00  0.00    +0.012 C 
ATOM     35  C   UNL     1       7.170  -0.909  -4.029  0.00  0.00    +0.012 C 
ENDBRANCH  30  33
ENDBRANCH  26  27
ENDBRANCH  25  26
ENDBRANCH   4  25
TORSDOF 9
