REMARK  Name = ZINC09665548
REMARK  8 active torsions:
REMARK  status: ('A' for Active; 'I' for Inactive)
REMARK    1  A    between atoms: C_7  and  C_22
REMARK    2  A    between atoms: C_12  and  C_13
REMARK    3  A    between atoms: C_16  and  O_19
REMARK    4  A    between atoms: C_22  and  O_24
REMARK    5  A    between atoms: O_24  and  C_25
REMARK    6  A    between atoms: C_25  and  C_26
REMARK    7  A    between atoms: N_28  and  C_29
REMARK    8  A    between atoms: C_32  and  C_35
REMARK                            x       y       z     vdW  Elec       q    Type
REMARK                         _______ _______ _______ _____ _____    ______ ____
ROOT
ATOM      1  C   UNL     1      -0.076   1.134   0.268  0.00  0.00    +0.001 A 
ATOM      2  C   UNL     1       1.071   1.921   0.203  0.00  0.00    +0.002 A 
ATOM      3  C   UNL     1       2.308   1.357   0.148  0.00  0.00    +0.028 A 
ATOM      4  C   UNL     1       2.438  -0.045   0.158  0.00  0.00    +0.072 A 
ATOM      5  C   UNL     1       1.265  -0.840   0.224  0.00  0.00    +0.015 A 
ATOM      6  C   UNL     1       0.010  -0.227   0.278  0.00  0.00    +0.011 A 
ATOM      7  C   UNL     1       1.410  -2.296   0.233  0.00  0.00    +0.073 A 
ATOM      8  C   UNL     1       2.696  -2.813   0.176  0.00  0.00    -0.007 A 
ATOM      9  C   UNL     1       3.798  -1.945   0.113  0.00  0.00    +0.072 A 
ATOM     10  N   UNL     1       3.634  -0.625   0.105  0.00  0.00    -0.247 NA
ATOM     11  C   UNL     1       5.053  -2.720   0.061  0.00  0.00    -0.021 C 
ATOM     12  C   UNL     1       6.294  -2.206  -0.005  0.00  0.00    +0.013 C 
ATOM     13  C   UNL     1       4.705  -4.187   0.095  0.00  0.00    +0.042 C 
ATOM     14  C   UNL     1       3.174  -4.244   0.170  0.00  0.00    +0.043 C 
ENDROOT
BRANCH  12  15
ATOM     15  C   UNL     1       7.465  -3.094   0.085  0.00  0.00    -0.024 A 
ATOM     16  C   UNL     1       8.750  -2.553   0.185  0.00  0.00    +0.011 A 
ATOM     17  C   UNL     1       9.842  -3.389   0.273  0.00  0.00    +0.046 A 
ATOM     18  C   UNL     1       9.668  -4.767   0.253  0.00  0.00    +0.117 A 
ATOM     19  C   UNL     1       8.393  -5.309   0.149  0.00  0.00    +0.046 A 
ATOM     20  C   UNL     1       7.295  -4.482   0.065  0.00  0.00    +0.011 A 
BRANCH  18  21
ATOM     21  O   UNL     1      10.748  -5.587   0.335  0.00  0.00    -0.507 OA
ATOM     22  H   UNL     1      11.130  -5.820  -0.522  0.00  0.00    +0.292 HD
ENDBRANCH  18  21
ENDBRANCH  12  15
BRANCH   7  23
ATOM     23  C   UNL     1       0.229  -3.183   0.301  0.00  0.00    +0.341 C 
ATOM     24  O   UNL     1      -0.307  -3.559  -0.722  0.00  0.00    -0.245 OA
BRANCH  23  25
ATOM     25  O   UNL     1      -0.251  -3.574   1.497  0.00  0.00    -0.452 OA
BRANCH  25  26
ATOM     26  C   UNL     1      -1.413  -4.445   1.488  0.00  0.00    +0.328 C 
BRANCH  26  27
ATOM     27  C   UNL     1      -1.805  -4.775   2.905  0.00  0.00    +0.255 C 
ATOM     28  O   UNL     1      -1.168  -4.321   3.832  0.00  0.00    -0.272 OA
ATOM     29  N   UNL     1      -2.863  -5.575   3.143  0.00  0.00    -0.283 N 
ATOM     30  H   UNL     1      -3.333  -5.990   2.402  0.00  0.00    +0.155 HD
BRANCH  29  31
ATOM     31  C   UNL     1      -3.283  -5.805   4.452  0.00  0.00    +0.034 A 
ATOM     32  C   UNL     1      -2.345  -5.895   5.476  0.00  0.00    +0.024 A 
ATOM     33  C   UNL     1      -2.756  -6.118   6.771  0.00  0.00    +0.015 A 
ATOM     34  C   UNL     1      -4.117  -6.264   7.055  0.00  0.00    +0.037 A 
ATOM     35  C   UNL     1      -5.056  -6.178   6.023  0.00  0.00    +0.015 A 
ATOM     36  C   UNL     1      -4.638  -5.950   4.731  0.00  0.00    +0.024 A 
BRANCH  34  37
ATOM     37  C   UNL     1      -4.561  -6.508   8.441  0.00  0.00    +0.242 C 
ATOM     38  O   UNL     1      -5.745  -6.635   8.687  0.00  0.00    -0.270 OA
ATOM     39  N   UNL     1      -3.654  -6.590   9.435  0.00  0.00    -0.325 N 
ATOM     40  H   UNL     1      -2.709  -6.489   9.239  0.00  0.00    +0.145 HD
ATOM     41  H   UNL     1      -3.946  -6.750  10.346  0.00  0.00    +0.145 HD
ENDBRANCH  34  37
ENDBRANCH  29  31
ENDBRANCH  26  27
ENDBRANCH  25  26
ENDBRANCH  23  25
ENDBRANCH   7  23
TORSDOF 8
