REMARK  Name = ZINC62385280
REMARK  4 active torsions:
REMARK  status: ('A' for Active; 'I' for Inactive)
REMARK    1  A    between atoms: C_6  and  N_7
REMARK    2  A    between atoms: N_10  and  C_11
REMARK    3  A    between atoms: N_14  and  C_17
REMARK    4  A    between atoms: C_17  and  C_18
REMARK                            x       y       z     vdW  Elec       q    Type
REMARK                         _______ _______ _______ _____ _____    ______ ____
ROOT
ATOM      1  N   UNL     1      -1.349  -0.495  -0.676  0.00  0.00    -0.269 N 
ATOM      2  C   UNL     1      -2.524   0.124  -0.448  0.00  0.00    +0.304 C 
ATOM      3  O   UNL     1      -2.577   1.339  -0.427  0.00  0.00    -0.253 OA
ATOM      4  N   UNL     1      -3.641  -0.602  -0.243  0.00  0.00    -0.296 N 
ATOM      5  H   UNL     1      -1.320  -1.460  -0.769  0.00  0.00    +0.156 HD
ATOM      6  H   UNL     1      -3.599  -1.571  -0.261  0.00  0.00    +0.151 HD
ENDROOT
BRANCH   1  12
ATOM      7  C   UNL     1      -0.015   1.411  -0.029  0.00  0.00    +0.025 A 
ATOM      8  C   UNL     1       1.147   2.151  -0.131  0.00  0.00    +0.025 A 
ATOM      9  C   UNL     1       2.160   1.737  -0.986  0.00  0.00    +0.037 A 
ATOM     10  C   UNL     1       2.004   0.580  -1.738  0.00  0.00    -0.024 A 
ATOM     11  C   UNL     1       0.843  -0.159  -1.636  0.00  0.00    +0.028 A 
ATOM     12  C   UNL     1      -0.170   0.255  -0.781  0.00  0.00    +0.035 A 
ATOM     13  C   UNL     1       3.105   0.133  -2.664  0.00  0.00    +0.046 C 
ATOM     14  C   UNL     1       3.809   1.358  -3.250  0.00  0.00    +0.101 C 
ATOM     15  C   UNL     1       4.154   2.325  -2.150  0.00  0.00    +0.218 C 
ATOM     16  O   UNL     1       5.180   2.970  -2.219  0.00  0.00    -0.275 OA
ATOM     17  N   UNL     1       3.339   2.484  -1.091  0.00  0.00    -0.285 N 
ATOM     18  H   UNL     1       3.570   3.120  -0.397  0.00  0.00    +0.155 HD
ENDBRANCH   1  12
BRANCH   4  19
ATOM     19  C   UNL     1      -4.918   0.071   0.005  0.00  0.00    +0.071 C 
ATOM     20  C   UNL     1      -5.044   0.396   1.496  0.00  0.00    +0.004 C 
ATOM     21  C   UNL     1      -6.413   1.027   1.761  0.00  0.00    -0.077 C 
ATOM     22  N   UNL     1      -7.472   0.088   1.372  0.00  0.00    +0.380 N 
ATOM     23  C   UNL     1      -7.401  -0.172  -0.071  0.00  0.00    -0.077 C 
ATOM     24  C   UNL     1      -6.071  -0.849  -0.406  0.00  0.00    +0.004 C 
ATOM     25  H   UNL     1      -7.353  -0.778   1.875  0.00  0.00    -0.082 HD
BRANCH  22  26
ATOM     26  C   UNL     1      -8.782   0.667   1.700  0.00  0.00    -0.075 C 
BRANCH  26  27
ATOM     27  C   UNL     1      -9.876  -0.370   1.442  0.00  0.00    -0.028 C 
ATOM     28  C   UNL     1     -11.248   0.272   1.655  0.00  0.00    +0.002 C 
ATOM     29  C   UNL     1     -12.343  -0.765   1.396  0.00  0.00    +0.000 C 
ATOM     30  C   UNL     1     -12.174  -1.938   2.364  0.00  0.00    +0.000 C 
ATOM     31  C   UNL     1     -10.802  -2.580   2.151  0.00  0.00    +0.000 C 
ATOM     32  C   UNL     1      -9.707  -1.543   2.409  0.00  0.00    +0.002 C 
ENDBRANCH  26  27
ENDBRANCH  22  26
ENDBRANCH   4  19
TORSDOF 4
