REMARK  Name = ZINC43743327
REMARK  8 active torsions:
REMARK  status: ('A' for Active; 'I' for Inactive)
REMARK    1  A    between atoms: C_1  and  C_2
REMARK    2  A    between atoms: C_2  and  C_4
REMARK    3  A    between atoms: C_4  and  O_28
REMARK    4  A    between atoms: C_9  and  C_27
REMARK    5  A    between atoms: C_20  and  O_26
REMARK    6  A    between atoms: C_24  and  C_25
REMARK    7  A    between atoms: O_28  and  C_29
REMARK    8  A    between atoms: C_29  and  C_31
REMARK                            x       y       z     vdW  Elec       q    Type
REMARK                         _______ _______ _______ _____ _____    ______ ____
ROOT
ATOM      1  C   UNL     1      -0.051  -0.828  -1.236  0.00  0.00    +0.176 C 
ATOM      2  C   UNL     1       1.344  -1.274  -1.725  0.00  0.00    +0.057 C 
ATOM      3  C   UNL     1       1.199  -2.760  -2.119  0.00  0.00    +0.009 C 
ATOM      4  C   UNL     1       0.090  -3.300  -1.180  0.00  0.00    +0.003 C 
ATOM      5  C   UNL     1      -0.852  -2.104  -1.003  0.00  0.00    +0.018 C 
ATOM      6  C   UNL     1      -1.711  -2.160   0.231  0.00  0.00    +0.011 C 
ATOM      7  C   UNL     1      -0.954  -2.598   1.481  0.00  0.00    +0.005 C 
ATOM      8  C   UNL     1      -0.313  -3.962   1.210  0.00  0.00    +0.002 C 
ATOM      9  C   UNL     1       0.727  -3.809   0.106  0.00  0.00    -0.003 C 
ATOM     10  C   UNL     1       1.893  -2.935   0.550  0.00  0.00    +0.008 C 
ATOM     11  C   UNL     1       2.592  -3.582   1.756  0.00  0.00    +0.031 C 
ATOM     12  C   UNL     1       1.544  -3.759   2.842  0.00  0.00    -0.065 C 
ATOM     13  C   UNL     1       1.785  -3.240   4.013  0.00  0.00    +0.004 C 
ATOM     14  C   UNL     1       0.806  -3.361   5.149  0.00  0.00    +0.137 C 
ATOM     15  C   UNL     1      -0.608  -3.371   4.552  0.00  0.00    +0.036 C 
ATOM     16  C   UNL     1      -0.726  -4.563   3.609  0.00  0.00    +0.014 C 
ATOM     17  C   UNL     1       0.301  -4.516   2.492  0.00  0.00    -0.008 C 
ATOM     18  C   UNL     1       0.707  -5.971   2.224  0.00  0.00    +0.016 C 
ATOM     19  C   UNL     1      -1.854  -2.186  -2.194  0.00  0.00    +0.016 C 
ENDROOT
BRANCH   1  21
ATOM     20  C   UNL     1      -1.036   1.012   0.322  0.00  0.00    +0.090 C 
ATOM     21  C   UNL     1       0.066   0.043  -0.020  0.00  0.00    +0.174 C 
ATOM     22  O   UNL     1       1.043  -0.033   0.685  0.00  0.00    -0.293 OA
ENDBRANCH   1  21
BRANCH  14  23
ATOM     23  O   UNL     1       0.950  -2.248   6.032  0.00  0.00    -0.388 OA
ATOM     24  H   UNL     1       1.830  -2.168   6.424  0.00  0.00    +0.210 HD
ENDBRANCH  14  23
BRANCH   1  25
ATOM     25  O   UNL     1      -0.679  -0.067  -2.288  0.00  0.00    -0.450 OA
BRANCH  25  26
ATOM     26  C   UNL     1      -0.047   1.046  -2.694  0.00  0.00    +0.305 C 
ATOM     27  O   UNL     1       0.957   1.411  -2.131  0.00  0.00    -0.251 OA
ATOM     28  C   UNL     1      -0.591   1.839  -3.854  0.00  0.00    +0.136 C 
ENDBRANCH  25  26
ENDBRANCH   1  25
TORSDOF 4
