REMARK  Name = ZINC11197630
REMARK  10 active torsions:
REMARK  status: ('A' for Active; 'I' for Inactive)
REMARK    1  A    between atoms: C_1  and  C_2
REMARK    2  A    between atoms: C_2  and  O_3
REMARK    3  A    between atoms: O_3  and  C_4
REMARK    4  A    between atoms: C_4  and  C_6
REMARK    5  A    between atoms: C_7  and  C_21
REMARK    6  A    between atoms: C_12  and  C_14
REMARK    7  A    between atoms: C_21  and  O_22
REMARK    8  A    between atoms: O_22  and  C_23
REMARK    9  A    between atoms: C_23  and  C_25
REMARK   10  A    between atoms: C_29  and  N_31
REMARK                            x       y       z     vdW  Elec       q    Type
REMARK                         _______ _______ _______ _____ _____    ______ ____
ROOT
ATOM      1  C   UNL     1      -0.754   1.489   1.334  0.00  0.00    +0.081 C 
ATOM      2  C   UNL     1      -1.892   2.200   1.185  0.00  0.00    +0.061 C 
ATOM      3  N   UNL     1      -2.306   2.617  -0.048  0.00  0.00    -0.269 N 
ATOM      4  C   UNL     1      -1.637   2.365  -1.180  0.00  0.00    +0.304 C 
ATOM      5  O   UNL     1      -2.085   2.778  -2.232  0.00  0.00    -0.252 OA
ATOM      6  N   UNL     1      -0.485   1.666  -1.192  0.00  0.00    -0.288 N 
ATOM      7  C   UNL     1       0.048   1.170   0.088  0.00  0.00    +0.144 C 
ATOM      8  H   UNL     1      -3.130   3.125  -0.106  0.00  0.00    +0.156 HD
ATOM      9  H   UNL     1      -0.017   1.495  -2.025  0.00  0.00    +0.151 HD
ENDROOT
BRANCH   7  10
ATOM     10  C   UNL     1       1.431   1.740   0.268  0.00  0.00    -0.022 A 
ATOM     11  C   UNL     1       1.675   3.069  -0.027  0.00  0.00    +0.007 A 
ATOM     12  C   UNL     1       2.942   3.593   0.143  0.00  0.00    +0.020 A 
ATOM     13  C   UNL     1       3.969   2.786   0.598  0.00  0.00    +0.041 A 
ATOM     14  C   UNL     1       3.726   1.455   0.887  0.00  0.00    +0.020 A 
ATOM     15  C   UNL     1       2.457   0.933   0.722  0.00  0.00    +0.007 A 
ATOM     16 CL   UNL     1       5.563   3.442   0.804  0.00  0.00    -0.084 Cl
ENDBRANCH   7  10
BRANCH   1  17
ATOM     17  C   UNL     1      -0.326   1.055   2.610  0.00  0.00    +0.339 C 
ATOM     18  O   UNL     1      -0.508  -0.098   2.954  0.00  0.00    -0.245 OA
BRANCH  17  19
ATOM     19  O   UNL     1       0.285   1.920   3.447  0.00  0.00    -0.462 OA
BRANCH  19  21
ATOM     20  C   UNL     1       1.360   2.531   5.523  0.00  0.00    +0.048 C 
ATOM     21  C   UNL     1       0.691   1.414   4.720  0.00  0.00    +0.229 C 
ENDBRANCH  19  21
ENDBRANCH  17  19
ENDBRANCH   1  17
BRANCH   2  22
ATOM     22  C   UNL     1      -2.720   2.537   2.398  0.00  0.00    +0.283 C 
BRANCH  22  23
ATOM     23  O   UNL     1      -2.726   3.976   2.594  0.00  0.00    -0.455 OA
BRANCH  23  24
ATOM     24  C   UNL     1      -3.426   4.447   3.645  0.00  0.00    +0.340 C 
ATOM     25  O   UNL     1      -4.015   3.677   4.377  0.00  0.00    -0.245 OA
BRANCH  24  26
ATOM     26  C   UNL     1      -3.477   5.899   3.906  0.00  0.00    +0.061 A 
ATOM     27  C   UNL     1      -2.796   6.787   3.070  0.00  0.00    +0.016 A 
ATOM     28  C   UNL     1      -2.850   8.143   3.313  0.00  0.00    +0.022 A 
ATOM     29  C   UNL     1      -3.568   8.630   4.391  0.00  0.00    +0.062 A 
ATOM     30  C   UNL     1      -4.245   7.754   5.234  0.00  0.00    +0.044 A 
ATOM     31  C   UNL     1      -4.202   6.390   4.994  0.00  0.00    +0.039 A 
ATOM     32 CL   UNL     1      -3.623  10.338   4.694  0.00  0.00    -0.082 Cl
BRANCH  30  33
ATOM     33  N   UNL     1      -4.970   8.250   6.321  0.00  0.00    -0.357 N 
ATOM     34  H   UNL     1      -5.442   7.639   6.908  0.00  0.00    +0.142 HD
ATOM     35  H   UNL     1      -5.000   9.205   6.489  0.00  0.00    +0.142 HD
ENDBRANCH  30  33
ENDBRANCH  24  26
ENDBRANCH  23  24
ENDBRANCH  22  23
ENDBRANCH   2  22
TORSDOF 9
