REMARK  Name = ZINC41495547
REMARK  7 active torsions:
REMARK  status: ('A' for Active; 'I' for Inactive)
REMARK    1  A    between atoms: C_1  and  C_2
REMARK    2  A    between atoms: C_4  and  N_14
REMARK    3  A    between atoms: C_7  and  O_12
REMARK    4  A    between atoms: O_12  and  C_13
REMARK    5  A    between atoms: N_14  and  C_15
REMARK    6  A    between atoms: C_18  and  S_21
REMARK    7  A    between atoms: S_21  and  N_24
REMARK                            x       y       z     vdW  Elec       q    Type
REMARK                         _______ _______ _______ _____ _____    ______ ____
ROOT
ATOM      1  C   UNL     1       1.437   1.381  -0.194  0.00  0.00    +0.063 C 
ATOM      2  C   UNL     1       1.204  -0.108  -0.173  0.00  0.00    +0.015 A 
ATOM      3  C   UNL     1       0.725  -0.733  -1.317  0.00  0.00    +0.044 A 
ATOM      4  C   UNL     1       0.507  -2.101  -1.311  0.00  0.00    +0.042 A 
ATOM      5  C   UNL     1       0.787  -2.812  -0.119  0.00  0.00    +0.023 A 
ATOM      6  C   UNL     1       0.593  -4.197  -0.035  0.00  0.00    +0.057 A 
ATOM      7  C   UNL     1       0.875  -4.848   1.133  0.00  0.00    +0.121 A 
ATOM      8  C   UNL     1       1.354  -4.147   2.243  0.00  0.00    +0.047 A 
ATOM      9  C   UNL     1       1.552  -2.802   2.189  0.00  0.00    +0.030 A 
ATOM     10  C   UNL     1       1.273  -2.101   1.004  0.00  0.00    +0.049 A 
ATOM     11  N   UNL     1       1.465  -0.778   0.925  0.00  0.00    -0.358 N 
ATOM     12  H   UNL     1       1.802  -0.303   1.700  0.00  0.00    +0.166 HD
ENDROOT
BRANCH   7  13
ATOM     13  O   UNL     1       0.687  -6.192   1.217  0.00  0.00    -0.495 OA
ATOM     14  C   UNL     1       1.000  -6.814   2.464  0.00  0.00    +0.277 C 
ENDBRANCH   7  13
BRANCH   4  15
ATOM     15  N   UNL     1       0.028  -2.754  -2.438  0.00  0.00    -0.314 N 
ATOM     16  H   UNL     1      -0.222  -3.690  -2.387  0.00  0.00    +0.152 HD
BRANCH  15  17
ATOM     17  C   UNL     1      -0.094  -2.063  -3.647  0.00  0.00    +0.031 A 
ATOM     18  C   UNL     1       0.905  -1.187  -4.052  0.00  0.00    +0.025 A 
ATOM     19  C   UNL     1       0.782  -0.506  -5.247  0.00  0.00    +0.030 A 
ATOM     20  C   UNL     1      -0.334  -0.696  -6.041  0.00  0.00    +0.105 A 
ATOM     21  C   UNL     1      -1.330  -1.568  -5.641  0.00  0.00    +0.030 A 
ATOM     22  C   UNL     1      -1.211  -2.256  -4.450  0.00  0.00    +0.025 A 
BRANCH  20  23
ATOM     23  S   UNL     1      -0.487   0.174  -7.565  0.00  0.00    +0.056 S 
ATOM     24  O   UNL     1      -1.876   0.235  -7.860  0.00  0.00    -0.153 OA
ATOM     25  O   UNL     1       0.319   1.339  -7.450  0.00  0.00    -0.153 OA
BRANCH  23  26
ATOM     26  N   UNL     1       0.205  -0.767  -8.739  0.00  0.00    -0.204 NA
ATOM     27  H   UNL     1       0.593  -1.625  -8.506  0.00  0.00    +0.144 HD
ATOM     28  H   UNL     1       0.223  -0.460  -9.659  0.00  0.00    +0.144 HD
ENDBRANCH  23  26
ENDBRANCH  20  23
ENDBRANCH  15  17
ENDBRANCH   4  15
TORSDOF 5
