REMARK  Name = ZINC12462787
REMARK  7 active torsions:
REMARK  status: ('A' for Active; 'I' for Inactive)
REMARK    1  A    between atoms: C_1  and  C_2
REMARK    2  A    between atoms: C_6  and  N_8
REMARK    3  A    between atoms: C_14  and  C_16
REMARK    4  A    between atoms: C_14  and  C_17
REMARK    5  A    between atoms: N_25  and  C_28
REMARK    6  A    between atoms: C_29  and  C_32
REMARK    7  A    between atoms: C_30  and  N_31
REMARK                            x       y       z     vdW  Elec       q    Type
REMARK                         _______ _______ _______ _____ _____    ______ ____
ROOT
ATOM      1  N   UNL     1      -2.616   2.588   0.072  0.00  0.00    -0.260 N 
ATOM      2  C   UNL     1      -1.883   2.942   1.174  0.00  0.00    +0.026 C 
ATOM      3  C   UNL     1      -0.621   2.489   1.334  0.00  0.00    +0.037 C 
ATOM      4  C   UNL     1       0.147   2.861   2.450  0.00  0.00    +0.163 C 
ATOM      5  O   UNL     1       1.278   2.433   2.566  0.00  0.00    -0.292 OA
ATOM      6  C   UNL     1      -0.405   3.780   3.506  0.00  0.00    +0.086 C 
ATOM      7  C   UNL     1      -1.445   4.706   2.866  0.00  0.00    -0.023 C 
ATOM      8  C   UNL     1      -2.520   3.842   2.203  0.00  0.00    +0.058 C 
ATOM      9  C   UNL     1      -0.772   5.588   1.813  0.00  0.00    +0.011 C 
ATOM     10  C   UNL     1      -2.085   5.587   3.942  0.00  0.00    +0.011 C 
ATOM     11  C   UNL     1       0.002   1.570   0.315  0.00  0.00    +0.141 C 
ATOM     12  C   UNL     1       0.066   0.170   0.845  0.00  0.00    -0.001 A 
ATOM     13  C   UNL     1      -0.928  -0.708   1.222  0.00  0.00    +0.007 A 
ATOM     14  C   UNL     1      -0.525  -1.957   1.681  0.00  0.00    +0.000 A 
ATOM     15  C   UNL     1       0.810  -2.299   1.753  0.00  0.00    +0.002 A 
ATOM     16  C   UNL     1       1.814  -1.422   1.375  0.00  0.00    +0.024 A 
ATOM     17  C   UNL     1       1.423  -0.165   0.913  0.00  0.00    +0.041 A 
ATOM     18  N   UNL     1       2.201   0.892   0.476  0.00  0.00    -0.273 N 
ATOM     19  C   UNL     1       1.453   1.952   0.105  0.00  0.00    +0.240 C 
ATOM     20  O   UNL     1       1.865   3.012  -0.317  0.00  0.00    -0.274 OA
ATOM     21  C   UNL     1       3.665   0.864   0.422  0.00  0.00    +0.138 C 
ATOM     22  C   UNL     1      -0.734   1.615  -0.990  0.00  0.00    +0.089 C 
ATOM     23  C   UNL     1      -1.997   2.112  -1.062  0.00  0.00    +0.108 C 
ENDROOT
BRANCH   1  29
ATOM     24  C   UNL     1      -7.015   0.682   1.165  0.00  0.00    +0.044 C 
ATOM     25  C   UNL     1      -6.166   1.803   0.624  0.00  0.00    -0.049 A 
ATOM     26  C   UNL     1      -6.766   2.957   0.153  0.00  0.00    +0.003 A 
ATOM     27  C   UNL     1      -5.991   3.989  -0.345  0.00  0.00    +0.002 A 
ATOM     28  C   UNL     1      -4.615   3.872  -0.367  0.00  0.00    +0.024 A 
ATOM     29  C   UNL     1      -4.010   2.712   0.099  0.00  0.00    +0.040 A 
ATOM     30  C   UNL     1      -4.792   1.678   0.598  0.00  0.00    +0.027 A 
ENDBRANCH   1  29
BRANCH  23  31
ATOM     31  N   UNL     1      -2.657   2.140  -2.267  0.00  0.00    -0.345 N 
ATOM     32  H   UNL     1      -3.522   2.573  -2.337  0.00  0.00    +0.144 HD
ATOM     33  H   UNL     1      -2.257   1.726  -3.048  0.00  0.00    +0.144 HD
ENDBRANCH  23  31
BRANCH  22  34
ATOM     34  C   UNL     1      -0.098   1.129  -2.177  0.00  0.00    +0.100 C 
ATOM     35  N   UNL     1       0.407   0.743  -3.119  0.00  0.00    -0.191 NA
ENDBRANCH  22  34
TORSDOF 3
