REMARK  Name = ZINC28284024
REMARK  7 active torsions:
REMARK  status: ('A' for Active; 'I' for Inactive)
REMARK    1  A    between atoms: C_1  and  C_2
REMARK    2  A    between atoms: C_3  and  S_16
REMARK    3  A    between atoms: C_4  and  C_15
REMARK    4  A    between atoms: N_5  and  C_7
REMARK    5  A    between atoms: S_16  and  N_19
REMARK    6  A    between atoms: N_19  and  C_20
REMARK    7  A    between atoms: C_26  and  N_28
REMARK                            x       y       z     vdW  Elec       q    Type
REMARK                         _______ _______ _______ _____ _____    ______ ____
ROOT
ATOM      1  S   UNL     1      -4.311   3.607   1.069  0.00  0.00    +0.062 S 
ATOM      2  O   UNL     1      -4.071   5.008   1.086  0.00  0.00    -0.153 OA
ATOM      3  O   UNL     1      -5.489   3.044   0.508  0.00  0.00    -0.153 OA
ENDROOT
BRANCH   1   6
ATOM      4  C   UNL     1      -2.765   4.975   3.675  0.00  0.00    +0.069 C 
ATOM      5  C   UNL     1      -3.562   3.701   3.787  0.00  0.00    +0.087 A 
ATOM      6  C   UNL     1      -4.240   3.063   2.743  0.00  0.00    +0.148 A 
ATOM      7  C   UNL     1      -4.835   1.958   3.247  0.00  0.00    +0.063 A 
ATOM      8  N   UNL     1      -4.538   1.893   4.561  0.00  0.00    -0.262 N 
ATOM      9  N   UNL     1      -3.740   3.001   4.878  0.00  0.00    -0.174 NA
ATOM     10  C   UNL     1      -5.676   0.972   2.477  0.00  0.00    +0.067 C 
BRANCH   8  11
ATOM     11  C   UNL     1      -4.976   0.852   5.494  0.00  0.00    +0.130 C 
ATOM     12  C   UNL     1      -3.745   0.164   6.107  0.00  0.00    +0.051 C 
ATOM     13  C   UNL     1      -4.221  -0.704   7.306  0.00  0.00    +0.168 C 
ATOM     14  S   UNL     1      -5.465   0.424   8.065  0.00  0.00    -0.029 S 
ATOM     15  O   UNL     1      -4.828   1.208   9.065  0.00  0.00    -0.174 OA
ATOM     16  O   UNL     1      -6.627  -0.323   8.396  0.00  0.00    -0.174 OA
ATOM     17  C   UNL     1      -5.832   1.492   6.613  0.00  0.00    +0.192 C 
ENDBRANCH   8  11
ENDBRANCH   1   6
BRANCH   1  18
ATOM     18  N   UNL     1      -3.033   2.917   0.274  0.00  0.00    -0.185 NA
ATOM     19  H   UNL     1      -2.160   3.537   0.020  0.00  0.00    +0.148 HD
BRANCH  18  20
ATOM     20  C   UNL     1      -2.971   1.463   0.110  0.00  0.00    +0.097 C 
ATOM     21  C   UNL     1      -2.100   0.861   1.215  0.00  0.00    +0.022 C 
ATOM     22  C   UNL     1      -0.689   1.445   1.127  0.00  0.00    +0.002 C 
ATOM     23  C   UNL     1      -0.083   1.111  -0.238  0.00  0.00    +0.002 C 
ATOM     24  C   UNL     1      -0.954   1.712  -1.343  0.00  0.00    +0.024 C 
ATOM     25  C   UNL     1      -2.365   1.129  -1.255  0.00  0.00    +0.103 C 
BRANCH  25  26
ATOM     26  N   UNL     1      -3.199   1.705  -2.313  0.00  0.00    -0.228 N 
ATOM     27  C   UNL     1      -4.421   1.228  -2.479  0.00  0.00    +0.233 C 
ATOM     28  O   UNL     1      -4.868   0.337  -1.788  0.00  0.00    -0.274 OA
ATOM     29  C   UNL     1      -5.229   1.877  -3.593  0.00  0.00    +0.175 C 
ATOM     30  S   UNL     1      -3.997   3.092  -4.209  0.00  0.00    -0.058 S 
ATOM     31  C   UNL     1      -2.680   2.689  -3.070  0.00  0.00    +0.281 C 
ATOM     32  O   UNL     1      -1.573   3.187  -2.997  0.00  0.00    -0.262 OA
ENDBRANCH  25  26
ENDBRANCH  18  20
ENDBRANCH   1  18
TORSDOF 5
