REMARK  Name = ZINC02791821
REMARK  7 active torsions:
REMARK  status: ('A' for Active; 'I' for Inactive)
REMARK    1  A    between atoms: C_4  and  C_7
REMARK    2  A    between atoms: C_10  and  C_31
REMARK    3  A    between atoms: C_14  and  C_17
REMARK    4  A    between atoms: N_19  and  N_20
REMARK    5  A    between atoms: N_20  and  C_21
REMARK    6  A    between atoms: C_21  and  N_23
REMARK    7  A    between atoms: N_23  and  C_24
REMARK                            x       y       z     vdW  Elec       q    Type
REMARK                         _______ _______ _______ _____ _____    ______ ____
ROOT
ATOM      1  C   UNL     1      -2.271   1.353  -1.019  0.00  0.00    +0.104 C 
ATOM      2  C   UNL     1      -0.771   1.603  -1.223  0.00  0.00    +0.059 C 
ATOM      3  C   UNL     1      -0.013   1.086   0.008  0.00  0.00    +0.177 C 
ATOM      4  N   UNL     1      -0.716   1.567   1.204  0.00  0.00    -0.241 N 
ATOM      5  C   UNL     1      -1.971   2.068   1.195  0.00  0.00    +0.130 A 
ATOM      6  C   UNL     1      -2.285   2.411   2.503  0.00  0.00    +0.097 A 
ATOM      7  C   UNL     1      -1.155   2.091   3.295  0.00  0.00    +0.149 A 
ATOM      8  N   UNL     1      -0.236   1.594   2.514  0.00  0.00    -0.177 NA
ATOM      9  N   UNL     1      -2.767   2.200   0.077  0.00  0.00    -0.322 N 
ATOM     10  H   UNL     1      -3.662   2.823  -0.071  0.00  0.00    +0.148 HD
ENDROOT
BRANCH   1  14
ATOM     11  C   UNL     1      -4.373   2.303  -4.614  0.00  0.00    +0.000 A 
ATOM     12  C   UNL     1      -4.076   0.987  -4.314  0.00  0.00    +0.000 A 
ATOM     13  C   UNL     1      -3.396   0.679  -3.151  0.00  0.00    +0.005 A 
ATOM     14  C   UNL     1      -3.012   1.688  -2.287  0.00  0.00    -0.027 A 
ATOM     15  C   UNL     1      -3.314   3.004  -2.585  0.00  0.00    +0.005 A 
ATOM     16  C   UNL     1      -3.989   3.312  -3.751  0.00  0.00    +0.000 A 
ENDBRANCH   1  14
BRANCH   6  17
ATOM     17  C   UNL     1      -3.546   2.995   2.975  0.00  0.00    +0.265 C 
ATOM     18  O   UNL     1      -4.444   3.223   2.186  0.00  0.00    -0.268 OA
ATOM     19  N   UNL     1      -3.710   3.278   4.283  0.00  0.00    -0.231 N 
ATOM     20  H   UNL     1      -2.899   3.072   4.996  0.00  0.00    +0.173 HD
BRANCH  19  21
ATOM     21  N   UNL     1      -4.914   3.835   4.733  0.00  0.00    -0.246 N 
ATOM     22  H   UNL     1      -5.726   4.041   4.020  0.00  0.00    +0.172 HD
BRANCH  21  23
ATOM     23  C   UNL     1      -5.078   4.118   6.041  0.00  0.00    +0.147 C 
ATOM     24  S   UNL     1      -6.550   4.798   6.591  0.00  0.00    -0.017 S 
BRANCH  23  25
ATOM     25  N   UNL     1      -4.084   3.865   6.915  0.00  0.00    -0.323 N 
ATOM     26  H   UNL     1      -3.139   3.428   6.561  0.00  0.00    +0.148 HD
BRANCH  25  27
ATOM     27  C   UNL     1      -4.262   4.173   8.336  0.00  0.00    +0.072 C 
ATOM     28  C   UNL     1      -3.913   5.641   8.588  0.00  0.00    +0.022 C 
ATOM     29  C   UNL     1      -4.099   5.963  10.072  0.00  0.00    +0.002 C 
ATOM     30  C   UNL     1      -3.179   5.069  10.906  0.00  0.00    +0.000 C 
ATOM     31  C   UNL     1      -3.529   3.601  10.655  0.00  0.00    +0.002 C 
ATOM     32  C   UNL     1      -3.343   3.280   9.171  0.00  0.00    +0.022 C 
ENDBRANCH  25  27
ENDBRANCH  23  25
ENDBRANCH  21  23
ENDBRANCH  19  21
ENDBRANCH   6  17
BRANCH   3  33
ATOM     33  C   UNL     1       1.420   1.623  -0.003  0.00  0.00    +0.365 C 
ATOM     34  F   UNL     1       2.099   1.164   1.131  0.00  0.00    -0.207 F 
ATOM     35  F   UNL     1       2.077   1.176  -1.154  0.00  0.00    -0.207 F 
ENDBRANCH   3  33
TORSDOF 7
