REMARK  Name = ZINC67260198
REMARK  7 active torsions:
REMARK  status: ('A' for Active; 'I' for Inactive)
REMARK    1  A    between atoms: C_4  and  S_22
REMARK    2  A    between atoms: C_5  and  N_7
REMARK    3  A    between atoms: N_10  and  C_11
REMARK    4  A    between atoms: C_11  and  C_12
REMARK    5  A    between atoms: C_12  and  C_15
REMARK    6  A    between atoms: S_22  and  C_23
REMARK    7  A    between atoms: C_23  and  C_24
REMARK                            x       y       z     vdW  Elec       q    Type
REMARK                         _______ _______ _______ _____ _____    ______ ____
ROOT
ATOM      1  N   UNL     1       1.246  -2.089  -0.019  0.00  0.00    -0.268 N 
ATOM      2  C   UNL     1       0.092  -2.777   0.089  0.00  0.00    +0.304 C 
ATOM      3  O   UNL     1      -0.970  -2.186   0.102  0.00  0.00    -0.253 OA
ATOM      4  N   UNL     1       0.116  -4.122   0.182  0.00  0.00    -0.298 N 
ATOM      5  H   UNL     1       2.087  -2.563  -0.112  0.00  0.00    +0.156 HD
ATOM      6  H   UNL     1       0.964  -4.593   0.172  0.00  0.00    +0.150 HD
ENDROOT
BRANCH   1  11
ATOM      7  C   UNL     1       0.176   1.369   0.646  0.00  0.00    +0.002 A 
ATOM      8  C   UNL     1       1.198   2.084   0.047  0.00  0.00    +0.001 A 
ATOM      9  C   UNL     1       2.239   1.421  -0.575  0.00  0.00    +0.016 A 
ATOM     10  C   UNL     1       2.261   0.034  -0.600  0.00  0.00    +0.030 A 
ATOM     11  C   UNL     1       1.230  -0.687   0.003  0.00  0.00    +0.048 A 
ATOM     12  C   UNL     1       0.190  -0.013   0.625  0.00  0.00    +0.024 A 
BRANCH  10  13
ATOM     13  S   UNL     1       3.586  -0.814  -1.393  0.00  0.00    -0.114 S 
BRANCH  13  14
ATOM     14  C   UNL     1       4.651   0.517  -2.012  0.00  0.00    +0.169 C 
BRANCH  14  15
ATOM     15  C   UNL     1       5.840  -0.079  -2.722  0.00  0.00    +0.221 C 
ATOM     16  O   UNL     1       5.956  -1.284  -2.802  0.00  0.00    -0.275 OA
ATOM     17  N   UNL     1       6.773   0.726  -3.267  0.00  0.00    -0.329 N 
ATOM     18  H   UNL     1       6.679   1.689  -3.203  0.00  0.00    +0.145 HD
ATOM     19  H   UNL     1       7.537   0.342  -3.724  0.00  0.00    +0.145 HD
ENDBRANCH  14  15
ENDBRANCH  13  14
ENDBRANCH  10  13
ENDBRANCH   1  11
BRANCH   4  20
ATOM     20  C   UNL     1      -1.137  -4.870   0.299  0.00  0.00    +0.117 C 
BRANCH  20  21
ATOM     21  C   UNL     1      -0.828  -6.353   0.514  0.00  0.00    +0.011 C 
ATOM     22  C   UNL     1      -1.415  -7.024   1.758  0.00  0.00    +0.014 C 
ATOM     23  C   UNL     1       0.083  -6.722   1.687  0.00  0.00    +0.014 C 
BRANCH  21  24
ATOM     24  C   UNL     1      -0.719  -7.183  -0.739  0.00  0.00    -0.040 A 
ATOM     25  C   UNL     1      -1.760  -7.199  -1.650  0.00  0.00    +0.005 A 
ATOM     26  C   UNL     1      -1.660  -7.959  -2.799  0.00  0.00    +0.020 A 
ATOM     27  C   UNL     1      -0.520  -8.705  -3.039  0.00  0.00    +0.041 A 
ATOM     28  C   UNL     1       0.521  -8.688  -2.128  0.00  0.00    +0.020 A 
ATOM     29  C   UNL     1       0.423  -7.923  -0.981  0.00  0.00    +0.005 A 
ATOM     30 CL   UNL     1      -0.395  -9.661  -4.483  0.00  0.00    -0.084 Cl
ENDBRANCH  21  24
ENDBRANCH  20  21
ENDBRANCH   4  20
TORSDOF 7
