REMARK  Name = ZINC18176703
REMARK  7 active torsions:
REMARK  status: ('A' for Active; 'I' for Inactive)
REMARK    1  A    between atoms: C_1  and  C_2
REMARK    2  A    between atoms: C_2  and  N_3
REMARK    3  A    between atoms: N_3  and  C_4
REMARK    4  A    between atoms: C_4  and  C_5
REMARK    5  A    between atoms: N_13  and  C_14
REMARK    6  A    between atoms: C_17  and  S_20
REMARK    7  A    between atoms: S_20  and  N_23
REMARK                            x       y       z     vdW  Elec       q    Type
REMARK                         _______ _______ _______ _____ _____    ______ ____
ROOT
ATOM      1  N   UNL     1       1.409   1.858   0.015  0.00  0.00    -0.281 N 
ATOM      2  C   UNL     1       2.066   2.085   1.169  0.00  0.00    +0.307 C 
ATOM      3  O   UNL     1       1.579   1.732   2.226  0.00  0.00    -0.252 OA
ATOM      4  N   UNL     1       3.264   2.703   1.153  0.00  0.00    -0.269 N 
ATOM      5  H   UNL     1       3.688   2.916   0.307  0.00  0.00    +0.156 HD
ENDROOT
BRANCH   4   6
ATOM      6  C   UNL     1       3.895   3.038   2.356  0.00  0.00    +0.035 A 
ATOM      7  C   UNL     1       3.138   3.400   3.462  0.00  0.00    +0.025 A 
ATOM      8  C   UNL     1       3.764   3.725   4.649  0.00  0.00    +0.030 A 
ATOM      9  C   UNL     1       5.144   3.701   4.734  0.00  0.00    +0.105 A 
ATOM     10  C   UNL     1       5.901   3.346   3.633  0.00  0.00    +0.030 A 
ATOM     11  C   UNL     1       5.281   3.015   2.445  0.00  0.00    +0.025 A 
BRANCH   9  12
ATOM     12  S   UNL     1       5.939   4.123   6.249  0.00  0.00    +0.056 S 
ATOM     13  O   UNL     1       4.992   3.889   7.283  0.00  0.00    -0.153 OA
ATOM     14  O   UNL     1       7.213   3.495   6.228  0.00  0.00    -0.153 OA
BRANCH  12  15
ATOM     15  N   UNL     1       6.215   5.755   6.220  0.00  0.00    -0.204 NA
ATOM     16  H   UNL     1       5.942   6.279   5.450  0.00  0.00    +0.144 HD
ATOM     17  H   UNL     1       6.649   6.187   6.972  0.00  0.00    +0.144 HD
ENDBRANCH  12  15
ENDBRANCH   9  12
ENDBRANCH   4   6
BRANCH   1  19
ATOM     18  C   UNL     1       1.542   3.710  -1.577  0.00  0.00    +0.024 C 
ATOM     19  C   UNL     1       1.996   2.284  -1.258  0.00  0.00    +0.106 C 
ENDBRANCH   1  19
BRANCH   1  20
ATOM     20  C   UNL     1       0.107   1.186   0.033  0.00  0.00    +0.151 C 
BRANCH  20  21
ATOM     21  C   UNL     1       0.309  -0.303  -0.083  0.00  0.00    +0.009 A 
ATOM     22  C   UNL     1       0.476  -1.220   0.900  0.00  0.00    +0.014 A 
ATOM     23  C   UNL     1       0.646  -2.549   0.557  0.00  0.00    +0.028 A 
ATOM     24  C   UNL     1       0.640  -2.893  -0.755  0.00  0.00    +0.078 A 
ATOM     25  S   UNL     1       0.382  -1.316  -1.551  0.00  0.00    -0.080 S 
ATOM     26 CL   UNL     1       0.828  -4.463  -1.474  0.00  0.00    -0.076 Cl
ENDBRANCH  20  21
ENDBRANCH   1  20
TORSDOF 6
