REMARK  Name = ZINC66071851
REMARK  13 active torsions:
REMARK  status: ('A' for Active; 'I' for Inactive)
REMARK    1  A    between atoms: C_1  and  C_2
REMARK    2  A    between atoms: C_2  and  C_3
REMARK    3  A    between atoms: C_3  and  C_5
REMARK    4  A    between atoms: C_3  and  N_6
REMARK    5  A    between atoms: C_7  and  C_9
REMARK    6  A    between atoms: C_12  and  N_15
REMARK    7  A    between atoms: C_16  and  C_18
REMARK    8  A    between atoms: C_18  and  N_19
REMARK    9  A    between atoms: N_19  and  C_20
REMARK   10  A    between atoms: C_23  and  N_26
REMARK   11  A    between atoms: C_27  and  C_29
REMARK   12  A    between atoms: C_29  and  C_30
REMARK   13  A    between atoms: C_29  and  C_31
REMARK                            x       y       z     vdW  Elec       q    Type
REMARK                         _______ _______ _______ _____ _____    ______ ____
ROOT
ATOM      1  N   UNL     1       8.238   1.685  -2.150  0.00  0.00    -0.284 N 
ATOM      2  C   UNL     1       8.963   1.718  -3.285  0.00  0.00    +0.234 C 
ATOM      3  O   UNL     1       8.429   1.501  -4.352  0.00  0.00    -0.274 OA
ATOM      4  H   UNL     1       8.647   1.930  -1.305  0.00  0.00    +0.155 HD
ENDROOT
BRANCH   1   8
ATOM      5  C   UNL     1       4.237   0.531  -2.266  0.00  0.00    +0.037 A 
ATOM      6  C   UNL     1       5.158  -0.045  -3.146  0.00  0.00    +0.015 A 
ATOM      7  C   UNL     1       6.479   0.339  -3.105  0.00  0.00    +0.024 A 
ATOM      8  C   UNL     1       6.898   1.299  -2.189  0.00  0.00    +0.033 A 
ATOM      9  C   UNL     1       5.984   1.875  -1.312  0.00  0.00    +0.024 A 
ATOM     10  C   UNL     1       4.660   1.499  -1.351  0.00  0.00    +0.015 A 
BRANCH   5  12
ATOM     11  N   UNL     1       2.413  -0.811  -3.190  0.00  0.00    -0.309 N 
ATOM     12  C   UNL     1       2.819   0.122  -2.307  0.00  0.00    +0.244 C 
ATOM     13  O   UNL     1       2.018   0.628  -1.545  0.00  0.00    -0.270 OA
ATOM     14  H   UNL     1       3.051  -1.215  -3.798  0.00  0.00    +0.149 HD
BRANCH  11  15
ATOM     15  C   UNL     1       1.005  -1.217  -3.231  0.00  0.00    +0.070 C 
ATOM     16  C   UNL     1       0.221  -0.248  -4.117  0.00  0.00    +0.028 C 
BRANCH  15  18
ATOM     17  C   UNL     1       1.578  -3.619  -2.852  0.00  0.00    +0.005 C 
ATOM     18  C   UNL     1       0.899  -2.632  -3.803  0.00  0.00    +0.018 C 
ENDBRANCH  15  18
ENDBRANCH  11  15
ENDBRANCH   5  12
ENDBRANCH   1   8
BRANCH   2  19
ATOM     19  C   UNL     1      10.438   2.023  -3.228  0.00  0.00    +0.198 C 
BRANCH  19  20
ATOM     20  N   UNL     1      10.994   1.998  -4.584  0.00  0.00    -0.335 N 
ATOM     21  H   UNL     1      10.419   1.805  -5.340  0.00  0.00    +0.147 HD
BRANCH  20  22
ATOM     22  C   UNL     1      12.354   2.254  -4.786  0.00  0.00    +0.028 A 
ATOM     23  C   UNL     1      13.179   2.526  -3.702  0.00  0.00    +0.025 A 
ATOM     24  C   UNL     1      14.521   2.778  -3.902  0.00  0.00    +0.025 A 
ATOM     25  C   UNL     1      15.047   2.761  -5.187  0.00  0.00    +0.034 A 
ATOM     26  C   UNL     1      14.223   2.490  -6.271  0.00  0.00    +0.025 A 
ATOM     27  C   UNL     1      12.881   2.231  -6.071  0.00  0.00    +0.025 A 
BRANCH  25  28
ATOM     28  N   UNL     1      16.410   3.018  -5.390  0.00  0.00    -0.285 N 
ATOM     29  C   UNL     1      17.317   2.593  -4.489  0.00  0.00    +0.220 C 
ATOM     30  O   UNL     1      16.949   2.062  -3.462  0.00  0.00    -0.275 OA
ATOM     31  H   UNL     1      16.700   3.502  -6.179  0.00  0.00    +0.155 HD
BRANCH  29  32
ATOM     32  C   UNL     1      18.789   2.776  -4.758  0.00  0.00    +0.069 C 
ATOM     33  C   UNL     1      19.595   2.211  -3.586  0.00  0.00    +0.017 C 
ATOM     34  C   UNL     1      19.169   2.037  -6.042  0.00  0.00    +0.017 C 
ENDBRANCH  29  32
ENDBRANCH  25  28
ENDBRANCH  20  22
ENDBRANCH  19  20
ENDBRANCH   2  19
TORSDOF 9
