REMARK  Name = ZINC39969173
REMARK  6 active torsions:
REMARK  status: ('A' for Active; 'I' for Inactive)
REMARK    1  A    between atoms: C_1  and  C_2
REMARK    2  A    between atoms: C_6  and  C_8
REMARK    3  A    between atoms: C_12  and  S_21
REMARK    4  A    between atoms: N_14  and  C_15
REMARK    5  A    between atoms: S_21  and  C_22
REMARK    6  A    between atoms: C_22  and  C_23
REMARK                            x       y       z     vdW  Elec       q    Type
REMARK                         _______ _______ _______ _____ _____    ______ ____
ROOT
ATOM      1  C   UNL     1       0.203  -2.771   2.323  0.00  0.00    +0.188 C 
ATOM      2  N   UNL     1       0.973  -2.090   3.388  0.00  0.00    -0.230 NA
ATOM      3  N   UNL     1       1.401  -3.178   4.282  0.00  0.00    -0.226 NA
ATOM      4  C   UNL     1       1.708  -4.285   3.338  0.00  0.00    +0.218 C 
ATOM      5  N   UNL     1       0.670  -4.168   2.292  0.00  0.00    -0.284 N 
ATOM      6  H   UNL     1       0.398  -1.423   3.880  0.00  0.00    +0.143 HD
ATOM      7  H   UNL     1       2.222  -2.913   4.807  0.00  0.00    +0.143 HD
ENDROOT
BRANCH   1  13
ATOM      8  C   UNL     1      -1.463  -0.228  -1.652  0.00  0.00    +0.044 C 
ATOM      9  C   UNL     1      -0.334  -0.893  -0.908  0.00  0.00    -0.050 A 
ATOM     10  C   UNL     1       0.940  -0.898  -1.444  0.00  0.00    +0.003 A 
ATOM     11  C   UNL     1       1.975  -1.508  -0.762  0.00  0.00    +0.001 A 
ATOM     12  C   UNL     1       1.737  -2.115   0.457  0.00  0.00    +0.007 A 
ATOM     13  C   UNL     1       0.463  -2.110   0.994  0.00  0.00    -0.011 A 
ATOM     14  C   UNL     1      -0.572  -1.495   0.313  0.00  0.00    +0.010 A 
ENDBRANCH   1  13
BRANCH   5  15
ATOM     15  C   UNL     1       0.222  -5.181   1.441  0.00  0.00    +0.033 A 
ATOM     16  C   UNL     1      -0.852  -4.951   0.590  0.00  0.00    +0.023 A 
ATOM     17  C   UNL     1      -1.293  -5.955  -0.250  0.00  0.00    +0.002 A 
ATOM     18  C   UNL     1      -0.666  -7.188  -0.245  0.00  0.00    +0.000 A 
ATOM     19  C   UNL     1       0.403  -7.420   0.601  0.00  0.00    +0.002 A 
ATOM     20  C   UNL     1       0.852  -6.419   1.440  0.00  0.00    +0.023 A 
ENDBRANCH   5  15
BRANCH   4  21
ATOM     21  S   UNL     1       1.587  -5.888   4.179  0.00  0.00    -0.114 S 
BRANCH  21  22
ATOM     22  C   UNL     1      -0.119  -5.934   4.793  0.00  0.00    +0.146 C 
BRANCH  22  23
ATOM     23  C   UNL     1      -0.355  -7.231   5.522  0.00  0.00    +0.120 A 
ATOM     24  N   UNL     1      -1.585  -7.457   6.054  0.00  0.00    -0.310 N 
ATOM     25  H   UNL     1      -2.281  -6.788   5.957  0.00  0.00    +0.170 HD
ATOM     26  C   UNL     1      -1.848  -8.607   6.718  0.00  0.00    +0.259 A 
ATOM     27  O   UNL     1      -2.946  -8.822   7.198  0.00  0.00    -0.267 OA
ATOM     28  C   UNL     1      -0.757  -9.586   6.835  0.00  0.00    +0.065 A 
ATOM     29  C   UNL     1      -0.924 -10.800   7.498  0.00  0.00    +0.015 A 
ATOM     30  C   UNL     1       0.132 -11.680   7.579  0.00  0.00    +0.001 A 
ATOM     31  C   UNL     1       1.358 -11.367   7.005  0.00  0.00    +0.002 A 
ATOM     32  C   UNL     1       1.544 -10.173   6.345  0.00  0.00    +0.028 A 
ATOM     33  C   UNL     1       0.488  -9.264   6.250  0.00  0.00    +0.078 A 
ATOM     34  N   UNL     1       0.625  -8.079   5.605  0.00  0.00    -0.233 NA
ENDBRANCH  22  23
ENDBRANCH  21  22
ENDBRANCH   4  21
TORSDOF 5
