REMARK  Name = ZINC36586669
REMARK  15 active torsions:
REMARK  status: ('A' for Active; 'I' for Inactive)
REMARK    1  A    between atoms: C_1  and  C_2
REMARK    2  A    between atoms: C_2  and  C_3
REMARK    3  A    between atoms: C_2  and  C_4
REMARK    4  A    between atoms: C_2  and  N_5
REMARK    5  A    between atoms: C_6  and  C_8
REMARK    6  A    between atoms: C_8  and  C_10
REMARK    7  A    between atoms: C_8  and  N_17
REMARK    8  A    between atoms: C_15  and  O_16
REMARK    9  A    between atoms: N_17  and  C_28
REMARK   10  A    between atoms: C_18  and  C_20
REMARK   11  A    between atoms: C_21  and  O_27
REMARK   12  A    between atoms: C_25  and  O_26
REMARK   13  A    between atoms: C_28  and  C_29
REMARK   14  A    between atoms: C_28  and  C_30
REMARK   15  A    between atoms: C_28  and  C_31
REMARK                            x       y       z     vdW  Elec       q    Type
REMARK                         _______ _______ _______ _____ _____    ______ ____
ROOT
ATOM      1  C   UNL     1       2.498  -1.703  -2.670  0.00  0.00    +0.196 C 
ENDROOT
BRANCH   1   2
ATOM      2  C   UNL     1       1.568  -1.643  -3.854  0.00  0.00    +0.023 A 
ATOM      3  C   UNL     1       0.421  -0.874  -3.795  0.00  0.00    +0.009 A 
ATOM      4  C   UNL     1      -0.433  -0.819  -4.880  0.00  0.00    +0.001 A 
ATOM      5  C   UNL     1      -0.141  -1.532  -6.029  0.00  0.00    +0.004 A 
ATOM      6  C   UNL     1       1.004  -2.301  -6.094  0.00  0.00    +0.046 A 
ATOM      7  C   UNL     1       1.865  -2.354  -5.007  0.00  0.00    +0.122 A 
BRANCH   7   8
ATOM      8  O   UNL     1       2.996  -3.106  -5.071  0.00  0.00    -0.506 OA
ATOM      9  H   UNL     1       2.862  -4.037  -4.849  0.00  0.00    +0.292 HD
ENDBRANCH   7   8
ENDBRANCH   1   2
BRANCH   1  11
ATOM     10  N   UNL     1       0.760  -1.829  -0.914  0.00  0.00    -0.309 N 
ATOM     11  C   UNL     1       1.797  -1.157  -1.453  0.00  0.00    +0.239 C 
ATOM     12  O   UNL     1       2.166  -0.113  -0.957  0.00  0.00    -0.273 OA
ATOM     13  H   UNL     1       0.419  -2.626  -1.351  0.00  0.00    +0.149 HD
BRANCH  10  15
ATOM     14  C   UNL     1      -0.394   0.058   0.128  0.00  0.00    +0.031 C 
ATOM     15  C   UNL     1       0.149  -1.358   0.331  0.00  0.00    +0.026 C 
ATOM     16  C   UNL     1       1.200  -1.347   1.443  0.00  0.00    +0.031 C 
ATOM     17  C   UNL     1      -0.997  -2.293   0.722  0.00  0.00    +0.031 C 
ENDBRANCH  10  15
ENDBRANCH   1  11
BRANCH   1  18
ATOM     18  N   UNL     1       3.693  -0.901  -2.946  0.00  0.00    -0.277 N 
ATOM     19  C   UNL     1       3.567   0.389  -3.318  0.00  0.00    +0.255 C 
ATOM     20  O   UNL     1       2.470   0.913  -3.335  0.00  0.00    -0.270 OA
BRANCH  19  21
ATOM     21  C   UNL     1       4.759   1.163  -3.702  0.00  0.00    +0.119 A 
ATOM     22  C   UNL     1       5.217   1.144  -5.027  0.00  0.00    +0.133 A 
ATOM     23  C   UNL     1       6.339   1.877  -5.378  0.00  0.00    +0.046 A 
ATOM     24  C   UNL     1       7.007   2.625  -4.427  0.00  0.00    +0.007 A 
ATOM     25  C   UNL     1       6.565   2.651  -3.117  0.00  0.00    +0.046 A 
ATOM     26  C   UNL     1       5.442   1.930  -2.746  0.00  0.00    +0.133 A 
BRANCH  26  27
ATOM     27  O   UNL     1       5.006   1.962  -1.462  0.00  0.00    -0.506 OA
ATOM     28  H   UNL     1       5.392   1.277  -0.898  0.00  0.00    +0.292 HD
ENDBRANCH  26  27
BRANCH  22  29
ATOM     29  O   UNL     1       4.563   0.410  -5.963  0.00  0.00    -0.506 OA
ATOM     30  H   UNL     1       3.861   0.892  -6.421  0.00  0.00    +0.292 HD
ENDBRANCH  22  29
ENDBRANCH  19  21
BRANCH  18  31
ATOM     31  C   UNL     1       5.023  -1.500  -2.818  0.00  0.00    +0.030 C 
ATOM     32  C   UNL     1       4.883  -3.001  -2.554  0.00  0.00    +0.031 C 
ATOM     33  C   UNL     1       5.807  -1.282  -4.114  0.00  0.00    +0.031 C 
ATOM     34  C   UNL     1       5.769  -0.845  -1.654  0.00  0.00    +0.031 C 
ENDBRANCH  18  31
ENDBRANCH   1  18
TORSDOF 9
