REMARK  Name = ZINC36262172
REMARK  2 active torsions:
REMARK  status: ('A' for Active; 'I' for Inactive)
REMARK    1  A    between atoms: C_2  and  C_10
REMARK    2  A    between atoms: C_18  and  N_24
REMARK                            x       y       z     vdW  Elec       q    Type
REMARK                         _______ _______ _______ _____ _____    ______ ____
ROOT
ATOM      1  C   UNL     1       1.207   3.571   0.009  0.00  0.00    +0.265 C 
ATOM      2  O   UNL     1       0.163   4.193   0.022  0.00  0.00    -0.268 OA
ATOM      3  N   UNL     1       2.383   4.229   0.002  0.00  0.00    -0.296 N 
ATOM      4  C   UNL     1       3.718   3.605  -0.021  0.00  0.00    +0.112 C 
ATOM      5  C   UNL     1       4.736   4.753  -0.039  0.00  0.00    +0.011 C 
ATOM      6  C   UNL     1       5.982   4.425  -0.824  0.00  0.00    +0.004 C 
ATOM      7  C   UNL     1       5.679   4.249  -2.312  0.00  0.00    -0.016 C 
ATOM      8  C   UNL     1       5.064   5.553  -2.833  0.00  0.00    -0.075 C 
ATOM      9  C   UNL     1       3.733   5.779  -2.120  0.00  0.00    -0.011 C 
ATOM     10  C   UNL     1       3.947   5.934  -0.635  0.00  0.00    +0.009 C 
ATOM     11  C   UNL     1       2.550   5.696   0.007  0.00  0.00    +0.112 C 
ENDROOT
BRANCH   1  13
ATOM     12  C   UNL     1      -0.017   1.408   0.010  0.00  0.00    +0.103 A 
ATOM     13  C   UNL     1       1.187   2.085   0.002  0.00  0.00    +0.136 A 
ATOM     14  N   UNL     1       2.336   1.397  -0.013  0.00  0.00    -0.188 NA
ATOM     15  C   UNL     1       2.347   0.084  -0.020  0.00  0.00    +0.349 A 
ATOM     16  O   UNL     1       3.529  -0.566  -0.035  0.00  0.00    -0.245 OA
ATOM     17  N   UNL     1       1.195  -0.636  -0.012  0.00  0.00    -0.274 N 
ATOM     18  H   UNL     1       1.229  -1.605  -0.018  0.00  0.00    +0.173 HD
ATOM     19  C   UNL     1       0.002  -0.004   0.002  0.00  0.00    +0.255 A 
ATOM     20  O   UNL     1      -1.038  -0.640   0.009  0.00  0.00    -0.268 OA
ENDBRANCH   1  13
BRANCH   8  21
ATOM     21  N   UNL     1       4.842   5.449  -4.281  0.00  0.00    +0.380 N 
ATOM     22  H   UNL     1       4.213   4.682  -4.471  0.00  0.00    -0.090 HD
ATOM     23  H   UNL     1       4.436   6.308  -4.622  0.00  0.00    -0.090 HD
ATOM     24  H   UNL     1       5.722   5.285  -4.746  0.00  0.00    -0.090 HD
ENDBRANCH   8  21
TORSDOF 2
