REMARK  Name = ZINC45599324
REMARK  9 active torsions:
REMARK  status: ('A' for Active; 'I' for Inactive)
REMARK    1  A    between atoms: C_1  and  C_2
REMARK    2  A    between atoms: C_11  and  N_31
REMARK    3  A    between atoms: C_13  and  C_15
REMARK    4  A    between atoms: C_15  and  S_16
REMARK    5  A    between atoms: S_16  and  C_17
REMARK    6  A    between atoms: C_20  and  C_23
REMARK    7  A    between atoms: N_21  and  N_22
REMARK    8  A    between atoms: C_26  and  O_29
REMARK    9  A    between atoms: O_29  and  C_30
REMARK                            x       y       z     vdW  Elec       q    Type
REMARK                         _______ _______ _______ _____ _____    ______ ____
ROOT
ATOM      1  C   UNL     1      -0.502  -8.063   2.513  0.00  0.00    +0.153 C 
ENDROOT
BRANCH   1  13
ATOM      2  C   UNL     1       0.591   1.266  -0.734  0.00  0.00    +0.008 C 
ATOM      3  C   UNL     1       0.464  -0.251  -0.580  0.00  0.00    -0.009 C 
ATOM      4  C   UNL     1      -1.014  -0.634  -0.460  0.00  0.00    +0.008 C 
ATOM      5  C   UNL     1      -1.166  -2.152  -0.556  0.00  0.00    +0.037 C 
ATOM      6  C   UNL     1      -0.236  -2.807   0.463  0.00  0.00    -0.025 A 
ATOM      7  C   UNL     1       0.801  -2.118   0.989  0.00  0.00    -0.004 A 
ATOM      8  S   UNL     1       1.596  -3.248   2.103  0.00  0.00    -0.073 S 
ATOM      9  C   UNL     1       0.540  -4.640   1.865  0.00  0.00    +0.114 A 
ATOM     10  C   UNL     1      -0.407  -4.177   0.916  0.00  0.00    +0.051 A 
ATOM     11  C   UNL     1      -1.416  -5.098   0.513  0.00  0.00    +0.128 A 
ATOM     12  N   UNL     1      -1.360  -6.304   1.076  0.00  0.00    -0.216 NA
ATOM     13  C   UNL     1      -0.446  -6.664   1.955  0.00  0.00    +0.143 A 
ATOM     14  N   UNL     1       0.521  -5.856   2.373  0.00  0.00    -0.224 NA
ATOM     15  C   UNL     1       1.197  -0.704   0.691  0.00  0.00    +0.046 C 
BRANCH  11  16
ATOM     16  N   UNL     1      -2.393  -4.761  -0.406  0.00  0.00    -0.343 N 
ATOM     17  H   UNL     1      -2.279  -3.981  -0.971  0.00  0.00    +0.144 HD
ATOM     18  H   UNL     1      -3.193  -5.304  -0.484  0.00  0.00    +0.144 HD
ENDBRANCH  11  16
ENDBRANCH   1  13
BRANCH   1  19
ATOM     19  S   UNL     1       0.481  -9.171   1.466  0.00  0.00    -0.077 S 
BRANCH  19  20
ATOM     20  C   UNL     1       0.318 -10.745   2.240  0.00  0.00    +0.209 A 
ATOM     21  N   UNL     1      -0.375 -11.013   3.324  0.00  0.00    -0.121 NA
ATOM     22  N   UNL     1      -0.279 -12.261   3.613  0.00  0.00    -0.127 NA
ATOM     23  C   UNL     1       0.482 -12.868   2.731  0.00  0.00    +0.182 A 
ATOM     24  N   UNL     1       0.883 -11.917   1.822  0.00  0.00    -0.224 N 
BRANCH  23  25
ATOM     25  C   UNL     1       0.836 -14.303   2.716  0.00  0.00    +0.021 A 
ATOM     26  C   UNL     1       1.893 -14.755   1.924  0.00  0.00    +0.015 A 
ATOM     27  C   UNL     1       2.220 -16.094   1.913  0.00  0.00    +0.046 A 
ATOM     28  C   UNL     1       1.500 -16.993   2.688  0.00  0.00    +0.120 A 
ATOM     29  C   UNL     1       0.448 -16.548   3.477  0.00  0.00    +0.046 A 
ATOM     30  C   UNL     1       0.118 -15.209   3.498  0.00  0.00    +0.015 A 
BRANCH  28  31
ATOM     31  O   UNL     1       1.825 -18.312   2.673  0.00  0.00    -0.495 OA
ATOM     32  C   UNL     1       1.043 -19.182   3.494  0.00  0.00    +0.277 C 
ENDBRANCH  28  31
ENDBRANCH  23  25
BRANCH  24  33
ATOM     33  N   UNL     1       1.681 -12.104   0.730  0.00  0.00    -0.295 N 
ATOM     34  H   UNL     1       2.654 -11.975   0.966  0.00  0.00    +0.163 HD
ATOM     35  H   UNL     1       1.527 -13.013   0.320  0.00  0.00    +0.163 HD
ENDBRANCH  24  33
ENDBRANCH  19  20
ENDBRANCH   1  19
TORSDOF 7
