REMARK  Name = ZINC65136156
REMARK  8 active torsions:
REMARK  status: ('A' for Active; 'I' for Inactive)
REMARK    1  A    between atoms: C_1  and  C_2
REMARK    2  A    between atoms: C_7  and  C_8
REMARK    3  A    between atoms: N_10  and  N_11
REMARK    4  A    between atoms: N_14  and  C_15
REMARK    5  A    between atoms: C_15  and  C_16
REMARK    6  A    between atoms: C_16  and  C_17
REMARK    7  A    between atoms: C_17  and  C_18
REMARK    8  A    between atoms: C_17  and  C_19
REMARK                            x       y       z     vdW  Elec       q    Type
REMARK                         _______ _______ _______ _____ _____    ______ ____
ROOT
ATOM      1  C   UNL     1       0.032  -0.391   2.496  0.00  0.00    +0.277 C 
ATOM      2  O   UNL     1       0.019   0.795   2.765  0.00  0.00    -0.267 OA
ATOM      3  N   UNL     1       0.055  -1.306   3.486  0.00  0.00    -0.228 N 
ATOM      4  H   UNL     1       0.065  -2.252   3.271  0.00  0.00    +0.173 HD
ENDROOT
BRANCH   1  11
ATOM      5  C   UNL     1      -0.018   1.503   0.010  0.00  0.00    +0.047 C 
ATOM      6  C   UNL     1       0.002  -0.004   0.002  0.00  0.00    -0.010 A 
ATOM      7  C   UNL     1       0.008  -0.834  -1.125  0.00  0.00    +0.042 A 
ATOM      8  C   UNL     1       0.026  -2.155  -0.678  0.00  0.00    +0.027 A 
ATOM      9  N   UNL     1       0.035  -2.137   0.655  0.00  0.00    -0.354 N 
ATOM     10  H   UNL     1       0.049  -2.920   1.227  0.00  0.00    +0.166 HD
ATOM     11  C   UNL     1       0.024  -0.827   1.094  0.00  0.00    +0.107 A 
ATOM     12  C   UNL     1       0.032  -3.337  -1.615  0.00  0.00    +0.054 C 
ATOM     13  C   UNL     1      -0.488  -2.895  -2.987  0.00  0.00    +0.014 C 
ATOM     14  C   UNL     1       0.287  -1.673  -3.491  0.00  0.00    +0.080 C 
ATOM     15  C   UNL     1       0.002  -0.505  -2.559  0.00  0.00    +0.165 C 
ATOM     16  O   UNL     1      -0.216   0.616  -2.968  0.00  0.00    -0.292 OA
ENDBRANCH   1  11
BRANCH   3  17
ATOM     17  N   UNL     1       0.062  -0.891   4.824  0.00  0.00    -0.218 N 
ATOM     18  C   UNL     1       0.085  -1.806   5.813  0.00  0.00    +0.316 C 
ATOM     19  O   UNL     1       0.092  -1.445   6.974  0.00  0.00    -0.251 OA
ATOM     20  N   UNL     1       0.099  -3.120   5.516  0.00  0.00    -0.298 N 
ATOM     21  H   UNL     1       0.052   0.055   5.038  0.00  0.00    +0.174 HD
ATOM     22  H   UNL     1       0.094  -3.408   4.589  0.00  0.00    +0.150 HD
BRANCH  20  23
ATOM     23  C   UNL     1       0.123  -4.114   6.591  0.00  0.00    +0.106 C 
BRANCH  23  24
ATOM     24  C   UNL     1       0.136  -5.520   5.986  0.00  0.00    +0.022 C 
BRANCH  24  25
ATOM     25  C   UNL     1       0.161  -6.558   7.109  0.00  0.00    -0.016 C 
ATOM     26  C   UNL     1       0.048  -7.961   6.510  0.00  0.00    +0.007 C 
ATOM     27  C   UNL     1       1.475  -6.439   7.885  0.00  0.00    +0.007 C 
ENDBRANCH  24  25
ENDBRANCH  23  24
ENDBRANCH  20  23
ENDBRANCH   3  17
TORSDOF 5
