REMARK  Name = ZINC51168315
REMARK  3 active torsions:
REMARK  status: ('A' for Active; 'I' for Inactive)
REMARK    1  A    between atoms: C_2  and  C_11
REMARK    2  A    between atoms: C_15  and  N_17
REMARK    3  A    between atoms: N_17  and  N_18
REMARK                            x       y       z     vdW  Elec       q    Type
REMARK                         _______ _______ _______ _____ _____    ______ ____
ROOT
ATOM      1  C   UNL     1       1.165   3.573   0.010  0.00  0.00    +0.162 A 
ATOM      2  N   UNL     1       2.315   4.232  -0.003  0.00  0.00    -0.232 NA
ATOM      3  C   UNL     1       2.341   5.558   0.003  0.00  0.00    +0.050 A 
ATOM      4  C   UNL     1       1.149   6.253   0.023  0.00  0.00    +0.015 A 
ATOM      5  C   UNL     1      -0.048   5.533   0.037  0.00  0.00    +0.139 A 
ATOM      6  N   UNL     1      -0.000   4.205   0.024  0.00  0.00    -0.211 NA
ATOM      7  C   UNL     1       1.420   7.740   0.027  0.00  0.00    +0.041 C 
ATOM      8  C   UNL     1       2.901   7.878   0.443  0.00  0.00    +0.011 C 
ATOM      9  C   UNL     1       3.500   6.529  -0.009  0.00  0.00    +0.056 C 
ENDROOT
BRANCH   1  11
ATOM     10  C   UNL     1      -0.017   1.378   0.010  0.00  0.00    +0.061 A 
ATOM     11  C   UNL     1       1.182   2.091   0.002  0.00  0.00    +0.024 A 
ATOM     12  C   UNL     1       2.397   1.407  -0.013  0.00  0.00    +0.030 A 
ATOM     13  C   UNL     1       2.412   0.026  -0.021  0.00  0.00    +0.064 A 
ATOM     14  C   UNL     1       1.219  -0.684  -0.013  0.00  0.00    +0.180 A 
ATOM     15  C   UNL     1       0.002  -0.004   0.002  0.00  0.00    +0.168 A 
ATOM     16  O   UNL     1      -1.009  -0.921   0.007  0.00  0.00    -0.453 OA
ATOM     17  C   UNL     1      -0.408  -2.159  -0.418  0.00  0.00    +0.466 C 
ATOM     18  O   UNL     1       0.969  -2.025  -0.018  0.00  0.00    -0.451 OA
ATOM     19 BR   UNL     1       4.061  -0.899  -0.042  0.00  0.00    -0.046 Br
ENDBRANCH   1  11
BRANCH   5  20
ATOM     20  N   UNL     1      -1.266   6.193   0.058  0.00  0.00    -0.267 N 
ATOM     21  H   UNL     1      -1.292   7.163   0.063  0.00  0.00    +0.167 HD
BRANCH  20  22
ATOM     22  N   UNL     1      -2.430   5.479   0.071  0.00  0.00    -0.255 NA
ATOM     23  H   UNL     1      -3.230   6.092   0.086  0.00  0.00    +0.140 HD
ATOM     24  H   UNL     1      -2.474   4.845  -0.713  0.00  0.00    +0.140 HD
ENDBRANCH  20  22
ENDBRANCH   5  20
TORSDOF 3
