REMARK  Name = ZINC27254350
REMARK  10 active torsions:
REMARK  status: ('A' for Active; 'I' for Inactive)
REMARK    1  A    between atoms: C_1  and  C_2
REMARK    2  A    between atoms: C_7  and  N_12
REMARK    3  A    between atoms: C_9  and  C_11
REMARK    4  A    between atoms: N_12  and  C_13
REMARK    5  A    between atoms: C_13  and  N_15
REMARK    6  A    between atoms: N_15  and  N_16
REMARK    7  A    between atoms: C_17  and  C_19
REMARK    8  A    between atoms: C_19  and  C_20
REMARK    9  A    between atoms: C_20  and  N_21
REMARK   10  A    between atoms: C_22  and  C_24
REMARK                            x       y       z     vdW  Elec       q    Type
REMARK                         _______ _______ _______ _____ _____    ______ ____
ROOT
ATOM      1  N   UNL     1       3.903   2.570   0.005  0.00  0.00    -0.235 N 
ATOM      2  C   UNL     1       5.167   3.037  -0.004  0.00  0.00    +0.231 C 
ATOM      3  O   UNL     1       6.028   2.443  -0.618  0.00  0.00    -0.274 OA
ATOM      4  H   UNL     1       3.122   3.109   0.562  0.00  0.00    +0.173 HD
ENDROOT
BRANCH   1   5
ATOM      5  N   UNL     1       3.583   1.399  -0.694  0.00  0.00    -0.246 N 
ATOM      6  H   UNL     1       4.364   0.861  -1.251  0.00  0.00    +0.172 HD
BRANCH   5   7
ATOM      7  C   UNL     1       2.318   0.933  -0.685  0.00  0.00    +0.147 C 
ATOM      8  S   UNL     1       1.927  -0.498  -1.539  0.00  0.00    -0.017 S 
BRANCH   7   9
ATOM      9  N   UNL     1       1.362   1.593  -0.002  0.00  0.00    -0.322 N 
ATOM     10  H   UNL     1       1.613   2.513   0.547  0.00  0.00    +0.148 HD
BRANCH   9  16
ATOM     11  C   UNL     1      -2.880   1.543   2.537  0.00  0.00    +0.008 C 
ATOM     12  C   UNL     1      -2.164   1.050   1.278  0.00  0.00    -0.009 C 
ATOM     13  C   UNL     1      -2.904   1.556   0.038  0.00  0.00    +0.003 C 
ATOM     14  C   UNL     1      -2.188   1.063  -1.221  0.00  0.00    +0.002 C 
ATOM     15  C   UNL     1      -0.753   1.593  -1.232  0.00  0.00    +0.022 C 
ATOM     16  C   UNL     1      -0.013   1.086   0.008  0.00  0.00    +0.075 C 
ATOM     17  C   UNL     1      -0.729   1.579   1.267  0.00  0.00    +0.009 C 
ATOM     18  C   UNL     1       0.011   1.072   2.506  0.00  0.00    +0.009 C 
ENDBRANCH   9  16
ENDBRANCH   7   9
ENDBRANCH   5   7
ENDBRANCH   1   5
BRANCH   2  19
ATOM     19  C   UNL     1       5.511   4.297   0.748  0.00  0.00    +0.116 C 
BRANCH  19  20
ATOM     20  C   UNL     1       7.000   4.603   0.575  0.00  0.00    +0.114 C 
BRANCH  20  21
ATOM     21  N   UNL     1       7.335   5.828   1.306  0.00  0.00    -0.310 N 
ATOM     22  C   UNL     1       8.599   6.295   1.296  0.00  0.00    +0.251 C 
ATOM     23  O   UNL     1       9.463   5.698   0.680  0.00  0.00    -0.270 OA
ATOM     24  H   UNL     1       6.554   6.367   1.863  0.00  0.00    +0.149 HD
BRANCH  22  25
ATOM     25  C   UNL     1       8.934   7.520   2.028  0.00  0.00    +0.074 A 
ATOM     26  C   UNL     1      10.157   8.161   2.145  0.00  0.00    +0.021 A 
ATOM     27  C   UNL     1      10.192   9.307   2.899  0.00  0.00    +0.008 A 
ATOM     28  C   UNL     1       9.049   9.752   3.484  0.00  0.00    +0.046 A 
ATOM     29  S   UNL     1       7.871   8.579   2.993  0.00  0.00    -0.092 S 
ENDBRANCH  22  25
ENDBRANCH  20  21
ENDBRANCH  19  20
ENDBRANCH   2  19
TORSDOF 8
