REMARK  Name = ZINC15081124
REMARK  12 active torsions:
REMARK  status: ('A' for Active; 'I' for Inactive)
REMARK    1  A    between atoms: C_1  and  C_2
REMARK    2  A    between atoms: C_2  and  O_41
REMARK    3  A    between atoms: C_6  and  C_30
REMARK    4  A    between atoms: C_8  and  C_23
REMARK    5  A    between atoms: C_10  and  C_12
REMARK    6  A    between atoms: N_14  and  C_15
REMARK    7  A    between atoms: C_20  and  O_21
REMARK    8  A    between atoms: O_21  and  C_22
REMARK    9  A    between atoms: C_26  and  O_29
REMARK   10  A    between atoms: N_32  and  C_33
REMARK   11  A    between atoms: C_38  and  O_39
REMARK   12  A    between atoms: O_39  and  C_40
REMARK                            x       y       z     vdW  Elec       q    Type
REMARK                         _______ _______ _______ _____ _____    ______ ____
ROOT
ATOM      1  C   UNL     1      -3.077   1.995   2.609  0.00  0.00    +0.042 C 
ATOM      2  C   UNL     1      -1.855   1.080   2.510  0.00  0.00    +0.082 C 
ATOM      3  C   UNL     1      -0.741   1.797   1.740  0.00  0.00    +0.110 C 
ATOM      4  C   UNL     1      -1.202   2.009   0.315  0.00  0.00    +0.148 C 
ATOM      5  O   UNL     1      -1.145   3.101  -0.199  0.00  0.00    -0.296 OA
ATOM      6  C   UNL     1      -1.738   0.820  -0.451  0.00  0.00    +0.149 C 
ATOM      7  C   UNL     1      -2.815   0.138   0.400  0.00  0.00    +0.053 C 
ATOM      8  C   UNL     1      -2.237  -0.205   1.774  0.00  0.00    +0.115 C 
ENDROOT
BRANCH   7   9
ATOM      9  C   UNL     1      -3.270  -1.126  -0.284  0.00  0.00    -0.042 A 
ATOM     10  C   UNL     1      -2.427  -2.220  -0.343  0.00  0.00    +0.007 A 
ATOM     11  C   UNL     1      -2.844  -3.381  -0.964  0.00  0.00    +0.045 A 
ATOM     12  C   UNL     1      -4.105  -3.446  -1.538  0.00  0.00    +0.117 A 
ATOM     13  C   UNL     1      -4.947  -2.345  -1.482  0.00  0.00    +0.045 A 
ATOM     14  C   UNL     1      -4.528  -1.187  -0.855  0.00  0.00    +0.007 A 
BRANCH  12  15
ATOM     15  O   UNL     1      -4.515  -4.586  -2.154  0.00  0.00    -0.507 OA
ATOM     16  H   UNL     1      -4.301  -4.622  -3.096  0.00  0.00    +0.292 HD
ENDBRANCH  12  15
ENDBRANCH   7   9
BRANCH   8  17
ATOM     17  C   UNL     1      -1.013  -1.066   1.601  0.00  0.00    +0.224 C 
ATOM     18  O   UNL     1       0.059  -0.555   1.351  0.00  0.00    -0.275 OA
ATOM     19  N   UNL     1      -1.108  -2.405   1.725  0.00  0.00    -0.282 N 
ATOM     20  H   UNL     1      -1.977  -2.821   1.838  0.00  0.00    +0.155 HD
BRANCH  19  21
ATOM     21  C   UNL     1       0.048  -3.196   1.690  0.00  0.00    +0.076 A 
ATOM     22  C   UNL     1       1.290  -2.624   1.929  0.00  0.00    +0.027 A 
ATOM     23  C   UNL     1       2.428  -3.406   1.894  0.00  0.00    +0.002 A 
ATOM     24  C   UNL     1       2.335  -4.758   1.621  0.00  0.00    +0.004 A 
ATOM     25  C   UNL     1       1.101  -5.335   1.381  0.00  0.00    +0.047 A 
ATOM     26  C   UNL     1      -0.046  -4.559   1.420  0.00  0.00    +0.141 A 
BRANCH  26  27
ATOM     27  O   UNL     1      -1.260  -5.126   1.191  0.00  0.00    -0.493 OA
ATOM     28  C   UNL     1      -1.281  -6.529   0.921  0.00  0.00    +0.277 C 
ENDBRANCH  26  27
ENDBRANCH  19  21
ENDBRANCH   8  17
BRANCH   6  29
ATOM     29  C   UNL     1      -0.619  -0.152  -0.723  0.00  0.00    +0.228 C 
ATOM     30  O   UNL     1      -0.855  -1.214  -1.260  0.00  0.00    -0.275 OA
ATOM     31  N   UNL     1       0.645   0.161  -0.377  0.00  0.00    -0.282 N 
ATOM     32  H   UNL     1       0.844   1.035  -0.004  0.00  0.00    +0.155 HD
BRANCH  31  33
ATOM     33  C   UNL     1       1.673  -0.774  -0.554  0.00  0.00    +0.076 A 
ATOM     34  C   UNL     1       1.455  -1.910  -1.320  0.00  0.00    +0.027 A 
ATOM     35  C   UNL     1       2.472  -2.829  -1.498  0.00  0.00    +0.002 A 
ATOM     36  C   UNL     1       3.704  -2.625  -0.904  0.00  0.00    +0.004 A 
ATOM     37  C   UNL     1       3.927  -1.499  -0.135  0.00  0.00    +0.047 A 
ATOM     38  C   UNL     1       2.915  -0.570   0.044  0.00  0.00    +0.141 A 
BRANCH  38  39
ATOM     39  O   UNL     1       3.132   0.539   0.800  0.00  0.00    -0.493 OA
ATOM     40  C   UNL     1       4.430   0.682   1.382  0.00  0.00    +0.277 C 
ENDBRANCH  38  39
ENDBRANCH  31  33
ENDBRANCH   6  29
BRANCH   2  41
ATOM     41  O   UNL     1      -1.393   0.757   3.824  0.00  0.00    -0.388 OA
ATOM     42  H   UNL     1      -1.132   1.526   4.349  0.00  0.00    +0.210 HD
ENDBRANCH   2  41
TORSDOF 9
