REMARK  Name = ZINC23054952
REMARK  7 active torsions:
REMARK  status: ('A' for Active; 'I' for Inactive)
REMARK    1  A    between atoms: C_1  and  O_2
REMARK    2  A    between atoms: O_2  and  C_3
REMARK    3  A    between atoms: C_6  and  S_24
REMARK    4  A    between atoms: C_8  and  C_9
REMARK    5  A    between atoms: N_11  and  C_12
REMARK    6  A    between atoms: C_17  and  C_20
REMARK    7  A    between atoms: S_24  and  N_27
REMARK                            x       y       z     vdW  Elec       q    Type
REMARK                         _______ _______ _______ _____ _____    ______ ____
ROOT
ATOM      1  C   UNL     1       2.400   0.014  -0.021  0.00  0.00    +0.132 A 
ATOM      2  C   UNL     1       1.202  -0.686  -0.013  0.00  0.00    +0.048 A 
ATOM      3  C   UNL     1       0.002  -0.004   0.002  0.00  0.00    +0.032 A 
ATOM      4  C   UNL     1      -0.017   1.381   0.010  0.00  0.00    +0.106 A 
ATOM      5  C   UNL     1       1.163   2.093   0.002  0.00  0.00    +0.045 A 
ATOM      6  C   UNL     1       2.385   1.415  -0.013  0.00  0.00    +0.080 A 
ENDROOT
BRANCH   6   7
ATOM      7  C   UNL     1       3.652   2.170  -0.022  0.00  0.00    +0.248 C 
ATOM      8  O   UNL     1       4.714   1.577  -0.035  0.00  0.00    -0.270 OA
ATOM      9  N   UNL     1       3.634   3.518  -0.015  0.00  0.00    -0.308 N 
ATOM     10  H   UNL     1       2.674   4.055  -0.003  0.00  0.00    +0.149 HD
BRANCH   9  11
ATOM     11  C   UNL     1       4.892   4.268  -0.022  0.00  0.00    +0.074 C 
ATOM     12  C   UNL     1       5.381   4.428  -1.463  0.00  0.00    +0.022 C 
ATOM     13  C   UNL     1       4.330   5.186  -2.277  0.00  0.00    +0.002 C 
ATOM     14  C   UNL     1       4.105   6.567  -1.659  0.00  0.00    +0.012 C 
ATOM     15  C   UNL     1       3.616   6.407  -0.218  0.00  0.00    +0.095 C 
ATOM     16  C   UNL     1       4.667   5.649   0.596  0.00  0.00    +0.034 C 
BRANCH  15  17
ATOM     17  C   UNL     1       3.390   7.788   0.401  0.00  0.00    +0.393 C 
ATOM     18  F   UNL     1       2.429   8.481  -0.343  0.00  0.00    -0.170 F 
ATOM     19  F   UNL     1       2.943   7.641   1.719  0.00  0.00    -0.170 F 
ATOM     20  F   UNL     1       4.592   8.505   0.394  0.00  0.00    -0.170 F 
ENDBRANCH  15  17
ENDBRANCH   9  11
ENDBRANCH   6   7
BRANCH   4  21
ATOM     21  S   UNL     1      -1.557   2.237   0.022  0.00  0.00    +0.056 S 
ATOM     22  O   UNL     1      -1.309   3.526  -0.523  0.00  0.00    -0.153 OA
ATOM     23  O   UNL     1      -2.519   1.349  -0.530  0.00  0.00    -0.153 OA
BRANCH  21  24
ATOM     24  N   UNL     1      -1.977   2.467   1.607  0.00  0.00    -0.204 NA
ATOM     25  H   UNL     1      -2.938   3.001   1.658  0.00  0.00    +0.144 HD
ATOM     26  H   UNL     1      -1.200   3.061   2.110  0.00  0.00    +0.144 HD
ENDBRANCH  21  24
ENDBRANCH   4  21
BRANCH   1  28
ATOM     27  C   UNL     1       3.516  -2.083  -0.043  0.00  0.00    +0.277 C 
ATOM     28  O   UNL     1       3.580  -0.655  -0.036  0.00  0.00    -0.494 OA
ENDBRANCH   1  28
TORSDOF 6
