REMARK  Name = ZINC20707536
REMARK  8 active torsions:
REMARK  status: ('A' for Active; 'I' for Inactive)
REMARK    1  A    between atoms: C_1  and  C_2
REMARK    2  A    between atoms: C_2  and  C_3
REMARK    3  A    between atoms: C_3  and  C_5
REMARK    4  A    between atoms: C_3  and  N_6
REMARK    5  A    between atoms: N_6  and  S_7
REMARK    6  A    between atoms: S_7  and  C_10
REMARK    7  A    between atoms: C_23  and  C_26
REMARK    8  A    between atoms: C_31  and  O_32
REMARK                            x       y       z     vdW  Elec       q    Type
REMARK                         _______ _______ _______ _____ _____    ______ ____
ROOT
ATOM      1  C   UNL     1      -4.785  -0.181  -1.928  0.00  0.00    +0.106 A 
ATOM      2  C   UNL     1      -5.022  -0.242  -0.567  0.00  0.00    +0.030 A 
ATOM      3  C   UNL     1      -4.633   0.806   0.243  0.00  0.00    +0.025 A 
ATOM      4  C   UNL     1      -4.006   1.916  -0.310  0.00  0.00    +0.031 A 
ATOM      5  C   UNL     1      -3.770   1.983  -1.672  0.00  0.00    -0.018 A 
ATOM      6  C   UNL     1      -4.164   0.922  -2.477  0.00  0.00    +0.034 A 
ATOM      7  C   UNL     1      -3.100   3.159  -2.329  0.00  0.00    +0.049 C 
ATOM      8  C   UNL     1      -4.076   3.731  -3.348  0.00  0.00    -0.023 C 
ATOM      9  C   UNL     1      -4.734   4.740  -2.836  0.00  0.00    -0.030 C 
ATOM     10  C   UNL     1      -4.291   4.991  -1.405  0.00  0.00    +0.033 C 
ATOM     11  C   UNL     1      -2.891   4.334  -1.357  0.00  0.00    +0.029 C 
ATOM     12  C   UNL     1      -2.557   3.865   0.047  0.00  0.00    +0.108 C 
ATOM     13  N   UNL     1      -3.612   2.966   0.528  0.00  0.00    -0.336 N 
ATOM     14  H   UNL     1      -4.065   3.128   1.517  0.00  0.00    +0.147 HD
ENDROOT
BRANCH  12  15
ATOM     15  C   UNL     1      -1.241   3.131   0.031  0.00  0.00    +0.014 A 
ATOM     16  C   UNL     1      -1.219   1.750   0.067  0.00  0.00    +0.009 A 
ATOM     17  C   UNL     1      -0.012   1.076   0.057  0.00  0.00    +0.001 A 
ATOM     18  C   UNL     1       1.176   1.782   0.000  0.00  0.00    +0.004 A 
ATOM     19  C   UNL     1       1.159   3.163  -0.042  0.00  0.00    +0.046 A 
ATOM     20  C   UNL     1      -0.051   3.841  -0.027  0.00  0.00    +0.122 A 
BRANCH  20  21
ATOM     21  O   UNL     1      -0.070   5.199  -0.068  0.00  0.00    -0.506 OA
ATOM     22  H   UNL     1       0.874   5.762  -0.114  0.00  0.00    +0.292 HD
ENDBRANCH  20  21
ENDBRANCH  12  15
BRANCH   1  23
ATOM     23  S   UNL     1      -5.278  -1.517  -2.965  0.00  0.00    +0.059 S 
ATOM     24  O   UNL     1      -4.455  -1.458  -4.122  0.00  0.00    -0.153 OA
ATOM     25  O   UNL     1      -5.346  -2.670  -2.137  0.00  0.00    -0.153 OA
BRANCH  23  26
ATOM     26  N   UNL     1      -6.824  -1.202  -3.468  0.00  0.00    -0.187 NA
ATOM     27  H   UNL     1      -7.658  -1.764  -3.023  0.00  0.00    +0.148 HD
BRANCH  26  28
ATOM     28  C   UNL     1      -7.094  -0.046  -4.327  0.00  0.00    +0.073 C 
ATOM     29  C   UNL     1      -7.098  -0.489  -5.791  0.00  0.00    +0.025 C 
BRANCH  28  31
ATOM     30  C   UNL     1      -8.416   1.102  -2.544  0.00  0.00    +0.005 C 
ATOM     31  C   UNL     1      -8.459   0.546  -3.969  0.00  0.00    +0.017 C 
ENDBRANCH  28  31
ENDBRANCH  26  28
ENDBRANCH  23  26
ENDBRANCH   1  23
TORSDOF 6
