REMARK  Name = ZINC50956442
REMARK  6 active torsions:
REMARK  status: ('A' for Active; 'I' for Inactive)
REMARK    1  A    between atoms: C_1  and  N_2
REMARK    2  A    between atoms: N_2  and  S_3
REMARK    3  A    between atoms: S_3  and  C_6
REMARK    4  A    between atoms: C_9  and  N_15
REMARK    5  A    between atoms: C_10  and  N_12
REMARK    6  A    between atoms: C_19  and  C_22
REMARK                            x       y       z     vdW  Elec       q    Type
REMARK                         _______ _______ _______ _____ _____    ______ ____
ROOT
ATOM      1  C   UNL     1      -0.166  -0.494   2.705  0.00  0.00    +0.108 A 
ATOM      2  C   UNL     1       0.174   0.590   3.494  0.00  0.00    +0.030 A 
ATOM      3  C   UNL     1      -0.536   0.856   4.648  0.00  0.00    +0.027 A 
ATOM      4  C   UNL     1      -1.593   0.033   5.016  0.00  0.00    +0.061 A 
ATOM      5  C   UNL     1      -1.932  -1.054   4.221  0.00  0.00    +0.149 A 
ATOM      6  C   UNL     1      -1.221  -1.311   3.065  0.00  0.00    +0.063 A 
ENDROOT
BRANCH   4   7
ATOM      7  N   UNL     1      -2.314   0.299   6.183  0.00  0.00    -0.323 N 
ATOM      8  C   UNL     1      -1.906  -0.280   7.473  0.00  0.00    +0.133 C 
ATOM      9  C   UNL     1      -1.832   0.849   8.508  0.00  0.00    +0.179 C 
ATOM     10  O   UNL     1      -3.063   1.577   8.499  0.00  0.00    -0.364 OA
ATOM     11  C   UNL     1      -3.351   2.225   7.257  0.00  0.00    +0.220 C 
ATOM     12  C   UNL     1      -3.499   1.171   6.160  0.00  0.00    +0.146 C 
BRANCH  11  13
ATOM     13  C   UNL     1      -4.633   3.007   7.383  0.00  0.00    +0.241 C 
ATOM     14  O   UNL     1      -5.288   2.938   8.402  0.00  0.00    -0.273 OA
ATOM     15  N   UNL     1      -5.051   3.784   6.364  0.00  0.00    -0.327 N 
ATOM     16  H   UNL     1      -4.527   3.839   5.550  0.00  0.00    +0.145 HD
ATOM     17  H   UNL     1      -5.876   4.288   6.445  0.00  0.00    +0.145 HD
ENDBRANCH  11  13
ENDBRANCH   4   7
BRANCH   1  18
ATOM     18  S   UNL     1       0.742  -0.829   1.233  0.00  0.00    +0.058 S 
ATOM     19  O   UNL     1       0.570  -2.212   0.955  0.00  0.00    -0.153 OA
ATOM     20  O   UNL     1       2.024  -0.240   1.403  0.00  0.00    -0.153 OA
BRANCH  18  22
ATOM     21  C   UNL     1      -0.018   1.461   0.010  0.00  0.00    +0.127 C 
ATOM     22  N   UNL     1       0.002  -0.004   0.002  0.00  0.00    -0.193 NA
ATOM     23  H   UNL     1      -0.418  -0.491  -0.724  0.00  0.00    +0.148 HD
ENDBRANCH  18  22
ENDBRANCH   1  18
BRANCH   5  24
ATOM     24  N   UNL     1      -3.058  -1.934   4.610  0.00  0.00    +0.058 N 
ATOM     25  O   UNL     1      -3.352  -2.880   3.918  0.00  0.00    -0.126 OA
ATOM     26  O   UNL     1      -3.682  -1.706   5.620  0.00  0.00    -0.126 OA
ENDBRANCH   5  24
TORSDOF 5
