REMARK  Name = ZINC46961463
REMARK  7 active torsions:
REMARK  status: ('A' for Active; 'I' for Inactive)
REMARK    1  A    between atoms: C_1  and  C_2
REMARK    2  A    between atoms: C_8  and  C_25
REMARK    3  A    between atoms: C_8  and  C_26
REMARK    4  A    between atoms: C_10  and  N_12
REMARK    5  A    between atoms: N_15  and  N_16
REMARK    6  A    between atoms: C_17  and  C_19
REMARK    7  A    between atoms: N_21  and  C_22
REMARK                            x       y       z     vdW  Elec       q    Type
REMARK                         _______ _______ _______ _____ _____    ______ ____
ROOT
ATOM      1  N   UNL     1      -2.496  -3.308   0.956  0.00  0.00    -0.291 N 
ATOM      2  C   UNL     1      -3.661  -2.739   0.591  0.00  0.00    +0.316 C 
ATOM      3  O   UNL     1      -3.801  -2.309  -0.538  0.00  0.00    -0.251 OA
ATOM      4  N   UNL     1      -4.673  -2.646   1.477  0.00  0.00    -0.218 N 
ATOM      5  H   UNL     1      -2.384  -3.651   1.856  0.00  0.00    +0.151 HD
ATOM      6  H   UNL     1      -5.512  -2.236   1.214  0.00  0.00    +0.174 HD
ENDROOT
BRANCH   1  16
ATOM      7  C   UNL     1      -0.018   1.503   0.010  0.00  0.00    +0.086 C 
ATOM      8  C   UNL     1       0.002  -0.004   0.002  0.00  0.00    +0.103 A 
ATOM      9  C   UNL     1      -1.081  -0.806   0.003  0.00  0.00    +0.050 A 
ATOM     10  C   UNL     1      -0.602  -2.129  -0.007  0.00  0.00    +0.014 A 
ATOM     11  C   UNL     1       0.745  -2.064  -0.014  0.00  0.00    +0.111 A 
ATOM     12  O   UNL     1       1.104  -0.775  -0.013  0.00  0.00    -0.464 OA
ATOM     13  C   UNL     1       1.646  -3.276  -0.028  0.00  0.00    +0.081 C 
ATOM     14  C   UNL     1       0.815  -4.493  -0.450  0.00  0.00    -0.026 C 
ATOM     15  C   UNL     1      -0.462  -4.558   0.393  0.00  0.00    +0.034 C 
ATOM     16  C   UNL     1      -1.397  -3.409  -0.008  0.00  0.00    +0.109 C 
ATOM     17  C   UNL     1       0.444  -4.369  -1.929  0.00  0.00    +0.011 C 
ATOM     18  C   UNL     1       1.633  -5.768  -0.235  0.00  0.00    +0.011 C 
ENDBRANCH   1  16
BRANCH   4  19
ATOM     19  N   UNL     1      -4.512  -3.142   2.777  0.00  0.00    -0.225 N 
ATOM     20  C   UNL     1      -5.523  -3.049   3.664  0.00  0.00    +0.315 C 
ATOM     21  O   UNL     1      -6.573  -2.536   3.335  0.00  0.00    -0.264 OA
ATOM     22  H   UNL     1      -3.673  -3.551   3.040  0.00  0.00    +0.173 HD
BRANCH  20  23
ATOM     23  C   UNL     1      -5.352  -3.577   5.051  0.00  0.00    +0.301 C 
ATOM     24  O   UNL     1      -4.302  -4.090   5.380  0.00  0.00    -0.265 OA
ATOM     25  N   UNL     1      -6.363  -3.485   5.937  0.00  0.00    -0.305 N 
ATOM     26  H   UNL     1      -7.202  -3.075   5.675  0.00  0.00    +0.149 HD
BRANCH  25  27
ATOM     27  C   UNL     1      -6.195  -4.003   7.297  0.00  0.00    +0.073 C 
ATOM     28  C   UNL     1      -7.350  -4.809   7.894  0.00  0.00    +0.024 C 
ATOM     29  C   UNL     1      -7.064  -3.393   8.398  0.00  0.00    +0.024 C 
ENDBRANCH  25  27
ENDBRANCH  20  23
ENDBRANCH   4  19
TORSDOF 4
