REMARK  Name = ZINC09109623
REMARK  5 active torsions:
REMARK  status: ('A' for Active; 'I' for Inactive)
REMARK    1  A    between atoms: C_6  and  C_7
REMARK    2  A    between atoms: C_14  and  N_27
REMARK    3  A    between atoms: C_15  and  C_25
REMARK    4  A    between atoms: C_16  and  C_18
REMARK    5  A    between atoms: C_21  and  O_24
REMARK                            x       y       z     vdW  Elec       q    Type
REMARK                         _______ _______ _______ _____ _____    ______ ____
ROOT
ATOM      1  C   UNL     1      -1.268  -0.764   0.011  0.00  0.00    +0.074 A 
ATOM      2  C   UNL     1      -1.556  -1.839   0.783  0.00  0.00    +0.054 A 
ATOM      3  C   UNL     1      -2.866  -2.257   0.478  0.00  0.00    +0.245 A 
ATOM      4  N   UNL     1      -3.347  -1.466  -0.438  0.00  0.00    -0.135 NA
ATOM      5  N   UNL     1      -2.370  -0.508  -0.755  0.00  0.00    -0.273 N 
ATOM      6  H   UNL     1      -2.462   0.207  -1.403  0.00  0.00    +0.189 HD
ATOM      7  O   UNL     1      -3.443  -3.325   1.094  0.00  0.00    -0.421 OA
ATOM      8  C   UNL     1      -2.640  -4.140   1.806  0.00  0.00    +0.201 C 
ATOM      9  C   UNL     1      -1.374  -3.842   2.166  0.00  0.00    +0.098 C 
ATOM     10  C   UNL     1      -0.704  -2.539   1.810  0.00  0.00    +0.102 C 
ENDROOT
BRANCH   1  16
ATOM     11  C   UNL     1      -0.017   1.391   0.010  0.00  0.00    +0.013 A 
ATOM     12  C   UNL     1       1.170   2.094   0.002  0.00  0.00    +0.039 A 
ATOM     13  C   UNL     1       2.379   1.418  -0.013  0.00  0.00    +0.123 A 
ATOM     14  C   UNL     1       2.403   0.033  -0.021  0.00  0.00    +0.039 A 
ATOM     15  C   UNL     1       1.222  -0.680  -0.014  0.00  0.00    +0.013 A 
ATOM     16  C   UNL     1       0.002  -0.004   0.002  0.00  0.00    +0.000 A 
ATOM     17  F   UNL     1       3.538   2.112  -0.020  0.00  0.00    -0.205 F 
ENDBRANCH   1  16
BRANCH  10  18
ATOM     18  C   UNL     1      -0.581  -1.678   3.041  0.00  0.00    -0.034 A 
ATOM     19  C   UNL     1      -1.714  -1.317   3.747  0.00  0.00    +0.008 A 
ATOM     20  C   UNL     1      -1.603  -0.527   4.875  0.00  0.00    +0.046 A 
ATOM     21  C   UNL     1      -0.355  -0.097   5.300  0.00  0.00    +0.117 A 
ATOM     22  C   UNL     1       0.780  -0.461   4.590  0.00  0.00    +0.046 A 
ATOM     23  C   UNL     1       0.665  -1.255   3.465  0.00  0.00    +0.008 A 
BRANCH  21  24
ATOM     24  O   UNL     1      -0.244   0.681   6.409  0.00  0.00    -0.507 OA
ATOM     25  H   UNL     1      -0.132   0.181   7.229  0.00  0.00    +0.292 HD
ENDBRANCH  21  24
ENDBRANCH  10  18
BRANCH   8  26
ATOM     26  N   UNL     1      -3.145  -5.357   2.192  0.00  0.00    -0.328 N 
ATOM     27  H   UNL     1      -4.051  -5.604   1.951  0.00  0.00    +0.145 HD
ATOM     28  H   UNL     1      -2.595  -5.969   2.705  0.00  0.00    +0.145 HD
ENDBRANCH   8  26
BRANCH   9  29
ATOM     29  C   UNL     1      -0.632  -4.808   2.920  0.00  0.00    +0.101 C 
ATOM     30  N   UNL     1      -0.045  -5.575   3.518  0.00  0.00    -0.191 NA
ENDBRANCH   9  29
TORSDOF 5
