REMARK  Name = ZINC36019069
REMARK  14 active torsions:
REMARK  status: ('A' for Active; 'I' for Inactive)
REMARK    1  A    between atoms: C_1  and  C_2
REMARK    2  A    between atoms: C_2  and  O_3
REMARK    3  A    between atoms: O_3  and  C_4
REMARK    4  A    between atoms: C_4  and  C_6
REMARK    5  A    between atoms: C_7  and  C_24
REMARK    6  A    between atoms: N_8  and  C_21
REMARK    7  A    between atoms: C_12  and  C_14
REMARK    8  A    between atoms: C_17  and  C_20
REMARK    9  A    between atoms: C_21  and  C_22
REMARK   10  A    between atoms: C_24  and  N_25
REMARK   11  A    between atoms: C_32  and  C_34
REMARK   12  A    between atoms: C_34  and  C_35
REMARK   13  A    between atoms: C_35  and  C_36
REMARK   14  A    between atoms: C_35  and  C_37
REMARK                            x       y       z     vdW  Elec       q    Type
REMARK                         _______ _______ _______ _____ _____    ______ ____
ROOT
ATOM      1  C   UNL     1       1.747  -2.430   2.038  0.00  0.00    +0.080 C 
ATOM      2  C   UNL     1       1.560  -3.680   2.513  0.00  0.00    +0.041 C 
ATOM      3  N   UNL     1       1.942  -4.018   3.780  0.00  0.00    -0.254 N 
ATOM      4  C   UNL     1       2.519  -3.163   4.634  0.00  0.00    +0.307 C 
ATOM      5  O   UNL     1       2.825  -3.557   5.743  0.00  0.00    -0.252 OA
ATOM      6  N   UNL     1       2.771  -1.881   4.305  0.00  0.00    -0.288 N 
ATOM      7  C   UNL     1       2.402  -1.418   2.957  0.00  0.00    +0.144 C 
ATOM      8  H   UNL     1       3.190  -1.278   4.939  0.00  0.00    +0.151 HD
ENDROOT
BRANCH   7   9
ATOM      9  C   UNL     1       3.647  -0.911   2.277  0.00  0.00    -0.022 A 
ATOM     10  C   UNL     1       4.804  -1.666   2.301  0.00  0.00    +0.006 A 
ATOM     11  C   UNL     1       5.947  -1.201   1.677  0.00  0.00    +0.004 A 
ATOM     12  C   UNL     1       5.932   0.019   1.029  0.00  0.00    -0.050 A 
ATOM     13  C   UNL     1       4.775   0.774   1.003  0.00  0.00    +0.004 A 
ATOM     14  C   UNL     1       3.631   0.307   1.623  0.00  0.00    +0.006 A 
ATOM     15  C   UNL     1       7.178   0.527   0.349  0.00  0.00    +0.044 C 
ENDBRANCH   7   9
BRANCH   1  16
ATOM     16  C   UNL     1       1.352  -2.079   0.726  0.00  0.00    +0.339 C 
ATOM     17  O   UNL     1       0.723  -2.870   0.049  0.00  0.00    -0.245 OA
BRANCH  16  18
ATOM     18  O   UNL     1       1.672  -0.867   0.227  0.00  0.00    -0.462 OA
BRANCH  18  20
ATOM     19  C   UNL     1       1.693   0.829  -1.495  0.00  0.00    +0.048 C 
ATOM     20  C   UNL     1       1.241  -0.580  -1.105  0.00  0.00    +0.229 C 
ENDBRANCH  18  20
ENDBRANCH  16  18
ENDBRANCH   1  16
BRANCH   3  21
ATOM     21  C   UNL     1       1.708  -5.393   4.230  0.00  0.00    +0.141 C 
BRANCH  21  22
ATOM     22  C   UNL     1       2.913  -6.238   3.907  0.00  0.00    -0.015 C 
ATOM     23  C   UNL     1       3.554  -6.858   4.867  0.00  0.00    +0.005 C 
ENDBRANCH  21  22
ENDBRANCH   3  21
BRANCH   2  24
ATOM     24  C   UNL     1       0.917  -4.720   1.631  0.00  0.00    +0.136 C 
BRANCH  24  25
ATOM     25  N   UNL     1      -0.517  -4.803   1.938  0.00  0.00    -0.295 NA
ATOM     26  C   UNL     1      -1.088  -6.052   1.437  0.00  0.00    +0.086 C 
ATOM     27  C   UNL     1      -2.153  -6.530   2.399  0.00  0.00    +0.034 C 
ATOM     28  C   UNL     1      -3.525  -5.992   1.960  0.00  0.00    +0.109 C 
ATOM     29  N   UNL     1      -3.428  -4.598   1.485  0.00  0.00    -0.300 N 
ATOM     30  C   UNL     1      -2.615  -3.603   2.155  0.00  0.00    +0.123 C 
ATOM     31  C   UNL     1      -1.185  -3.613   1.564  0.00  0.00    +0.103 C 
ATOM     32  C   UNL     1      -4.121  -4.238   0.387  0.00  0.00    +0.216 C 
ATOM     33  O   UNL     1      -4.057  -3.098  -0.024  0.00  0.00    -0.276 OA
BRANCH  32  34
ATOM     34  C   UNL     1      -4.974  -5.251  -0.332  0.00  0.00    +0.099 C 
BRANCH  34  35
ATOM     35  C   UNL     1      -5.647  -4.588  -1.536  0.00  0.00    -0.008 C 
ATOM     36  C   UNL     1      -6.414  -5.643  -2.336  0.00  0.00    +0.008 C 
ATOM     37  C   UNL     1      -6.620  -3.513  -1.048  0.00  0.00    +0.008 C 
ENDBRANCH  34  35
ENDBRANCH  32  34
ENDBRANCH  24  25
ENDBRANCH   2  24
TORSDOF 10
