REMARK  Name = ZINC04008784
REMARK  2 active torsions:
REMARK  status: ('A' for Active; 'I' for Inactive)
REMARK    1  A    between atoms: C_1  and  C_2
REMARK    2  A    between atoms: C_1  and  N_5
REMARK                            x       y       z     vdW  Elec       q    Type
REMARK                         _______ _______ _______ _____ _____    ______ ____
ROOT
ATOM      1  N   UNL     1       1.356   2.010  -0.000  0.00  0.00    -0.253 N 
ATOM      2  C   UNL     1       2.167   2.292   1.193  0.00  0.00    +0.205 C 
ATOM      3  C   UNL     1       3.512   2.796   0.611  0.00  0.00    +0.202 C 
ATOM      4  N   UNL     1       3.584   4.193   1.061  0.00  0.00    -0.278 N 
ATOM      5  C   UNL     1       2.493   4.484   1.779  0.00  0.00    +0.303 C 
ATOM      6  O   UNL     1       2.297   5.578   2.273  0.00  0.00    -0.253 OA
ATOM      7  N   UNL     1       1.618   3.458   1.899  0.00  0.00    -0.278 N 
ATOM      8  N   UNL     1       3.305   2.740  -0.843  0.00  0.00    -0.278 N 
ATOM      9  C   UNL     1       2.072   2.283  -1.098  0.00  0.00    +0.306 C 
ATOM     10  O   UNL     1       1.641   2.134  -2.225  0.00  0.00    -0.253 OA
ATOM     11  H   UNL     1       4.310   4.807   0.869  0.00  0.00    +0.152 HD
ATOM     12  H   UNL     1       0.776   3.476   2.382  0.00  0.00    +0.152 HD
ATOM     13  H   UNL     1       3.960   2.991  -1.513  0.00  0.00    +0.152 HD
ENDROOT
BRANCH   1  14
ATOM     14  C   UNL     1      -0.018   1.503   0.010  0.00  0.00    +0.236 C 
BRANCH  14  15
ATOM     15  C   UNL     1       0.002  -0.004   0.002  0.00  0.00    +0.373 C 
ATOM     16  O   UNL     1       1.066  -0.599  -0.011  0.00  0.00    -0.245 OA
ATOM     17  O   UNL     1      -1.045  -0.628   0.009  0.00  0.00    -0.245 OA
ENDBRANCH  14  15
ENDBRANCH   1  14
TORSDOF 2
