REMARK  Name = ZINC21576260
REMARK  10 active torsions:
REMARK  status: ('A' for Active; 'I' for Inactive)
REMARK    1  A    between atoms: C_1  and  O_2
REMARK    2  A    between atoms: O_2  and  C_3
REMARK    3  A    between atoms: C_6  and  C_11
REMARK    4  A    between atoms: C_7  and  O_9
REMARK    5  A    between atoms: O_9  and  C_10
REMARK    6  A    between atoms: C_14  and  S_17
REMARK    7  A    between atoms: N_15  and  N_16
REMARK    8  A    between atoms: S_17  and  C_18
REMARK    9  A    between atoms: C_18  and  C_19
REMARK   10  A    between atoms: N_21  and  C_22
REMARK                            x       y       z     vdW  Elec       q    Type
REMARK                         _______ _______ _______ _____ _____    ______ ____
ROOT
ATOM      1  C   UNL     1       8.481   1.604   1.401  0.00  0.00    +0.185 A 
ATOM      2  N   UNL     1       7.825   2.567   0.797  0.00  0.00    -0.127 NA
ATOM      3  N   UNL     1       6.560   2.359   0.884  0.00  0.00    -0.121 NA
ATOM      4  C   UNL     1       6.330   1.255   1.558  0.00  0.00    +0.209 A 
ATOM      5  N   UNL     1       7.544   0.733   1.908  0.00  0.00    -0.224 N 
ENDROOT
BRANCH   1   9
ATOM      6  C   UNL     1      12.705   1.244   1.734  0.00  0.00    +0.124 A 
ATOM      7  C   UNL     1      11.941   0.146   1.359  0.00  0.00    +0.046 A 
ATOM      8  C   UNL     1      10.571   0.257   1.255  0.00  0.00    +0.019 A 
ATOM      9  C   UNL     1       9.949   1.479   1.517  0.00  0.00    +0.063 A 
ATOM     10  C   UNL     1      10.721   2.585   1.895  0.00  0.00    +0.134 A 
ATOM     11  C   UNL     1      12.095   2.460   2.002  0.00  0.00    +0.092 A 
BRANCH   6  13
ATOM     12  C   UNL     1      14.617  -0.156   1.551  0.00  0.00    +0.277 C 
ATOM     13  O   UNL     1      14.054   1.125   1.840  0.00  0.00    -0.495 OA
ENDBRANCH   6  13
BRANCH  10  14
ATOM     14  O   UNL     1      10.122   3.776   2.158  0.00  0.00    -0.494 OA
ATOM     15  C   UNL     1      10.973   4.859   2.538  0.00  0.00    +0.277 C 
ENDBRANCH  10  14
ENDBRANCH   1   9
BRANCH   5  16
ATOM     16  N   UNL     1       7.778  -0.413   2.613  0.00  0.00    -0.295 N 
ATOM     17  H   UNL     1       6.934  -1.025   2.963  0.00  0.00    +0.163 HD
ATOM     18  H   UNL     1       8.810  -0.725   2.829  0.00  0.00    +0.163 HD
ENDBRANCH   5  16
BRANCH   4  19
ATOM     19  S   UNL     1       4.751   0.570   1.933  0.00  0.00    -0.075 S 
BRANCH  19  20
ATOM     20  C   UNL     1       3.679   1.803   1.154  0.00  0.00    +0.173 C 
BRANCH  20  21
ATOM     21  C   UNL     1       2.237   1.413   1.353  0.00  0.00    +0.224 C 
ATOM     22  O   UNL     1       1.961   0.402   1.962  0.00  0.00    -0.275 OA
ATOM     23  N   UNL     1       1.255   2.189   0.854  0.00  0.00    -0.312 N 
ATOM     24  H   UNL     1       1.505   3.107   0.302  0.00  0.00    +0.149 HD
BRANCH  23  25
ATOM     25  C   UNL     1      -0.147   1.811   1.048  0.00  0.00    +0.073 C 
ATOM     26  C   UNL     1      -0.631   2.324   2.405  0.00  0.00    +0.022 C 
ATOM     27  C   UNL     1      -2.095   1.929   2.607  0.00  0.00    +0.002 C 
ATOM     28  C   UNL     1      -2.948   2.544   1.496  0.00  0.00    +0.000 C 
ATOM     29  C   UNL     1      -2.464   2.031   0.138  0.00  0.00    +0.002 C 
ATOM     30  C   UNL     1      -1.000   2.426  -0.064  0.00  0.00    +0.022 C 
ENDBRANCH  23  25
ENDBRANCH  20  21
ENDBRANCH  19  20
ENDBRANCH   4  19
TORSDOF 8
