REMARK  Name = ZINC35521014
REMARK  3 active torsions:
REMARK  status: ('A' for Active; 'I' for Inactive)
REMARK    1  A    between atoms: C_1  and  C_2
REMARK    2  A    between atoms: C_8  and  C_9
REMARK    3  A    between atoms: C_12  and  C_14
REMARK                            x       y       z     vdW  Elec       q    Type
REMARK                         _______ _______ _______ _____ _____    ______ ____
ROOT
ATOM      1  C   UNL     1      -0.018   1.503   0.010  0.00  0.00    +0.068 C 
ATOM      2  C   UNL     1       0.002  -0.004   0.002  0.00  0.00    +0.069 C 
ATOM      3  N   UNL     1       0.008  -0.765  -1.050  0.00  0.00    -0.173 NA
ATOM      4  N   UNL     1       0.028  -2.115  -0.699  0.00  0.00    -0.107 N 
ATOM      5  C   UNL     1       0.036  -2.243   0.644  0.00  0.00    +0.276 C 
ATOM      6  O   UNL     1       0.053  -3.282   1.281  0.00  0.00    -0.268 OA
ATOM      7  C   UNL     1       0.025  -0.877   1.182  0.00  0.00    +0.065 C 
ATOM      8  C   UNL     1       0.033  -0.493   2.522  0.00  0.00    +0.061 C 
ATOM      9  C   UNL     1       0.038  -3.141  -1.573  0.00  0.00    +0.326 C 
ATOM     10  O   UNL     1       0.056  -4.286  -1.166  0.00  0.00    -0.251 OA
ATOM     11  N   UNL     1       0.029  -2.897  -2.898  0.00  0.00    -0.311 N 
ATOM     12  H   UNL     1       0.015  -1.983  -3.223  0.00  0.00    +0.147 HD
ATOM     13  H   UNL     1       0.036  -3.635  -3.527  0.00  0.00    +0.147 HD
ENDROOT
BRANCH   8  14
ATOM     14  C   UNL     1       0.055  -1.466   3.530  0.00  0.00    +0.129 A 
ATOM     15  C   UNL     1       0.059  -1.224   4.898  0.00  0.00    +0.050 A 
ATOM     16  C   UNL     1       0.084  -2.466   5.527  0.00  0.00    +0.050 A 
ATOM     17  C   UNL     1       0.094  -3.423   4.532  0.00  0.00    +0.136 A 
ATOM     18  O   UNL     1       0.071  -2.804   3.340  0.00  0.00    -0.455 OA
BRANCH  17  19
ATOM     19  C   UNL     1       0.119  -4.883   4.743  0.00  0.00    +0.017 A 
ATOM     20  C   UNL     1       0.130  -5.405   6.039  0.00  0.00    +0.012 A 
ATOM     21  C   UNL     1       0.153  -6.770   6.229  0.00  0.00    +0.016 A 
ATOM     22  C   UNL     1       0.166  -7.624   5.139  0.00  0.00    +0.018 A 
ATOM     23  C   UNL     1       0.157  -7.114   3.851  0.00  0.00    +0.016 A 
ATOM     24  C   UNL     1       0.127  -5.750   3.647  0.00  0.00    +0.012 A 
ATOM     25 BR   UNL     1       0.199  -9.495   5.409  0.00  0.00    -0.050 Br
ENDBRANCH  17  19
ENDBRANCH   8  14
TORSDOF 2
