REMARK  Name = ZINC14849421
REMARK  11 active torsions:
REMARK  status: ('A' for Active; 'I' for Inactive)
REMARK    1  A    between atoms: C_1  and  C_2
REMARK    2  A    between atoms: C_2  and  C_3
REMARK    3  A    between atoms: C_3  and  C_4
REMARK    4  A    between atoms: C_4  and  N_5
REMARK    5  A    between atoms: C_6  and  N_38
REMARK    6  A    between atoms: C_7  and  N_14
REMARK    7  A    between atoms: N_14  and  C_15
REMARK    8  A    between atoms: C_15  and  C_16
REMARK    9  A    between atoms: C_22  and  C_24
REMARK   10  A    between atoms: C_24  and  C_25
REMARK   11  A    between atoms: C_25  and  C_26
REMARK                            x       y       z     vdW  Elec       q    Type
REMARK                         _______ _______ _______ _____ _____    ______ ____
ROOT
ATOM      1  N   UNL     1       6.111   7.569  -1.895  0.00  0.00    -0.260 N 
ATOM      2  C   UNL     1       5.956   6.471  -1.125  0.00  0.00    +0.220 C 
ATOM      3  O   UNL     1       6.832   6.145  -0.350  0.00  0.00    -0.275 OA
ENDROOT
BRANCH   1   6
ATOM      4  N   UNL     1       8.213  10.475  -1.100  0.00  0.00    -0.280 N 
ATOM      5  C   UNL     1       7.095   9.690  -1.259  0.00  0.00    +0.127 A 
ATOM      6  C   UNL     1       7.238   8.399  -1.722  0.00  0.00    +0.140 A 
ATOM      7  C   UNL     1       8.530   7.921  -2.013  0.00  0.00    +0.277 A 
ATOM      8  O   UNL     1       8.686   6.782  -2.419  0.00  0.00    -0.266 OA
ATOM      9  N   UNL     1       9.592   8.733  -1.845  0.00  0.00    -0.273 N 
ATOM     10  H   UNL     1      10.510   8.397  -2.059  0.00  0.00    +0.173 HD
ATOM     11  C   UNL     1       9.433   9.989  -1.393  0.00  0.00    +0.331 A 
ATOM     12  O   UNL     1      10.409  10.699  -1.246  0.00  0.00    -0.246 OA
BRANCH   5  13
ATOM     13  N   UNL     1       5.849  10.187  -0.960  0.00  0.00    -0.343 N 
ATOM     14  H   UNL     1       5.072   9.607  -1.001  0.00  0.00    +0.144 HD
ATOM     15  H   UNL     1       5.745  11.118  -0.708  0.00  0.00    +0.144 HD
ENDBRANCH   5  13
BRANCH   4  16
ATOM     16  C   UNL     1       8.075  11.848  -0.609  0.00  0.00    +0.128 C 
BRANCH  16  17
ATOM     17  C   UNL     1       8.166  11.855   0.919  0.00  0.00    +0.021 C 
BRANCH  17  19
ATOM     18  C   UNL     1       8.112  13.296   2.959  0.00  0.00    +0.004 C 
ATOM     19  C   UNL     1       8.022  13.289   1.432  0.00  0.00    -0.002 C 
ENDBRANCH  17  19
ENDBRANCH  16  17
ENDBRANCH   4  16
ENDBRANCH   1   6
BRANCH   1  20
ATOM     20  C   UNL     1       5.107   7.898  -2.910  0.00  0.00    +0.149 C 
BRANCH  20  21
ATOM     21  C   UNL     1       5.485   7.253  -4.218  0.00  0.00    -0.030 A 
ATOM     22  C   UNL     1       6.363   7.889  -5.075  0.00  0.00    +0.005 A 
ATOM     23  C   UNL     1       6.713   7.295  -6.273  0.00  0.00    +0.000 A 
ATOM     24  C   UNL     1       6.177   6.068  -6.618  0.00  0.00    +0.000 A 
ATOM     25  C   UNL     1       5.294   5.434  -5.764  0.00  0.00    +0.000 A 
ATOM     26  C   UNL     1       4.948   6.026  -4.564  0.00  0.00    +0.005 A 
ENDBRANCH  20  21
ENDBRANCH   1  20
BRANCH   2  27
ATOM     27  C   UNL     1       4.697   5.650  -1.228  0.00  0.00    +0.097 C 
BRANCH  27  28
ATOM     28  C   UNL     1       4.707   4.563  -0.151  0.00  0.00    +0.022 C 
BRANCH  28  29
ATOM     29  C   UNL     1       3.482   3.663  -0.323  0.00  0.00    +0.080 C 
ATOM     30  C   UNL     1       3.598   2.893  -1.639  0.00  0.00    +0.049 C 
ATOM     31  C   UNL     1       2.556   1.805  -1.684  0.00  0.00    -0.025 A 
ATOM     32  C   UNL     1       1.997   1.435  -2.892  0.00  0.00    +0.005 A 
ATOM     33  C   UNL     1       1.055   0.424  -2.939  0.00  0.00    +0.000 A 
ATOM     34  C   UNL     1       0.673  -0.223  -1.778  0.00  0.00    +0.002 A 
ATOM     35  C   UNL     1       1.226   0.145  -0.568  0.00  0.00    +0.023 A 
ATOM     36  C   UNL     1       2.164   1.167  -0.515  0.00  0.00    +0.037 A 
ATOM     37  N   UNL     1       2.722   1.544   0.710  0.00  0.00    -0.285 N 
ATOM     38  C   UNL     1       3.407   2.694   0.828  0.00  0.00    +0.221 C 
ATOM     39  O   UNL     1       3.970   2.954   1.871  0.00  0.00    -0.275 OA
ATOM     40  H   UNL     1       2.614   0.969   1.483  0.00  0.00    +0.155 HD
ENDBRANCH  28  29
ENDBRANCH  27  28
ENDBRANCH   2  27
TORSDOF 10
