REMARK  Name = ZINC39024366
REMARK  5 active torsions:
REMARK  status: ('A' for Active; 'I' for Inactive)
REMARK    1  A    between atoms: C_1  and  N_2
REMARK    2  A    between atoms: C_9  and  O_27
REMARK    3  A    between atoms: C_11  and  C_15
REMARK    4  A    between atoms: C_21  and  S_23
REMARK    5  A    between atoms: S_23  and  N_26
REMARK                            x       y       z     vdW  Elec       q    Type
REMARK                         _______ _______ _______ _____ _____    ______ ____
ROOT
ATOM      1  C   UNL     1       2.531  -2.629   0.556  0.00  0.00    +0.233 C 
ATOM      2  O   UNL     1       2.531  -3.349   1.532  0.00  0.00    -0.274 OA
ATOM      3  N   UNL     1       3.697  -2.249  -0.001  0.00  0.00    -0.263 N 
ATOM      4  C   UNL     1       4.902  -2.682   0.543  0.00  0.00    +0.189 A 
ATOM      5  N   UNL     1       5.111  -3.463   1.584  0.00  0.00    -0.124 NA
ATOM      6  N   UNL     1       6.276  -3.772   1.964  0.00  0.00    -0.119 NA
ATOM      7  C   UNL     1       7.313  -3.301   1.300  0.00  0.00    +0.256 A 
ATOM      8  S   UNL     1       6.476  -2.351   0.038  0.00  0.00    -0.011 S 
ATOM      9  H   UNL     1       3.697  -1.673  -0.782  0.00  0.00    +0.157 HD
ENDROOT
BRANCH   1  19
ATOM     10  C   UNL     1      -0.018   1.461   0.010  0.00  0.00    +0.138 C 
ATOM     11  N   UNL     1       0.002  -0.004   0.002  0.00  0.00    -0.273 N 
ATOM     12  C   UNL     1      -1.202  -0.715   0.004  0.00  0.00    +0.042 A 
ATOM     13  C   UNL     1      -2.384  -0.088  -0.368  0.00  0.00    +0.024 A 
ATOM     14  C   UNL     1      -3.569  -0.796  -0.365  0.00  0.00    +0.002 A 
ATOM     15  C   UNL     1      -3.581  -2.127   0.009  0.00  0.00    +0.000 A 
ATOM     16  C   UNL     1      -2.406  -2.754   0.381  0.00  0.00    +0.008 A 
ATOM     17  C   UNL     1      -1.217  -2.052   0.379  0.00  0.00    +0.003 A 
ATOM     18  C   UNL     1       0.065  -2.732   0.783  0.00  0.00    +0.167 C 
ATOM     19  C   UNL     1       1.226  -2.160  -0.033  0.00  0.00    +0.194 C 
ATOM     20  C   UNL     1       1.179  -0.656  -0.013  0.00  0.00    +0.234 C 
ATOM     21  O   UNL     1       2.214  -0.025  -0.004  0.00  0.00    -0.274 OA
BRANCH  18  22
ATOM     22  O   UNL     1       0.306  -2.507   2.173  0.00  0.00    -0.386 OA
ATOM     23  H   UNL     1      -0.391  -2.845   2.752  0.00  0.00    +0.210 HD
ENDBRANCH  18  22
ENDBRANCH   1  19
BRANCH   7  24
ATOM     24  S   UNL     1       9.036  -3.546   1.575  0.00  0.00    +0.081 S 
ATOM     25  O   UNL     1       9.378  -4.772   0.943  0.00  0.00    -0.151 OA
ATOM     26  O   UNL     1       9.676  -2.318   1.253  0.00  0.00    -0.151 OA
BRANCH  24  27
ATOM     27  N   UNL     1       9.244  -3.777   3.201  0.00  0.00    -0.202 NA
ATOM     28  H   UNL     1       9.972  -4.332   3.523  0.00  0.00    +0.144 HD
ATOM     29  H   UNL     1       8.639  -3.357   3.832  0.00  0.00    +0.144 HD
ENDBRANCH  24  27
ENDBRANCH   7  24
TORSDOF 4
