REMARK  Name = ZINC56729177
REMARK  8 active torsions:
REMARK  status: ('A' for Active; 'I' for Inactive)
REMARK    1  A    between atoms: C_1  and  C_2
REMARK    2  A    between atoms: C_2  and  C_3
REMARK    3  A    between atoms: C_3  and  C_5
REMARK    4  A    between atoms: C_3  and  N_6
REMARK    5  A    between atoms: C_7  and  C_9
REMARK    6  A    between atoms: C_12  and  N_15
REMARK    7  A    between atoms: N_18  and  C_19
REMARK    8  A    between atoms: N_28  and  C_30
REMARK                            x       y       z     vdW  Elec       q    Type
REMARK                         _______ _______ _______ _____ _____    ______ ____
ROOT
ATOM      1  N   UNL     1      -5.919   1.380   6.186  0.00  0.00    -0.269 N 
ATOM      2  C   UNL     1      -7.251   1.582   6.224  0.00  0.00    +0.304 C 
ATOM      3  O   UNL     1      -7.928   1.367   5.237  0.00  0.00    -0.253 OA
ATOM      4  N   UNL     1      -7.834   2.022   7.358  0.00  0.00    -0.296 N 
ATOM      5  H   UNL     1      -5.389   1.487   6.991  0.00  0.00    +0.156 HD
ATOM      6  H   UNL     1      -7.294   2.193   8.145  0.00  0.00    +0.151 HD
ENDROOT
BRANCH   4   7
ATOM      7  C   UNL     1      -9.279   2.241   7.399  0.00  0.00    +0.077 C 
ATOM      8  C   UNL     1     -10.003   0.941   7.759  0.00  0.00    -0.007 C 
ATOM      9  C   UNL     1     -11.509   1.166   7.684  0.00  0.00    +0.003 C 
ATOM     10  C   UNL     1     -11.976   2.315   8.564  0.00  0.00    +0.001 C 
ATOM     11  C   UNL     1     -11.124   3.567   8.422  0.00  0.00    +0.003 C 
ATOM     12  C   UNL     1      -9.629   3.271   8.475  0.00  0.00    -0.007 C 
ATOM     13  C   UNL     1      -9.204   2.769   9.846  0.00  0.00    -0.073 C 
ATOM     14  N   UNL     1      -9.762   1.464  10.182  0.00  0.00    +0.382 N 
ATOM     15  C   UNL     1      -9.575   0.462   9.137  0.00  0.00    -0.073 C 
ATOM     16  H   UNL     1     -10.740   1.550  10.413  0.00  0.00    -0.081 HD
BRANCH  14  17
ATOM     17  C   UNL     1      -9.093   0.982  11.398  0.00  0.00    -0.069 C 
ATOM     18  C   UNL     1      -9.979   0.514  12.554  0.00  0.00    -0.017 C 
ATOM     19  C   UNL     1      -9.220   1.838  12.660  0.00  0.00    -0.017 C 
ENDBRANCH  14  17
ENDBRANCH   4   7
BRANCH   1  23
ATOM     20  C   UNL     1      -4.080   0.296   2.609  0.00  0.00    +0.037 A 
ATOM     21  C   UNL     1      -5.363  -0.172   2.907  0.00  0.00    +0.015 A 
ATOM     22  C   UNL     1      -5.968   0.188   4.090  0.00  0.00    +0.024 A 
ATOM     23  C   UNL     1      -5.304   1.017   4.989  0.00  0.00    +0.035 A 
ATOM     24  C   UNL     1      -4.027   1.485   4.695  0.00  0.00    +0.024 A 
ATOM     25  C   UNL     1      -3.414   1.123   3.517  0.00  0.00    +0.015 A 
BRANCH  20  27
ATOM     26  N   UNL     1      -4.073  -0.887   0.468  0.00  0.00    -0.309 N 
ATOM     27  C   UNL     1      -3.428  -0.089   1.342  0.00  0.00    +0.244 C 
ATOM     28  O   UNL     1      -2.310   0.314   1.087  0.00  0.00    -0.270 OA
ATOM     29  H   UNL     1      -4.965  -1.209   0.672  0.00  0.00    +0.149 HD
BRANCH  26  30
ATOM     30  C   UNL     1      -3.426  -1.269  -0.789  0.00  0.00    +0.070 C 
ATOM     31  C   UNL     1      -3.662  -0.179  -1.836  0.00  0.00    +0.028 C 
BRANCH  30  33
ATOM     32  C   UNL     1      -3.671  -3.707  -0.299  0.00  0.00    +0.005 C 
ATOM     33  C   UNL     1      -4.016  -2.590  -1.286  0.00  0.00    +0.018 C 
ENDBRANCH  30  33
ENDBRANCH  26  30
ENDBRANCH  20  27
ENDBRANCH   1  23
TORSDOF 6
