REMARK  Name = ZINC67586966
REMARK  5 active torsions:
REMARK  status: ('A' for Active; 'I' for Inactive)
REMARK    1  A    between atoms: C_1  and  C_2
REMARK    2  A    between atoms: C_7  and  C_8
REMARK    3  A    between atoms: C_7  and  C_9
REMARK    4  A    between atoms: C_11  and  N_13
REMARK    5  A    between atoms: C_20  and  C_22
REMARK                            x       y       z     vdW  Elec       q    Type
REMARK                         _______ _______ _______ _____ _____    ______ ____
ROOT
ATOM      1  N   UNL     1      -0.124  -0.708  -2.377  0.00  0.00    -0.296 N 
ATOM      2  C   UNL     1      -0.275   0.393  -3.139  0.00  0.00    +0.306 C 
ATOM      3  O   UNL     1       0.310   1.419  -2.848  0.00  0.00    -0.252 OA
ATOM      4  N   UNL     1      -1.073   0.357  -4.224  0.00  0.00    -0.247 N 
ATOM      5  C   UNL     1      -1.229   1.493  -5.011  0.00  0.00    +0.189 A 
ATOM      6  N   UNL     1      -0.683   2.685  -4.868  0.00  0.00    -0.125 NA
ATOM      7  N   UNL     1      -0.922   3.630  -5.672  0.00  0.00    -0.139 NA
ATOM      8  C   UNL     1      -1.739   3.419  -6.684  0.00  0.00    +0.169 A 
ATOM      9  S   UNL     1      -2.158   1.704  -6.402  0.00  0.00    -0.030 S 
ATOM     10  H   UNL     1      -0.590  -1.527  -2.609  0.00  0.00    +0.151 HD
ATOM     11  H   UNL     1      -1.539  -0.462  -4.457  0.00  0.00    +0.158 HD
ENDROOT
BRANCH   1  21
ATOM     12  C   UNL     1      -0.267   1.301   0.200  0.00  0.00    +0.013 C 
ATOM     13  C   UNL     1      -0.061  -0.208   0.056  0.00  0.00    -0.008 C 
ATOM     14  C   UNL     1      -1.358  -1.075   0.051  0.00  0.00    +0.009 C 
ATOM     15  C   UNL     1      -0.877  -2.499   0.412  0.00  0.00    +0.005 C 
ATOM     16  C   UNL     1       0.665  -2.358   0.601  0.00  0.00    -0.003 C 
ATOM     17  C   UNL     1       0.753  -0.910   1.199  0.00  0.00    -0.025 C 
ATOM     18  C   UNL     1       0.048  -0.805   2.553  0.00  0.00    +0.012 C 
ATOM     19  C   UNL     1       2.195  -0.405   1.269  0.00  0.00    +0.012 C 
ATOM     20  C   UNL     1       1.215  -2.131  -0.841  0.00  0.00    +0.027 C 
ATOM     21  C   UNL     1       0.744  -0.669  -1.197  0.00  0.00    +0.081 C 
ENDBRANCH   1  21
BRANCH   8  22
ATOM     22  C   UNL     1      -2.190   4.357  -7.774  0.00  0.00    +0.398 C 
ATOM     23  F   UNL     1      -1.181   5.291  -8.032  0.00  0.00    -0.202 F 
ATOM     24  F   UNL     1      -2.457   3.626  -8.937  0.00  0.00    -0.202 F 
ENDBRANCH   8  22
TORSDOF 2
