REMARK  Name = ZINC58758703
REMARK  3 active torsions:
REMARK  status: ('A' for Active; 'I' for Inactive)
REMARK    1  A    between atoms: C_2  and  N_10
REMARK    2  A    between atoms: C_11  and  C_13
REMARK    3  A    between atoms: C_19  and  C_21
REMARK                            x       y       z     vdW  Elec       q    Type
REMARK                         _______ _______ _______ _____ _____    ______ ____
ROOT
ATOM      1  N   UNL     1       1.161   3.487   0.009  0.00  0.00    -0.283 N 
ATOM      2  C   UNL     1      -0.011   4.148  -0.078  0.00  0.00    +0.238 C 
ATOM      3  O   UNL     1      -1.056   3.533  -0.072  0.00  0.00    -0.273 OA
ATOM      4  H   UNL     1       1.993   3.982   0.069  0.00  0.00    +0.155 HD
ENDROOT
BRANCH   1   6
ATOM      5  C   UNL     1       0.148   1.382   0.625  0.00  0.00    +0.046 A 
ATOM      6  C   UNL     1       1.176   2.087   0.013  0.00  0.00    +0.053 A 
ATOM      7  C   UNL     1       2.220   1.401  -0.595  0.00  0.00    +0.064 A 
ATOM      8  C   UNL     1       2.233   0.019  -0.590  0.00  0.00    +0.043 A 
ATOM      9  C   UNL     1       1.207  -0.681   0.019  0.00  0.00    +0.061 A 
ATOM     10  C   UNL     1       0.165   0.000   0.627  0.00  0.00    +0.061 A 
ATOM     11 CL   UNL     1      -1.120  -0.882   1.391  0.00  0.00    -0.082 Cl
ATOM     12 CL   UNL     1       1.225  -2.417   0.023  0.00  0.00    -0.082 Cl
ATOM     13 CL   UNL     1       3.507   2.279  -1.361  0.00  0.00    -0.082 Cl
ENDBRANCH   1   6
BRANCH   2  14
ATOM     14  C   UNL     1      -0.022   5.651  -0.184  0.00  0.00    +0.162 C 
ATOM     15  C   UNL     1       0.617   6.271   1.077  0.00  0.00    +0.033 C 
ATOM     16  C   UNL     1      -0.268   7.519   1.337  0.00  0.00    +0.021 C 
ATOM     17  C   UNL     1      -1.665   7.004   0.909  0.00  0.00    +0.108 C 
ATOM     18  N   UNL     1      -1.407   6.137  -0.259  0.00  0.00    -0.290 N 
ATOM     19  C   UNL     1      -2.292   5.840  -1.231  0.00  0.00    +0.219 C 
ATOM     20  O   UNL     1      -1.967   5.114  -2.146  0.00  0.00    -0.275 OA
BRANCH  19  21
ATOM     21  C   UNL     1      -3.686   6.411  -1.182  0.00  0.00    +0.075 C 
ATOM     22  C   UNL     1      -4.839   5.440  -0.920  0.00  0.00    +0.013 C 
ATOM     23  C   UNL     1      -4.644   6.037  -2.315  0.00  0.00    +0.013 C 
ENDBRANCH  19  21
ENDBRANCH   2  14
TORSDOF 3
