REMARK  Name = ZINC12570361
REMARK  8 active torsions:
REMARK  status: ('A' for Active; 'I' for Inactive)
REMARK    1  A    between atoms: C_1  and  O_2
REMARK    2  A    between atoms: O_2  and  C_3
REMARK    3  A    between atoms: C_6  and  C_10
REMARK    4  A    between atoms: N_12  and  C_13
REMARK    5  A    between atoms: C_13  and  N_15
REMARK    6  A    between atoms: N_15  and  N_16
REMARK    7  A    between atoms: C_17  and  C_19
REMARK    8  A    between atoms: C_28  and  O_29
REMARK                            x       y       z     vdW  Elec       q    Type
REMARK                         _______ _______ _______ _____ _____    ______ ____
ROOT
ATOM      1  N   UNL     1      -6.013   3.153   0.072  0.00  0.00    -0.245 N 
ATOM      2  H   UNL     1      -6.858   3.628   0.082  0.00  0.00    +0.172 HD
ENDROOT
BRANCH   1   3
ATOM      3  N   UNL     1      -5.996   1.752   0.066  0.00  0.00    -0.231 N 
ATOM      4  C   UNL     1      -7.155   1.064   0.073  0.00  0.00    +0.264 C 
ATOM      5  O   UNL     1      -8.215   1.660   0.086  0.00  0.00    -0.269 OA
ATOM      6  H   UNL     1      -5.151   1.277   0.056  0.00  0.00    +0.173 HD
BRANCH   4   7
ATOM      7  C   UNL     1      -7.138  -0.411   0.067  0.00  0.00    +0.080 A 
ATOM      8  C   UNL     1      -5.928  -1.086   0.047  0.00  0.00    +0.025 A 
ATOM      9  C   UNL     1      -5.918  -2.488   0.046  0.00  0.00    -0.017 A 
ATOM     10  C   UNL     1      -4.708  -3.205   0.031  0.00  0.00    +0.008 A 
ATOM     11  C   UNL     1      -4.731  -4.565   0.024  0.00  0.00    +0.001 A 
ATOM     12  C   UNL     1      -5.938  -5.262   0.031  0.00  0.00    +0.001 A 
ATOM     13  C   UNL     1      -7.128  -4.603   0.045  0.00  0.00    +0.008 A 
ATOM     14  C   UNL     1      -7.147  -3.197   0.053  0.00  0.00    -0.014 A 
ATOM     15  C   UNL     1      -8.360  -2.490   0.068  0.00  0.00    +0.054 A 
ATOM     16  C   UNL     1      -8.354  -1.127   0.074  0.00  0.00    +0.130 A 
BRANCH  16  17
ATOM     17  O   UNL     1      -9.531  -0.450   0.088  0.00  0.00    -0.506 OA
ATOM     18  H   UNL     1      -9.880  -0.250  -0.791  0.00  0.00    +0.292 HD
ENDBRANCH  16  17
ENDBRANCH   4   7
ENDBRANCH   1   3
BRANCH   1  19
ATOM     19  C   UNL     1      -4.853   3.840   0.065  0.00  0.00    +0.153 C 
ATOM     20  S   UNL     1      -4.873   5.552   0.073  0.00  0.00    -0.017 S 
BRANCH  19  23
ATOM     21  C   UNL     1      -2.519   3.867   0.044  0.00  0.00    +0.250 C 
ATOM     22  O   UNL     1      -2.533   5.083   0.050  0.00  0.00    -0.270 OA
ATOM     23  N   UNL     1      -3.678   3.180   0.051  0.00  0.00    -0.263 N 
ATOM     24  H   UNL     1      -3.667   2.210   0.047  0.00  0.00    +0.157 HD
BRANCH  21  28
ATOM     25  C   UNL     1       1.182   1.786   0.000  0.00  0.00    +0.134 A 
ATOM     26  C   UNL     1      -0.013   1.076   0.008  0.00  0.00    +0.047 A 
ATOM     27  C   UNL     1      -1.215   1.747   0.017  0.00  0.00    +0.017 A 
ATOM     28  C   UNL     1      -1.233   3.145   0.029  0.00  0.00    +0.038 A 
ATOM     29  C   UNL     1      -0.030   3.856   0.022  0.00  0.00    +0.032 A 
ATOM     30  C   UNL     1       1.169   3.177   0.007  0.00  0.00    +0.060 A 
ATOM     31 BR   UNL     1       2.798   4.137  -0.003  0.00  0.00    -0.046 Br
BRANCH  25  33
ATOM     32  C   UNL     1       2.306  -0.307  -0.022  0.00  0.00    +0.277 C 
ATOM     33  O   UNL     1       2.365   1.121  -0.015  0.00  0.00    -0.494 OA
ENDBRANCH  25  33
ENDBRANCH  21  28
ENDBRANCH  19  23
ENDBRANCH   1  19
TORSDOF 7
