REMARK  Name = ZINC04721248
REMARK  6 active torsions:
REMARK  status: ('A' for Active; 'I' for Inactive)
REMARK    1  A    between atoms: C_1  and  O_2
REMARK    2  A    between atoms: O_2  and  C_3
REMARK    3  A    between atoms: C_5  and  O_18
REMARK    4  A    between atoms: C_7  and  O_17
REMARK    5  A    between atoms: C_9  and  O_16
REMARK    6  A    between atoms: C_11  and  C_14
REMARK                            x       y       z     vdW  Elec       q    Type
REMARK                         _______ _______ _______ _____ _____    ______ ____
ROOT
ATOM      1  C   UNL     1       1.270   2.988   2.506  0.00  0.00    +0.282 C 
ATOM      2  C   UNL     1       0.460   3.511   1.318  0.00  0.00    +0.201 C 
ATOM      3  C   UNL     1       1.146   3.087   0.016  0.00  0.00    +0.179 C 
ATOM      4  C   UNL     1       1.286   1.562  -0.002  0.00  0.00    +0.185 C 
ATOM      5  C   UNL     1       2.065   1.115   1.238  0.00  0.00    +0.265 C 
ATOM      6  O   UNL     1       1.389   1.567   2.413  0.00  0.00    -0.331 OA
ENDROOT
BRANCH   5   7
ATOM      7  C   UNL     1       2.156  -0.390   1.259  0.00  0.00    +0.387 C 
ATOM      8  O   UNL     1       1.613  -1.016   2.138  0.00  0.00    -0.243 OA
ATOM      9  O   UNL     1       2.841  -1.034   0.301  0.00  0.00    -0.243 OA
ENDBRANCH   5   7
BRANCH   1  11
ATOM     10  C   UNL     1       1.384   3.091   4.899  0.00  0.00    +0.197 C 
ATOM     11  O   UNL     1       0.606   3.332   3.724  0.00  0.00    -0.352 OA
ENDBRANCH   1  11
BRANCH   4  12
ATOM     12  O   UNL     1      -0.011   0.963   0.007  0.00  0.00    -0.386 OA
ATOM     13  H   UNL     1       0.002  -0.004   0.002  0.00  0.00    +0.210 HD
ENDBRANCH   4  12
BRANCH   3  14
ATOM     14  O   UNL     1       0.358   3.507  -1.099  0.00  0.00    -0.386 OA
ATOM     15  H   UNL     1       0.228   4.464  -1.151  0.00  0.00    +0.210 HD
ENDBRANCH   3  14
BRANCH   2  16
ATOM     16  O   UNL     1       0.387   4.937   1.379  0.00  0.00    -0.384 OA
ATOM     17  H   UNL     1      -0.033   5.275   2.181  0.00  0.00    +0.210 HD
ENDBRANCH   2  16
TORSDOF 5
