REMARK  Name = ZINC66636238
REMARK  9 active torsions:
REMARK  status: ('A' for Active; 'I' for Inactive)
REMARK    1  A    between atoms: C_1  and  C_2
REMARK    2  A    between atoms: C_2  and  N_3
REMARK    3  A    between atoms: C_4  and  C_9
REMARK    4  A    between atoms: C_9  and  N_10
REMARK    5  A    between atoms: C_11  and  C_13
REMARK    6  A    between atoms: C_13  and  C_14
REMARK    7  A    between atoms: C_15  and  C_27
REMARK    8  A    between atoms: N_21  and  C_26
REMARK    9  A    between atoms: C_24  and  C_25
REMARK                            x       y       z     vdW  Elec       q    Type
REMARK                         _______ _______ _______ _____ _____    ______ ____
ROOT
ATOM      1  C   UNL     1      -3.120  -1.300  -6.054  0.00  0.00    +0.133 C 
ENDROOT
BRANCH   1   2
ATOM      2  C   UNL     1      -4.587  -1.152  -6.363  0.00  0.00    -0.014 A 
ATOM      3  C   UNL     1      -5.455  -2.214  -6.163  0.00  0.00    -0.029 A 
ATOM      4  C   UNL     1      -6.803  -2.026  -6.465  0.00  0.00    +0.087 A 
ATOM      5  C   UNL     1      -7.995  -2.887  -6.389  0.00  0.00    +0.274 A 
ATOM      6  O   UNL     1      -8.029  -4.042  -6.011  0.00  0.00    -0.266 OA
ATOM      7  N   UNL     1      -9.040  -2.152  -6.819  0.00  0.00    -0.262 N 
ATOM      8  H   UNL     1      -9.957  -2.462  -6.878  0.00  0.00    +0.190 HD
ATOM      9  N   UNL     1      -8.596  -0.872  -7.167  0.00  0.00    -0.269 N 
ATOM     10  C   UNL     1      -7.234  -0.780  -6.955  0.00  0.00    +0.161 A 
ATOM     11  N   UNL     1      -6.361   0.200  -7.127  0.00  0.00    -0.232 NA
ATOM     12  C   UNL     1      -5.082   0.047  -6.844  0.00  0.00    +0.045 A 
ATOM     13  C   UNL     1      -4.138   1.202  -7.054  0.00  0.00    +0.066 C 
ATOM     14  C   UNL     1      -9.446   0.206  -7.677  0.00  0.00    +0.172 C 
ATOM     15  C   UNL     1      -4.956  -3.534  -5.636  0.00  0.00    +0.045 C 
ENDBRANCH   1   2
BRANCH   1  17
ATOM     16  N   UNL     1      -1.618  -0.968  -4.117  0.00  0.00    -0.308 N 
ATOM     17  C   UNL     1      -2.867  -0.914  -4.620  0.00  0.00    +0.218 C 
ATOM     18  O   UNL     1      -3.788  -0.553  -3.917  0.00  0.00    -0.275 OA
ATOM     19  H   UNL     1      -0.881  -1.257  -4.679  0.00  0.00    +0.149 HD
BRANCH  16  20
ATOM     20  C   UNL     1      -1.372  -0.593  -2.723  0.00  0.00    +0.180 C 
BRANCH  20  22
ATOM     21  N   UNL     1       0.688  -0.476  -1.203  0.00  0.00    -0.306 N 
ATOM     22  C   UNL     1       0.096  -0.741  -2.414  0.00  0.00    +0.149 A 
ATOM     23  N   UNL     1       1.004  -1.138  -3.245  0.00  0.00    -0.157 NA
ATOM     24  N   UNL     1       2.236  -1.141  -2.577  0.00  0.00    -0.254 N 
ATOM     25  C   UNL     1       2.009  -0.721  -1.315  0.00  0.00    +0.176 A 
ATOM     26  S   UNL     1       3.182  -0.536  -0.082  0.00  0.00    -0.011 S 
ATOM     27  H   UNL     1       3.094  -1.394  -2.953  0.00  0.00    +0.191 HD
BRANCH  21  29
ATOM     28  C   UNL     1      -0.019   1.526   0.010  0.00  0.00    +0.027 C 
ATOM     29  C   UNL     1       0.002  -0.004   0.002  0.00  0.00    +0.122 C 
ENDBRANCH  21  29
ENDBRANCH  20  22
ENDBRANCH  16  20
ENDBRANCH   1  17
TORSDOF 5
