REMARK  Name = ZINC63588825
REMARK  8 active torsions:
REMARK  status: ('A' for Active; 'I' for Inactive)
REMARK    1  A    between atoms: C_1  and  C_2
REMARK    2  A    between atoms: N_4  and  C_5
REMARK    3  A    between atoms: C_8  and  C_11
REMARK    4  A    between atoms: C_11  and  N_13
REMARK    5  A    between atoms: N_15  and  C_16
REMARK    6  A    between atoms: N_23  and  C_24
REMARK    7  A    between atoms: C_24  and  C_25
REMARK    8  A    between atoms: C_25  and  C_26
REMARK                            x       y       z     vdW  Elec       q    Type
REMARK                         _______ _______ _______ _____ _____    ______ ____
ROOT
ATOM      1  N   UNL     1      -2.613  -7.008   0.278  0.00  0.00    -0.143 NA
ATOM      2  C   UNL     1      -2.383  -8.303   0.426  0.00  0.00    +0.194 C 
ATOM      3  N   UNL     1      -1.318  -8.884  -0.201  0.00  0.00    -0.328 N 
ATOM      4  N   UNL     1      -3.210  -9.058   1.205  0.00  0.00    -0.357 N 
ATOM      5  H   UNL     1      -0.488  -8.392  -0.302  0.00  0.00    +0.169 HD
ATOM      6  H   UNL     1      -4.124  -8.772   1.362  0.00  0.00    +0.162 HD
ENDROOT
BRANCH   3   7
ATOM      7  C   UNL     1      -1.424 -10.188  -0.699  0.00  0.00    +0.042 A 
ATOM      8  C   UNL     1      -2.636 -10.644  -1.199  0.00  0.00    +0.028 A 
ATOM      9  C   UNL     1      -2.739 -11.931  -1.690  0.00  0.00    +0.040 A 
ATOM     10  C   UNL     1      -1.634 -12.766  -1.683  0.00  0.00    +0.124 A 
ATOM     11  C   UNL     1      -0.425 -12.313  -1.184  0.00  0.00    +0.040 A 
ATOM     12  C   UNL     1      -0.316 -11.025  -0.697  0.00  0.00    +0.028 A 
ATOM     13  F   UNL     1      -1.737 -14.025  -2.163  0.00  0.00    -0.205 F 
ENDBRANCH   3   7
BRANCH   1  14
ATOM     14  C   UNL     1      -1.899  -6.297  -0.606  0.00  0.00    +0.270 C 
ATOM     15  O   UNL     1      -1.100  -6.858  -1.335  0.00  0.00    -0.268 OA
BRANCH  14  19
ATOM     16  C   UNL     1      -2.422  -2.088  -0.867  0.00  0.00    +0.033 A 
ATOM     17  C   UNL     1      -1.509  -2.727  -1.700  0.00  0.00    +0.024 A 
ATOM     18  C   UNL     1      -1.337  -4.090  -1.617  0.00  0.00    +0.015 A 
ATOM     19  C   UNL     1      -2.081  -4.832  -0.697  0.00  0.00    +0.039 A 
ATOM     20  C   UNL     1      -2.997  -4.188   0.138  0.00  0.00    +0.015 A 
ATOM     21  C   UNL     1      -3.160  -2.823   0.055  0.00  0.00    +0.024 A 
BRANCH  16  25
ATOM     22  C   UNL     1      -2.823   1.381  -2.260  0.00  0.00    +0.109 C 
ATOM     23  C   UNL     1      -2.519  -0.091  -2.149  0.00  0.00    +0.214 C 
ATOM     24  O   UNL     1      -2.208  -0.721  -3.137  0.00  0.00    -0.276 OA
ATOM     25  N   UNL     1      -2.594  -0.706  -0.953  0.00  0.00    -0.286 N 
ATOM     26  H   UNL     1      -2.767  -0.188  -0.151  0.00  0.00    +0.155 HD
ENDBRANCH  16  25
ENDBRANCH  14  19
ENDBRANCH   1  14
BRANCH   4  27
ATOM     27  C   UNL     1      -2.719 -10.301   1.804  0.00  0.00    +0.120 C 
BRANCH  27  28
ATOM     28  C   UNL     1      -3.830 -10.936   2.644  0.00  0.00    +0.054 C 
BRANCH  28  29
ATOM     29  C   UNL     1      -3.289 -12.149   3.357  0.00  0.00    -0.040 C 
ATOM     30  C   UNL     1      -2.772 -12.194   4.606  0.00  0.00    -0.001 A 
ATOM     31  C   UNL     1      -2.564 -11.168   5.634  0.00  0.00    +0.010 A 
ATOM     32  C   UNL     1      -2.009 -11.525   6.815  0.00  0.00    +0.001 A 
ATOM     33  C   UNL     1      -1.628 -12.847   7.080  0.00  0.00    +0.002 A 
ATOM     34  C   UNL     1      -1.788 -13.845   6.186  0.00  0.00    +0.026 A 
ATOM     35  C   UNL     1      -2.362 -13.584   4.911  0.00  0.00    +0.043 A 
ATOM     36  N   UNL     1      -2.616 -14.367   3.891  0.00  0.00    -0.380 N 
ATOM     37  C   UNL     1      -3.222 -13.562   2.824  0.00  0.00    +0.144 C 
ATOM     38  H   UNL     1      -2.437 -15.319   3.850  0.00  0.00    +0.160 HD
ENDBRANCH  28  29
ENDBRANCH  27  28
ENDBRANCH   4  27
TORSDOF 7
