REMARK  Name = ZINC06830058
REMARK  5 active torsions:
REMARK  status: ('A' for Active; 'I' for Inactive)
REMARK    1  A    between atoms: C_1  and  C_2
REMARK    2  A    between atoms: C_2  and  C_3
REMARK    3  A    between atoms: C_3  and  C_5
REMARK    4  A    between atoms: C_3  and  N_7
REMARK    5  A    between atoms: C_5  and  O_6
REMARK                            x       y       z     vdW  Elec       q    Type
REMARK                         _______ _______ _______ _____ _____    ______ ____
ROOT
ATOM      1  N   UNL     1      -2.082  -0.162   1.273  0.00  0.00    -0.229 N 
ATOM      2  C   UNL     1      -1.645  -0.529   2.491  0.00  0.00    +0.256 C 
ATOM      3  O   UNL     1      -0.665  -1.212   2.717  0.00  0.00    -0.269 OA
ATOM      4  C   UNL     1      -2.554   0.036   3.507  0.00  0.00    +0.071 A 
ATOM      5  C   UNL     1      -3.538   0.749   2.791  0.00  0.00    +0.071 A 
ATOM      6  C   UNL     1      -4.551   1.404   3.474  0.00  0.00    +0.074 A 
ATOM      7  C   UNL     1      -4.590   1.352   4.863  0.00  0.00    +0.080 A 
ATOM      8  C   UNL     1      -3.626   0.653   5.565  0.00  0.00    +0.080 A 
ATOM      9  C   UNL     1      -2.605  -0.008   4.892  0.00  0.00    +0.074 A 
ATOM     10 CL   UNL     1      -1.399  -0.884   5.782  0.00  0.00    -0.081 Cl
ATOM     11 CL   UNL     1      -3.690   0.601   7.299  0.00  0.00    -0.080 Cl
ATOM     12 CL   UNL     1      -5.858   2.171   5.721  0.00  0.00    -0.080 Cl
ATOM     13 CL   UNL     1      -5.765   2.284   2.600  0.00  0.00    -0.081 Cl
ATOM     14  C   UNL     1      -3.188   0.597   1.364  0.00  0.00    +0.256 C 
ATOM     15  O   UNL     1      -3.800   1.075   0.429  0.00  0.00    -0.269 OA
ENDROOT
BRANCH   1  16
ATOM     16  C   UNL     1      -1.433  -0.534   0.013  0.00  0.00    +0.110 C 
BRANCH  16  18
ATOM     17  C   UNL     1      -0.019   1.526   0.010  0.00  0.00    +0.006 C 
ATOM     18  C   UNL     1       0.002  -0.004   0.002  0.00  0.00    +0.022 C 
ENDBRANCH  16  18
BRANCH  16  19
ATOM     19  C   UNL     1      -1.416  -2.058  -0.121  0.00  0.00    +0.178 C 
BRANCH  19  20
ATOM     20  O   UNL     1      -0.594  -2.617   0.906  0.00  0.00    -0.393 OA
ATOM     21  H   UNL     1      -0.537  -3.582   0.882  0.00  0.00    +0.209 HD
ENDBRANCH  19  20
ENDBRANCH  16  19
ENDBRANCH   1  16
TORSDOF 4
