REMARK  Name = ZINC01430797
REMARK  6 active torsions:
REMARK  status: ('A' for Active; 'I' for Inactive)
REMARK    1  A    between atoms: C_5  and  C_7
REMARK    2  A    between atoms: C_7  and  S_8
REMARK    3  A    between atoms: S_8  and  C_9
REMARK    4  A    between atoms: C_16  and  N_29
REMARK    5  A    between atoms: C_17  and  C_27
REMARK    6  A    between atoms: C_18  and  C_20
REMARK                            x       y       z     vdW  Elec       q    Type
REMARK                         _______ _______ _______ _____ _____    ______ ____
ROOT
ATOM      1  C   UNL     1      -3.529   1.616   0.027  0.00  0.00    +0.193 A 
ATOM      2  N   UNL     1      -2.370   0.972   0.019  0.00  0.00    -0.207 NA
ATOM      3  C   UNL     1      -1.221   1.642   0.017  0.00  0.00    +0.128 A 
ATOM      4  C   UNL     1      -1.253   3.035   0.030  0.00  0.00    +0.067 A 
ATOM      5  C   UNL     1      -2.481   3.674   0.033  0.00  0.00    +0.232 A 
ATOM      6  N   UNL     1      -3.591   2.940   0.034  0.00  0.00    -0.186 NA
ATOM      7  O   UNL     1      -2.562   5.023   0.040  0.00  0.00    -0.423 OA
ATOM      8  C   UNL     1      -1.500   5.761  -0.312  0.00  0.00    +0.200 C 
ATOM      9  C   UNL     1      -0.245   5.253  -0.342  0.00  0.00    +0.098 C 
ATOM     10  C   UNL     1       0.027   3.823   0.036  0.00  0.00    +0.106 C 
ATOM     11  N   UNL     1      -0.011   0.966   0.007  0.00  0.00    -0.343 N 
ATOM     12  H   UNL     1       0.002  -0.004   0.002  0.00  0.00    +0.144 HD
ATOM     13  H   UNL     1       0.822   1.462   0.002  0.00  0.00    +0.144 HD
ENDROOT
BRANCH  10  14
ATOM     14  C   UNL     1       0.636   3.777   1.414  0.00  0.00    +0.001 A 
ATOM     15  C   UNL     1      -0.067   4.271   2.497  0.00  0.00    +0.007 A 
ATOM     16  C   UNL     1       0.491   4.229   3.761  0.00  0.00    +0.000 A 
ATOM     17  C   UNL     1       1.752   3.692   3.943  0.00  0.00    +0.003 A 
ATOM     18  C   UNL     1       2.457   3.198   2.862  0.00  0.00    +0.038 A 
ATOM     19  C   UNL     1       1.897   3.236   1.596  0.00  0.00    +0.127 A 
ATOM     20  F   UNL     1       2.582   2.748   0.539  0.00  0.00    -0.205 F 
ENDBRANCH  10  14
BRANCH   8  21
ATOM     21  N   UNL     1      -1.693   7.074  -0.666  0.00  0.00    -0.328 N 
ATOM     22  H   UNL     1      -0.937   7.621  -0.931  0.00  0.00    +0.145 HD
ATOM     23  H   UNL     1      -2.585   7.454  -0.650  0.00  0.00    +0.145 HD
ENDBRANCH   8  21
BRANCH   9  24
ATOM     24  C   UNL     1       0.843   6.093  -0.740  0.00  0.00    +0.101 C 
ATOM     25  N   UNL     1       1.707   6.760  -1.055  0.00  0.00    -0.191 NA
ENDBRANCH   9  24
BRANCH   1  26
ATOM     26  S   UNL     1      -5.026   0.687   0.029  0.00  0.00    -0.081 S 
BRANCH  26  27
ATOM     27  C   UNL     1      -4.353  -0.993   0.018  0.00  0.00    +0.114 C 
BRANCH  27  32
ATOM     28  C   UNL     1      -7.049  -3.349  -1.179  0.00  0.00    +0.000 A 
ATOM     29  C   UNL     1      -7.563  -3.812   0.018  0.00  0.00    +0.001 A 
ATOM     30  C   UNL     1      -7.039  -3.364   1.216  0.00  0.00    +0.020 A 
ATOM     31  C   UNL     1      -5.996  -2.454   1.216  0.00  0.00    +0.045 A 
ATOM     32  C   UNL     1      -5.485  -1.988   0.018  0.00  0.00    -0.019 A 
ATOM     33  C   UNL     1      -6.010  -2.438  -1.179  0.00  0.00    +0.006 A 
ATOM     34 CL   UNL     1      -5.332  -1.895   2.720  0.00  0.00    -0.083 Cl
ENDBRANCH  27  32
ENDBRANCH  26  27
ENDBRANCH   1  26
TORSDOF 6
