REMARK  Name = ZINC12342032
REMARK  7 active torsions:
REMARK  status: ('A' for Active; 'I' for Inactive)
REMARK    1  A    between atoms: C_1  and  C_2
REMARK    2  A    between atoms: C_4  and  C_30
REMARK    3  A    between atoms: C_6  and  N_8
REMARK    4  A    between atoms: C_9  and  C_11
REMARK    5  A    between atoms: C_18  and  C_21
REMARK    6  A    between atoms: C_19  and  N_20
REMARK    7  A    between atoms: C_21  and  C_23
REMARK                            x       y       z     vdW  Elec       q    Type
REMARK                         _______ _______ _______ _____ _____    ______ ____
ROOT
ATOM      1  C   UNL     1      -1.527   1.750   0.028  0.00  0.00    +0.083 A 
ATOM      2  C   UNL     1      -0.199   1.337  -0.227  0.00  0.00    +0.061 A 
ATOM      3  C   UNL     1       0.973   2.066  -0.466  0.00  0.00    +0.027 A 
ATOM      4  C   UNL     1       2.146   1.399  -0.681  0.00  0.00    +0.003 A 
ATOM      5  C   UNL     1       2.154  -0.001  -0.658  0.00  0.00    +0.018 A 
ATOM      6  C   UNL     1       1.010  -0.685  -0.425  0.00  0.00    +0.092 A 
ATOM      7  N   UNL     1      -0.164  -0.028  -0.210  0.00  0.00    -0.311 N 
ATOM      8  C   UNL     1      -1.442  -0.504   0.046  0.00  0.00    +0.116 A 
ATOM      9  C   UNL     1      -2.300   0.583   0.193  0.00  0.00    +0.067 A 
ENDROOT
BRANCH   1  11
ATOM     10  N   UNL     1      -2.006   3.784   1.276  0.00  0.00    -0.281 N 
ATOM     11  C   UNL     1      -2.010   3.128   0.099  0.00  0.00    +0.252 C 
ATOM     12  O   UNL     1      -2.415   3.684  -0.906  0.00  0.00    -0.270 OA
ATOM     13  H   UNL     1      -1.754   3.319   2.090  0.00  0.00    +0.155 HD
BRANCH  10  19
ATOM     14  C   UNL     1      -4.082   7.524   3.698  0.00  0.00    +0.044 C 
ATOM     15  C   UNL     1      -3.373   6.975   2.488  0.00  0.00    -0.048 A 
ATOM     16  C   UNL     1      -3.076   7.807   1.424  0.00  0.00    +0.006 A 
ATOM     17  C   UNL     1      -2.426   7.306   0.311  0.00  0.00    -0.048 A 
ATOM     18  C   UNL     1      -2.069   5.973   0.259  0.00  0.00    +0.026 A 
ATOM     19  C   UNL     1      -2.365   5.135   1.326  0.00  0.00    +0.034 A 
ATOM     20  C   UNL     1      -3.024   5.639   2.440  0.00  0.00    +0.026 A 
ATOM     21  C   UNL     1      -2.105   8.217  -0.846  0.00  0.00    +0.044 C 
ENDBRANCH  10  19
ENDBRANCH   1  11
BRANCH   9  22
ATOM     22  N   UNL     1      -3.659   0.528   0.457  0.00  0.00    -0.356 N 
ATOM     23  H   UNL     1      -4.084  -0.326   0.636  0.00  0.00    +0.142 HD
ATOM     24  H   UNL     1      -4.185   1.343   0.463  0.00  0.00    +0.142 HD
ENDBRANCH   9  22
BRANCH   8  25
ATOM     25  C   UNL     1      -1.810  -1.861   0.141  0.00  0.00    +0.212 C 
ATOM     26  O   UNL     1      -1.733  -2.440   1.212  0.00  0.00    -0.285 OA
BRANCH  25  27
ATOM     27  C   UNL     1      -2.289  -2.584  -1.057  0.00  0.00    +0.024 A 
ATOM     28  C   UNL     1      -2.287  -1.953  -2.303  0.00  0.00    +0.014 A 
ATOM     29  C   UNL     1      -2.729  -2.633  -3.417  0.00  0.00    +0.039 A 
ATOM     30  C   UNL     1      -3.187  -3.936  -3.301  0.00  0.00    +0.123 A 
ATOM     31  C   UNL     1      -3.197  -4.565  -2.066  0.00  0.00    +0.039 A 
ATOM     32  C   UNL     1      -2.751  -3.896  -0.946  0.00  0.00    +0.014 A 
ATOM     33  F   UNL     1      -3.625  -4.596  -4.396  0.00  0.00    -0.205 F 
ENDBRANCH  25  27
ENDBRANCH   8  25
TORSDOF 5
