REMARK  Name = ZINC10837609
REMARK  12 active torsions:
REMARK  status: ('A' for Active; 'I' for Inactive)
REMARK    1  A    between atoms: C_1  and  C_2
REMARK    2  A    between atoms: C_4  and  N_26
REMARK    3  A    between atoms: C_6  and  C_7
REMARK    4  A    between atoms: C_7  and  O_9
REMARK    5  A    between atoms: O_9  and  C_10
REMARK    6  A    between atoms: C_10  and  C_11
REMARK    7  A    between atoms: N_13  and  C_14
REMARK    8  A    between atoms: C_15  and  C_23
REMARK    9  A    between atoms: C_27  and  C_29
REMARK   10  A    between atoms: C_29  and  C_30
REMARK   11  A    between atoms: C_29  and  C_31
REMARK   12  A    between atoms: C_29  and  C_32
REMARK                            x       y       z     vdW  Elec       q    Type
REMARK                         _______ _______ _______ _____ _____    ______ ____
ROOT
ATOM      1  C   UNL     1       1.121   3.579   0.011  0.00  0.00    +0.328 C 
ENDROOT
BRANCH   1   2
ATOM      2  C   UNL     1       1.141   2.072   0.002  0.00  0.00    +0.255 C 
ATOM      3  O   UNL     1       2.200   1.480  -0.011  0.00  0.00    -0.272 OA
ATOM      4  N   UNL     1      -0.017   1.382   0.010  0.00  0.00    -0.277 N 
ATOM      5  H   UNL     1      -0.863   1.856   0.016  0.00  0.00    +0.155 HD
BRANCH   4   6
ATOM      6  C   UNL     1       0.002  -0.004   0.002  0.00  0.00    +0.084 A 
ATOM      7  C   UNL     1      -1.073  -0.881   0.013  0.00  0.00    +0.068 A 
ATOM      8  C   UNL     1      -0.780  -2.304  -0.003  0.00  0.00    -0.023 A 
ATOM      9  C   UNL     1       0.533  -2.620  -0.016  0.00  0.00    -0.004 A 
ATOM     10  S   UNL     1       1.374  -1.062  -0.016  0.00  0.00    -0.077 S 
ATOM     11  C   UNL     1       1.132  -3.993  -0.028  0.00  0.00    +0.043 C 
ATOM     12  C   UNL     1       0.038  -5.000   0.356  0.00  0.00    +0.005 C 
ATOM     13  C   UNL     1      -1.218  -4.703  -0.467  0.00  0.00    +0.005 C 
ATOM     14  C   UNL     1      -1.848  -3.390   0.002  0.00  0.00    +0.037 C 
BRANCH   7  15
ATOM     15  C   UNL     1      -2.455  -0.390   0.036  0.00  0.00    +0.244 C 
ATOM     16  O   UNL     1      -3.044  -0.181  -1.008  0.00  0.00    -0.270 OA
ATOM     17  N   UNL     1      -3.072  -0.170   1.214  0.00  0.00    -0.325 N 
ATOM     18  H   UNL     1      -2.603  -0.337   2.046  0.00  0.00    +0.145 HD
ATOM     19  H   UNL     1      -3.986   0.155   1.229  0.00  0.00    +0.145 HD
ENDBRANCH   7  15
ENDBRANCH   4   6
ENDBRANCH   1   2
BRANCH   1  20
ATOM     20  O   UNL     1       2.461   4.074   0.000  0.00  0.00    -0.451 OA
BRANCH  20  21
ATOM     21  C   UNL     1       2.620   5.414   0.006  0.00  0.00    +0.347 C 
ATOM     22  O   UNL     1       1.645   6.142   0.019  0.00  0.00    -0.244 OA
BRANCH  21  28
ATOM     23  C   UNL     1       3.271   8.413   0.015  0.00  0.00    +0.045 C 
ATOM     24  C   UNL     1       4.297   7.310   0.000  0.00  0.00    -0.028 A 
ATOM     25  C   UNL     1       5.638   7.585  -0.011  0.00  0.00    +0.035 A 
ATOM     26  C   UNL     1       6.531   6.534  -0.025  0.00  0.00    +0.073 A 
ATOM     27  S   UNL     1       5.499   5.141  -0.015  0.00  0.00    -0.067 S 
ATOM     28  C   UNL     1       3.921   5.973  -0.003  0.00  0.00    +0.101 A 
BRANCH  26  29
ATOM     29  N   UNL     1       7.919   6.581  -0.038  0.00  0.00    -0.280 N 
ATOM     30  C   UNL     1       8.632   5.437  -0.051  0.00  0.00    +0.223 C 
ATOM     31  O   UNL     1       8.061   4.367  -0.052  0.00  0.00    -0.275 OA
ATOM     32  H   UNL     1       8.375   7.437  -0.037  0.00  0.00    +0.155 HD
BRANCH  30  33
ATOM     33  C   UNL     1      10.138   5.488  -0.065  0.00  0.00    +0.039 C 
ATOM     34  C   UNL     1      10.696   4.064  -0.078  0.00  0.00    +0.020 C 
ATOM     35  C   UNL     1      10.611   6.233  -1.314  0.00  0.00    +0.020 C 
ATOM     36  C   UNL     1      10.635   6.219   1.184  0.00  0.00    +0.020 C 
ENDBRANCH  30  33
ENDBRANCH  26  29
ENDBRANCH  21  28
ENDBRANCH  20  21
ENDBRANCH   1  20
TORSDOF 8
