REMARK  Name = ZINC20420537
REMARK  6 active torsions:
REMARK  status: ('A' for Active; 'I' for Inactive)
REMARK    1  A    between atoms: C_1  and  C_2
REMARK    2  A    between atoms: C_3  and  N_17
REMARK    3  A    between atoms: C_4  and  C_16
REMARK    4  A    between atoms: N_5  and  C_7
REMARK    5  A    between atoms: C_7  and  C_9
REMARK    6  A    between atoms: C_7  and  C_10
REMARK                            x       y       z     vdW  Elec       q    Type
REMARK                         _______ _______ _______ _____ _____    ______ ____
ROOT
ATOM      1  C   UNL     1      -1.170  -0.883   0.008  0.00  0.00    +0.190 C 
ATOM      2  C   UNL     1      -2.023  -0.604  -1.232  0.00  0.00    +0.042 C 
ENDROOT
BRANCH   1   3
ATOM      3  C   UNL     1      -1.987  -0.623   1.248  0.00  0.00    +0.245 C 
ATOM      4  O   UNL     1      -1.625   0.214   2.047  0.00  0.00    -0.273 OA
ATOM      5  N   UNL     1      -3.119  -1.320   1.468  0.00  0.00    -0.239 N 
ATOM      6  C   UNL     1      -3.849  -1.087   2.576  0.00  0.00    +0.303 C 
ATOM      7  O   UNL     1      -3.486  -0.248   3.378  0.00  0.00    -0.253 OA
ATOM      8  N   UNL     1      -4.981  -1.784   2.796  0.00  0.00    -0.313 N 
ATOM      9  H   UNL     1      -3.447  -2.079   0.743  0.00  0.00    +0.159 HD
ATOM     10  H   UNL     1      -5.577  -1.595   3.701  0.00  0.00    +0.146 HD
ATOM     11  H   UNL     1      -5.309  -2.544   2.071  0.00  0.00    +0.146 HD
ENDBRANCH   1   3
BRANCH   1  16
ATOM     12  C   UNL     1       1.652   3.269   0.004  0.00  0.00    +0.069 C 
ATOM     13  C   UNL     1       1.219   1.826   0.000  0.00  0.00    +0.081 A 
ATOM     14  C   UNL     1       2.073   0.713  -0.014  0.00  0.00    +0.068 A 
ATOM     15  C   UNL     1       1.302  -0.403  -0.013  0.00  0.00    +0.058 A 
ATOM     16  N   UNL     1       0.002  -0.004   0.002  0.00  0.00    -0.255 N 
ATOM     17  N   UNL     1      -0.017   1.397   0.010  0.00  0.00    -0.174 NA
ATOM     18  C   UNL     1       1.796  -1.827  -0.025  0.00  0.00    +0.067 C 
BRANCH  14  19
ATOM     19  N   UNL     1       3.480   0.749  -0.027  0.00  0.00    -0.355 N 
ATOM     20  H   UNL     1       4.054  -0.190  -0.038  0.00  0.00    +0.142 HD
ATOM     21  H   UNL     1       4.006   1.715  -0.027  0.00  0.00    +0.142 HD
ENDBRANCH  14  19
ENDBRANCH   1  16
TORSDOF 3
