REMARK  Name = ZINC38556259
REMARK  8 active torsions:
REMARK  status: ('A' for Active; 'I' for Inactive)
REMARK    1  A    between atoms: C_1  and  C_2
REMARK    2  A    between atoms: C_7  and  C_8
REMARK    3  A    between atoms: C_8  and  C_10
REMARK    4  A    between atoms: C_10  and  S_11
REMARK    5  A    between atoms: S_11  and  C_12
REMARK    6  A    between atoms: C_16  and  C_20
REMARK    7  A    between atoms: N_18  and  N_19
REMARK    8  A    between atoms: C_23  and  C_26
REMARK                            x       y       z     vdW  Elec       q    Type
REMARK                         _______ _______ _______ _____ _____    ______ ____
ROOT
ATOM      1  C   UNL     1       0.880  -0.635   6.586  0.00  0.00    +0.214 C 
ATOM      2  N   UNL     1       2.097  -1.464   6.388  0.00  0.00    -0.228 NA
ATOM      3  N   UNL     1       1.902  -2.619   7.268  0.00  0.00    -0.234 NA
ATOM      4  C   UNL     1       0.447  -2.751   7.486  0.00  0.00    +0.185 C 
ATOM      5  N   UNL     1      -0.197  -1.650   6.728  0.00  0.00    -0.197 NA
ATOM      6  H   UNL     1       2.929  -0.952   6.642  0.00  0.00    +0.143 HD
ATOM      7  H   UNL     1       2.283  -3.457   6.855  0.00  0.00    +0.143 HD
ENDROOT
BRANCH   4   8
ATOM      8  C   UNL     1      -0.041  -4.105   6.966  0.00  0.00    +0.186 C 
ATOM      9  C   UNL     1       0.586  -5.240   7.756  0.00  0.00    +0.029 C 
ATOM     10  C   UNL     1       1.284  -5.920   6.843  0.00  0.00    +0.058 C 
ATOM     11  N   UNL     1       1.160  -5.351   5.623  0.00  0.00    -0.159 NA
ATOM     12  N   UNL     1       0.444  -4.342   5.596  0.00  0.00    -0.177 NA
ATOM     13  C   UNL     1       2.097  -7.155   7.133  0.00  0.00    +0.067 C 
ENDBRANCH   4   8
BRANCH   5  14
ATOM     14  N   UNL     1      -1.334  -1.107   7.454  0.00  0.00    -0.264 NA
ATOM     15  H   UNL     1      -1.720  -0.308   6.975  0.00  0.00    +0.137 HD
ATOM     16  H   UNL     1      -2.038  -1.814   7.604  0.00  0.00    +0.137 HD
ENDBRANCH   5  14
BRANCH   1  17
ATOM     17  S   UNL     1       0.580   0.423   5.143  0.00  0.00    -0.116 S 
BRANCH  17  18
ATOM     18  C   UNL     1       0.491  -0.743   3.756  0.00  0.00    +0.151 C 
BRANCH  18  19
ATOM     19  C   UNL     1       0.242   0.015   2.478  0.00  0.00    +0.173 C 
ATOM     20  O   UNL     1       0.135   1.223   2.500  0.00  0.00    -0.291 OA
BRANCH  19  27
ATOM     21  C   UNL     1      -0.503   1.454   0.080  0.00  0.00    +0.044 C 
ATOM     22  C   UNL     1      -0.231  -0.028   0.036  0.00  0.00    -0.040 A 
ATOM     23  C   UNL     1      -0.330  -0.713  -1.157  0.00  0.00    +0.004 A 
ATOM     24  C   UNL     1      -0.079  -2.073  -1.200  0.00  0.00    +0.000 A 
ATOM     25  C   UNL     1       0.271  -2.757  -0.049  0.00  0.00    +0.001 A 
ATOM     26  C   UNL     1       0.374  -2.086   1.151  0.00  0.00    +0.011 A 
ATOM     27  C   UNL     1       0.129  -0.710   1.202  0.00  0.00    +0.021 A 
ENDBRANCH  19  27
ENDBRANCH  18  19
ENDBRANCH  17  18
ENDBRANCH   1  17
TORSDOF 6
