REMARK  Name = ZINC06286141
REMARK  6 active torsions:
REMARK  status: ('A' for Active; 'I' for Inactive)
REMARK    1  A    between atoms: C_1  and  C_2
REMARK    2  A    between atoms: C_4  and  C_8
REMARK    3  A    between atoms: C_5  and  C_7
REMARK    4  A    between atoms: N_10  and  N_11
REMARK    5  A    between atoms: C_12  and  C_13
REMARK    6  A    between atoms: C_18  and  O_19
REMARK                            x       y       z     vdW  Elec       q    Type
REMARK                         _______ _______ _______ _____ _____    ______ ____
ROOT
ATOM      1  N   UNL     1      -3.465  -4.539  -0.006  0.00  0.00    -0.187 NA
ATOM      2  C   UNL     1      -4.761  -4.481   0.000  0.00  0.00    +0.142 C 
ENDROOT
BRANCH   2   3
ATOM      3  C   UNL     1      -5.554  -5.723  -0.003  0.00  0.00    +0.039 A 
ATOM      4  C   UNL     1      -6.950  -5.665  -0.002  0.00  0.00    +0.033 A 
ATOM      5  C   UNL     1      -7.687  -6.832  -0.005  0.00  0.00    +0.043 A 
ATOM      6  C   UNL     1      -7.048  -8.061  -0.009  0.00  0.00    +0.043 A 
ATOM      7  C   UNL     1      -5.667  -8.131  -0.010  0.00  0.00    +0.084 A 
ATOM      8  C   UNL     1      -4.913  -6.969  -0.013  0.00  0.00    +0.144 A 
ATOM      9 CL   UNL     1      -4.878  -9.677  -0.014  0.00  0.00    -0.080 Cl
ATOM     10 CL   UNL     1      -9.422  -6.759  -0.003  0.00  0.00    -0.083 Cl
BRANCH   8  11
ATOM     11  O   UNL     1      -3.556  -7.036  -0.019  0.00  0.00    -0.505 OA
ATOM     12  H   UNL     1      -3.159  -7.061   0.862  0.00  0.00    +0.292 HD
ENDBRANCH   8  11
ENDBRANCH   2   3
BRANCH   1  15
ATOM     13  C   UNL     1      -1.365  -3.418  -0.011  0.00  0.00    +0.267 C 
ATOM     14  O   UNL     1      -0.804  -4.498  -0.019  0.00  0.00    -0.268 OA
ATOM     15  N   UNL     1      -2.711  -3.358  -0.004  0.00  0.00    -0.203 N 
ATOM     16  H   UNL     1      -3.158  -2.497   0.003  0.00  0.00    +0.178 HD
BRANCH  13  20
ATOM     17  C   UNL     1      -0.018   1.503   0.010  0.00  0.00    +0.086 C 
ATOM     18  C   UNL     1       0.002  -0.004   0.002  0.00  0.00    +0.103 A 
ATOM     19  C   UNL     1      -1.081  -0.797   0.003  0.00  0.00    +0.057 A 
ATOM     20  C   UNL     1      -0.572  -2.176  -0.008  0.00  0.00    +0.079 A 
ATOM     21  C   UNL     1       0.788  -2.066  -0.014  0.00  0.00    +0.114 A 
ATOM     22  O   UNL     1       1.106  -0.767  -0.013  0.00  0.00    -0.464 OA
ATOM     23  C   UNL     1       1.766  -3.212  -0.024  0.00  0.00    +0.087 C 
ENDBRANCH  13  20
ENDBRANCH   1  15
TORSDOF 4
