REMARK  Name = ZINC08448508
REMARK  8 active torsions:
REMARK  status: ('A' for Active; 'I' for Inactive)
REMARK    1  A    between atoms: C_1  and  C_2
REMARK    2  A    between atoms: C_3  and  C_30
REMARK    3  A    between atoms: C_4  and  C_25
REMARK    4  A    between atoms: C_7  and  N_24
REMARK    5  A    between atoms: C_8  and  C_12
REMARK    6  A    between atoms: C_12  and  C_14
REMARK    7  A    between atoms: C_30  and  O_32
REMARK    8  A    between atoms: O_32  and  C_33
REMARK                            x       y       z     vdW  Elec       q    Type
REMARK                         _______ _______ _______ _____ _____    ______ ____
ROOT
ATOM      1  C   UNL     1      -0.018   1.503   0.010  0.00  0.00    +0.061 C 
ATOM      2  C   UNL     1       0.002  -0.004   0.002  0.00  0.00    +0.016 C 
ATOM      3  C   UNL     1      -1.160  -0.670   0.015  0.00  0.00    +0.066 C 
ATOM      4  C   UNL     1      -1.290  -2.164   0.022  0.00  0.00    +0.098 C 
ATOM      5  C   UNL     1       0.059  -2.798  -0.296  0.00  0.00    +0.015 A 
ATOM      6  C   UNL     1       0.245  -4.132  -0.598  0.00  0.00    +0.048 A 
ATOM      7  C   UNL     1       1.540  -4.596  -0.864  0.00  0.00    +0.078 A 
ATOM      8  S   UNL     1       2.514  -3.109  -0.684  0.00  0.00    -0.068 S 
ATOM      9  C   UNL     1       1.197  -1.999  -0.284  0.00  0.00    +0.076 A 
ATOM     10  N   UNL     1       1.213  -0.655  -0.013  0.00  0.00    -0.312 N 
ATOM     11  H   UNL     1       2.043  -0.183   0.160  0.00  0.00    +0.152 HD
ENDROOT
BRANCH   4  12
ATOM     12  C   UNL     1      -1.748  -2.617   1.385  0.00  0.00    +0.002 A 
ATOM     13  C   UNL     1      -2.869  -3.298   1.726  0.00  0.00    +0.012 A 
ATOM     14  C   UNL     1      -3.085  -3.610   3.055  0.00  0.00    +0.008 A 
ATOM     15  C   UNL     1      -2.169  -3.226   3.978  0.00  0.00    +0.045 A 
ATOM     16  S   UNL     1      -0.950  -2.402   2.967  0.00  0.00    -0.101 S 
ENDBRANCH   4  12
BRANCH   6  17
ATOM     17  N   UNL     1      -0.837  -5.003  -0.636  0.00  0.00    -0.357 N 
ATOM     18  H   UNL     1      -0.699  -5.939  -0.849  0.00  0.00    +0.142 HD
ATOM     19  H   UNL     1      -1.731  -4.675  -0.451  0.00  0.00    +0.142 HD
ENDBRANCH   6  17
BRANCH   7  20
ATOM     20  C   UNL     1       1.961  -5.888  -1.187  0.00  0.00    +0.178 C 
ATOM     21  O   UNL     1       1.149  -6.791  -1.267  0.00  0.00    -0.291 OA
BRANCH  20  22
ATOM     22  C   UNL     1       3.422  -6.165  -1.435  0.00  0.00    +0.035 C 
ATOM     23  C   UNL     1       4.227  -5.816  -0.182  0.00  0.00    +0.018 C 
ATOM     24  C   UNL     1       5.710  -6.096  -0.435  0.00  0.00    -0.010 C 
ATOM     25  C   UNL     1       5.899  -7.578  -0.766  0.00  0.00    +0.007 C 
ATOM     26  C   UNL     1       5.094  -7.927  -2.019  0.00  0.00    -0.010 C 
ATOM     27  C   UNL     1       3.611  -7.646  -1.767  0.00  0.00    +0.018 C 
ATOM     28  C   UNL     1       5.582  -7.075  -3.193  0.00  0.00    +0.007 C 
ATOM     29  C   UNL     1       5.392  -5.594  -2.861  0.00  0.00    -0.010 C 
ATOM     30  C   UNL     1       6.198  -5.245  -1.608  0.00  0.00    +0.007 C 
ATOM     31  C   UNL     1       3.909  -5.313  -2.609  0.00  0.00    +0.018 C 
ENDBRANCH  20  22
ENDBRANCH   7  20
BRANCH   3  32
ATOM     32  C   UNL     1      -2.350   0.091   0.016  0.00  0.00    +0.337 C 
ATOM     33  O   UNL     1      -2.296   1.306   0.006  0.00  0.00    -0.245 OA
BRANCH  32  34
ATOM     34  O   UNL     1      -3.548  -0.531   0.029  0.00  0.00    -0.465 OA
ATOM     35  C   UNL     1      -4.711   0.300   0.030  0.00  0.00    +0.280 C 
ENDBRANCH  32  34
ENDBRANCH   3  32
TORSDOF 6
