REMARK  Name = ZINC12416489
REMARK  6 active torsions:
REMARK  status: ('A' for Active; 'I' for Inactive)
REMARK    1  A    between atoms: C_1  and  C_2
REMARK    2  A    between atoms: C_3  and  C_19
REMARK    3  A    between atoms: C_4  and  C_10
REMARK    4  A    between atoms: C_13  and  N_16
REMARK    5  A    between atoms: N_16  and  C_17
REMARK    6  A    between atoms: N_16  and  C_18
REMARK                            x       y       z     vdW  Elec       q    Type
REMARK                         _______ _______ _______ _____ _____    ______ ____
ROOT
ATOM      1  C   UNL     1       3.348   5.878   3.212  0.00  0.00    +0.061 C 
ATOM      2  C   UNL     1       2.980   5.532   1.792  0.00  0.00    +0.021 C 
ATOM      3  C   UNL     1       2.823   4.237   1.443  0.00  0.00    +0.082 C 
ATOM      4  C   UNL     1       2.452   3.934   0.006  0.00  0.00    +0.144 C 
ATOM      5  N   UNL     1       2.293   5.085  -0.899  0.00  0.00    -0.288 N 
ATOM      6  C   UNL     1       2.484   6.323  -0.402  0.00  0.00    +0.304 C 
ATOM      7  O   UNL     1       2.355   7.280  -1.141  0.00  0.00    -0.252 OA
ATOM      8  N   UNL     1       2.811   6.534   0.879  0.00  0.00    -0.273 N 
ATOM      9  H   UNL     1       2.056   4.955  -1.831  0.00  0.00    +0.151 HD
ATOM     10  H   UNL     1       2.935   7.449   1.176  0.00  0.00    +0.156 HD
ENDROOT
BRANCH   4  11
ATOM     11  C   UNL     1       1.156   3.166   0.012  0.00  0.00    -0.022 A 
ATOM     12  C   UNL     1       1.174   1.783   0.018  0.00  0.00    +0.007 A 
ATOM     13  C   UNL     1      -0.013   1.076   0.024  0.00  0.00    +0.023 A 
ATOM     14  C   UNL     1      -1.224   1.755   0.019  0.00  0.00    +0.029 A 
ATOM     15  C   UNL     1      -1.239   3.144   0.018  0.00  0.00    +0.023 A 
ATOM     16  C   UNL     1      -0.049   3.845   0.013  0.00  0.00    +0.007 A 
BRANCH  14  17
ATOM     17  N   UNL     1      -2.426   1.042   0.019  0.00  0.00    -0.336 N 
ATOM     18  C   UNL     1      -2.412  -0.418  -0.101  0.00  0.00    +0.129 C 
ATOM     19  C   UNL     1      -3.700   1.755   0.140  0.00  0.00    +0.129 C 
ENDBRANCH  14  17
ENDBRANCH   4  11
BRANCH   3  20
ATOM     20  C   UNL     1       2.999   3.199   2.388  0.00  0.00    +0.386 C 
ATOM     21  O   UNL     1       3.296   3.466   3.537  0.00  0.00    -0.241 OA
ATOM     22  O   UNL     1       2.836   1.912   2.014  0.00  0.00    -0.241 OA
ENDBRANCH   3  20
TORSDOF 3
