REMARK  Name = ZINC40869854
REMARK  5 active torsions:
REMARK  status: ('A' for Active; 'I' for Inactive)
REMARK    1  A    between atoms: C_6  and  N_11
REMARK    2  A    between atoms: C_7  and  C_8
REMARK    3  A    between atoms: C_12  and  C_14
REMARK    4  A    between atoms: C_14  and  O_15
REMARK    5  A    between atoms: O_15  and  C_16
REMARK                            x       y       z     vdW  Elec       q    Type
REMARK                         _______ _______ _______ _____ _____    ______ ____
ROOT
ATOM      1  N   UNL     1       4.812  -1.439   2.296  0.00  0.00    -0.277 N 
ATOM      2  C   UNL     1       4.833  -2.727   2.694  0.00  0.00    +0.255 C 
ATOM      3  O   UNL     1       3.857  -3.428   2.528  0.00  0.00    -0.272 OA
ATOM      4  H   UNL     1       5.593  -0.878   2.428  0.00  0.00    +0.155 HD
ENDROOT
BRANCH   1  10
ATOM      5  C   UNL     1      -0.019   1.541   0.011  0.00  0.00    +0.010 C 
ATOM      6  C   UNL     1       1.486   1.876  -0.002  0.00  0.00    +0.037 C 
ATOM      7  C   UNL     1       2.176   0.671   0.633  0.00  0.00    -0.023 A 
ATOM      8  C   UNL     1       1.324  -0.370   0.621  0.00  0.00    -0.004 A 
ATOM      9  S   UNL     1       2.228  -1.698   1.373  0.00  0.00    -0.077 S 
ATOM     10  C   UNL     1       3.676  -0.916   1.697  0.00  0.00    +0.084 A 
ATOM     11  C   UNL     1       3.477   0.369   1.229  0.00  0.00    +0.068 A 
ATOM     12  C   UNL     1       0.002  -0.004   0.002  0.00  0.00    +0.043 C 
BRANCH  11  13
ATOM     13  C   UNL     1       4.527   1.388   1.326  0.00  0.00    +0.244 C 
ATOM     14  O   UNL     1       4.596   2.098   2.312  0.00  0.00    -0.270 OA
ATOM     15  N   UNL     1       5.415   1.538   0.324  0.00  0.00    -0.325 N 
ATOM     16  H   UNL     1       5.360   0.972  -0.462  0.00  0.00    +0.145 HD
ATOM     17  H   UNL     1       6.110   2.212   0.388  0.00  0.00    +0.145 HD
ENDBRANCH  11  13
ENDBRANCH   1  10
BRANCH   2  18
ATOM     18  C   UNL     1       6.067  -3.295   3.345  0.00  0.00    +0.325 C 
BRANCH  18  19
ATOM     19  O   UNL     1       5.844  -4.667   3.674  0.00  0.00    -0.480 OA
BRANCH  19  20
ATOM     20  C   UNL     1       6.867  -5.333   4.272  0.00  0.00    +0.161 A 
ATOM     21  C   UNL     1       7.811  -5.995   3.500  0.00  0.00    +0.104 A 
ATOM     22  C   UNL     1       8.852  -6.672   4.111  0.00  0.00    +0.083 A 
ATOM     23  C   UNL     1       8.952  -6.689   5.491  0.00  0.00    +0.081 A 
ATOM     24  C   UNL     1       8.011  -6.029   6.263  0.00  0.00    +0.083 A 
ATOM     25  C   UNL     1       6.972  -5.347   5.656  0.00  0.00    +0.104 A 
ATOM     26 CL   UNL     1       5.797  -4.513   6.624  0.00  0.00    -0.078 Cl
ATOM     27 CL   UNL     1       8.139  -6.052   7.995  0.00  0.00    -0.080 Cl
ATOM     28 CL   UNL     1      10.258  -7.540   6.255  0.00  0.00    -0.080 Cl
ATOM     29 CL   UNL     1      10.033  -7.501   3.145  0.00  0.00    -0.080 Cl
ATOM     30 CL   UNL     1       7.685  -5.975   1.769  0.00  0.00    -0.078 Cl
ENDBRANCH  19  20
ENDBRANCH  18  19
ENDBRANCH   2  18
TORSDOF 5
