REMARK  Name = ZINC36507253
REMARK  16 active torsions:
REMARK  status: ('A' for Active; 'I' for Inactive)
REMARK    1  A    between atoms: C_1  and  C_2
REMARK    2  A    between atoms: C_2  and  C_3
REMARK    3  A    between atoms: C_3  and  C_4
REMARK    4  A    between atoms: C_4  and  C_5
REMARK    5  A    between atoms: N_7  and  C_8
REMARK    6  A    between atoms: N_7  and  C_14
REMARK    7  A    between atoms: C_8  and  C_9
REMARK    8  A    between atoms: C_14  and  C_16
REMARK    9  A    between atoms: C_14  and  C_25
REMARK   10  A    between atoms: C_17  and  O_24
REMARK   11  A    between atoms: C_19  and  O_23
REMARK   12  A    between atoms: C_21  and  O_22
REMARK   13  A    between atoms: N_27  and  C_28
REMARK   14  A    between atoms: C_28  and  C_29
REMARK   15  A    between atoms: C_28  and  C_30
REMARK   16  A    between atoms: C_28  and  C_31
REMARK                            x       y       z     vdW  Elec       q    Type
REMARK                         _______ _______ _______ _____ _____    ______ ____
ROOT
ATOM      1  C   UNL     1      -4.009  -4.240   0.015  0.00  0.00    +0.200 C 
ENDROOT
BRANCH   1   2
ATOM      2  C   UNL     1      -4.332  -5.251  -1.054  0.00  0.00    +0.065 A 
ATOM      3  C   UNL     1      -3.373  -6.169  -1.454  0.00  0.00    +0.129 A 
ATOM      4  C   UNL     1      -3.670  -7.100  -2.438  0.00  0.00    +0.091 A 
ATOM      5  C   UNL     1      -4.928  -7.113  -3.022  0.00  0.00    +0.124 A 
ATOM      6  C   UNL     1      -5.888  -6.196  -2.622  0.00  0.00    +0.091 A 
ATOM      7  C   UNL     1      -5.592  -5.268  -1.634  0.00  0.00    +0.129 A 
BRANCH   7   8
ATOM      8  O   UNL     1      -6.534  -4.372  -1.239  0.00  0.00    -0.506 OA
ATOM      9  H   UNL     1      -6.529  -3.547  -1.744  0.00  0.00    +0.292 HD
ENDBRANCH   7   8
BRANCH   5  10
ATOM     10  O   UNL     1      -5.219  -8.024  -3.987  0.00  0.00    -0.507 OA
ATOM     11  H   UNL     1      -5.585  -8.853  -3.647  0.00  0.00    +0.292 HD
ENDBRANCH   5  10
BRANCH   3  12
ATOM     12  O   UNL     1      -2.140  -6.156  -0.881  0.00  0.00    -0.506 OA
ATOM     13  H   UNL     1      -2.042  -6.775  -0.145  0.00  0.00    +0.292 HD
ENDBRANCH   3  12
ENDBRANCH   1   2
BRANCH   1  14
ATOM     14  C   UNL     1      -3.965  -4.924   1.357  0.00  0.00    +0.239 C 
ATOM     15  O   UNL     1      -3.056  -4.694   2.126  0.00  0.00    -0.273 OA
ATOM     16  N   UNL     1      -4.936  -5.793   1.703  0.00  0.00    -0.309 N 
ATOM     17  H   UNL     1      -5.617  -6.041   1.058  0.00  0.00    +0.149 HD
BRANCH  16  18
ATOM     18  C   UNL     1      -4.963  -6.361   3.053  0.00  0.00    +0.026 C 
ATOM     19  C   UNL     1      -5.143  -5.238   4.076  0.00  0.00    +0.031 C 
ATOM     20  C   UNL     1      -6.128  -7.347   3.167  0.00  0.00    +0.031 C 
ATOM     21  C   UNL     1      -3.647  -7.093   3.325  0.00  0.00    +0.031 C 
ENDBRANCH  16  18
ENDBRANCH   1  14
BRANCH   1  24
ATOM     22  C   UNL     1      -2.586  -2.720  -1.251  0.00  0.00    +0.217 C 
ATOM     23  O   UNL     1      -3.557  -2.402  -1.904  0.00  0.00    -0.276 OA
ATOM     24  N   UNL     1      -2.706  -3.632  -0.266  0.00  0.00    -0.278 N 
BRANCH  22  25
ATOM     25  C   UNL     1      -1.246  -2.094  -1.540  0.00  0.00    +0.096 C 
BRANCH  25  26
ATOM     26  C   UNL     1      -1.385  -1.101  -2.695  0.00  0.00    +0.009 C 
BRANCH  26  28
ATOM     27  C   UNL     1      -0.164   0.528  -4.144  0.00  0.00    +0.004 C 
ATOM     28  C   UNL     1      -0.025  -0.466  -2.988  0.00  0.00    -0.003 C 
ENDBRANCH  26  28
ENDBRANCH  25  26
ENDBRANCH  22  25
BRANCH  24  29
ATOM     29  C   UNL     1      -1.533  -4.016   0.524  0.00  0.00    +0.183 C 
BRANCH  29  30
ATOM     30  C   UNL     1      -1.258  -2.958   1.561  0.00  0.00    +0.122 A 
ATOM     31  C   UNL     1      -1.585  -3.030   2.864  0.00  0.00    +0.046 A 
ATOM     32  C   UNL     1      -1.143  -1.829   3.464  0.00  0.00    +0.041 A 
ATOM     33  C   UNL     1      -0.572  -1.094   2.493  0.00  0.00    +0.195 A 
ATOM     34  O   UNL     1      -0.639  -1.786   1.343  0.00  0.00    -0.466 OA
ENDBRANCH  29  30
ENDBRANCH  24  29
ENDBRANCH   1  24
TORSDOF 12
