REMARK  Name = ZINC13500619
REMARK  12 active torsions:
REMARK  status: ('A' for Active; 'I' for Inactive)
REMARK    1  A    between atoms: C_1  and  C_2
REMARK    2  A    between atoms: C_12  and  C_14
REMARK    3  A    between atoms: C_14  and  N_72
REMARK    4  A    between atoms: C_15  and  N_72
REMARK    5  A    between atoms: C_20  and  C_22
REMARK    6  A    between atoms: C_20  and  C_35
REMARK    7  A    between atoms: C_20  and  N_72
REMARK    8  A    between atoms: N_26  and  C_27
REMARK    9  A    between atoms: C_27  and  C_28
REMARK   10  A    between atoms: C_28  and  C_29
REMARK   11  A    between atoms: C_35  and  C_36
REMARK   12  A    between atoms: C_35  and  C_37
REMARK                            x       y       z     vdW  Elec       q    Type
REMARK                         _______ _______ _______ _____ _____    ______ ____
ROOT
ATOM      1  N   UNL     1       0.559  -0.485   2.551  0.00  0.00    +0.391 N 
ATOM      2  H   UNL     1      -0.378  -0.467   2.133  0.00  0.00    -0.080 HD
ENDROOT
BRANCH   1   3
ATOM      3  C   UNL     1       0.648  -1.631   3.481  0.00  0.00    -0.067 C 
ATOM      4  C   UNL     1       1.960  -1.589   4.291  0.00  0.00    -0.015 C 
ATOM      5  C   UNL     1       2.377  -3.076   4.415  0.00  0.00    -0.002 C 
ATOM      6  C   UNL     1       1.989  -3.658   3.033  0.00  0.00    -0.002 C 
ATOM      7  C   UNL     1       0.666  -2.946   2.682  0.00  0.00    -0.015 C 
ENDBRANCH   1   3
BRANCH   1   8
ATOM      8  C   UNL     1       1.563  -0.629   1.476  0.00  0.00    -0.036 C 
BRANCH   8  20
ATOM      9  C   UNL     1       7.055   2.440   3.380  0.00  0.00    +0.046 C 
ATOM     10  C   UNL     1       6.695   0.977   3.340  0.00  0.00    -0.026 A 
ATOM     11  C   UNL     1       7.606   0.028   3.754  0.00  0.00    +0.005 A 
ATOM     12  C   UNL     1       7.287  -1.322   3.722  0.00  0.00    +0.001 A 
ATOM     13  C   UNL     1       6.062  -1.737   3.279  0.00  0.00    +0.010 A 
ATOM     14  C   UNL     1       5.122  -0.792   2.855  0.00  0.00    -0.001 A 
ATOM     15  C   UNL     1       5.443   0.578   2.885  0.00  0.00    +0.052 A 
ATOM     16  N   UNL     1       4.513   1.505   2.465  0.00  0.00    -0.322 N 
ATOM     17  H   UNL     1       4.735   2.449   2.487  0.00  0.00    +0.169 HD
ATOM     18  C   UNL     1       3.304   1.119   2.021  0.00  0.00    +0.251 A 
ATOM     19  O   UNL     1       2.508   1.966   1.653  0.00  0.00    -0.268 OA
ATOM     20  C   UNL     1       2.931  -0.241   1.976  0.00  0.00    +0.001 A 
ATOM     21  C   UNL     1       3.801  -1.202   2.375  0.00  0.00    +0.017 A 
ENDBRANCH   8  20
ENDBRANCH   1   8
BRANCH   1  22
ATOM     22  C   UNL     1       0.782   0.778   3.285  0.00  0.00    +0.006 C 
BRANCH  22  23
ATOM     23  C   UNL     1       0.152   0.680   4.650  0.00  0.00    +0.138 A 
ATOM     24  N   UNL     1      -1.048   0.233   4.928  0.00  0.00    -0.115 NA
ATOM     25  N   UNL     1      -1.216   0.308   6.203  0.00  0.00    -0.023 NA
ATOM     26  N   UNL     1      -0.153   0.792   6.746  0.00  0.00    -0.044 NA
ATOM     27  N   UNL     1       0.715   1.030   5.822  0.00  0.00    -0.231 N 
BRANCH  27  28
ATOM     28  C   UNL     1       2.060   1.579   6.012  0.00  0.00    +0.152 C 
BRANCH  28  29
ATOM     29  C   UNL     1       1.974   3.100   6.150  0.00  0.00    +0.058 C 
BRANCH  29  30
ATOM     30  C   UNL     1       3.365   3.676   6.233  0.00  0.00    -0.046 A 
ATOM     31  C   UNL     1       3.974   3.836   7.463  0.00  0.00    +0.004 A 
ATOM     32  C   UNL     1       5.251   4.359   7.539  0.00  0.00    +0.000 A 
ATOM     33  C   UNL     1       5.915   4.733   6.385  0.00  0.00    +0.000 A 
ATOM     34  C   UNL     1       5.303   4.578   5.155  0.00  0.00    +0.000 A 
ATOM     35  C   UNL     1       4.028   4.050   5.079  0.00  0.00    +0.004 A 
ENDBRANCH  29  30
ENDBRANCH  28  29
ENDBRANCH  27  28
ENDBRANCH  22  23
BRANCH  22  36
ATOM     36  C   UNL     1       0.129   1.919   2.502  0.00  0.00    -0.024 C 
ATOM     37  C   UNL     1       0.282   3.226   3.283  0.00  0.00    +0.006 C 
ATOM     38  C   UNL     1      -1.357   1.615   2.303  0.00  0.00    +0.006 C 
ENDBRANCH  22  36
ENDBRANCH   1  22
TORSDOF 9
