REMARK  Name = ZINC54174395
REMARK  4 active torsions:
REMARK  status: ('A' for Active; 'I' for Inactive)
REMARK    1  A    between atoms: C_4  and  C_7
REMARK    2  A    between atoms: N_16  and  C_17
REMARK    3  A    between atoms: C_17  and  C_18
REMARK    4  A    between atoms: C_20  and  N_23
REMARK                            x       y       z     vdW  Elec       q    Type
REMARK                         _______ _______ _______ _____ _____    ______ ____
ROOT
ATOM      1  C   UNL     1       3.711  -0.707  -0.038  0.00  0.00    +0.134 C 
ATOM      2  C   UNL     1       4.042  -1.193   1.353  0.00  0.00    +0.041 A 
ATOM      3  C   UNL     1       3.948  -0.522   2.510  0.00  0.00    +0.024 A 
ATOM      4  C   UNL     1       4.366  -1.395   3.537  0.00  0.00    +0.019 A 
ATOM      5  C   UNL     1       4.701  -2.569   2.960  0.00  0.00    +0.086 A 
ATOM      6  N   UNL     1       4.508  -2.454   1.621  0.00  0.00    -0.348 N 
ATOM      7  C   UNL     1       4.741  -3.465   0.583  0.00  0.00    +0.137 C 
ATOM      8  C   UNL     1       4.786  -2.755  -0.775  0.00  0.00    +0.107 C 
ATOM      9  N   UNL     1       3.613  -1.882  -0.921  0.00  0.00    -0.284 NA
ENDROOT
BRANCH   1  13
ATOM     10  C   UNL     1      -0.017   1.378   0.010  0.00  0.00    +0.000 A 
ATOM     11  C   UNL     1       1.171   2.086   0.002  0.00  0.00    +0.000 A 
ATOM     12  C   UNL     1       2.377   1.411  -0.013  0.00  0.00    +0.005 A 
ATOM     13  C   UNL     1       2.396   0.029  -0.020  0.00  0.00    -0.024 A 
ATOM     14  C   UNL     1       1.208  -0.679  -0.012  0.00  0.00    +0.005 A 
ATOM     15  C   UNL     1       0.002  -0.004   0.002  0.00  0.00    +0.000 A 
ENDBRANCH   1  13
BRANCH   9  16
ATOM     16  C   UNL     1       3.428  -1.475  -2.320  0.00  0.00    +0.121 C 
BRANCH  16  17
ATOM     17  C   UNL     1       3.088  -2.683  -3.154  0.00  0.00    -0.024 A 
ATOM     18  C   UNL     1       4.088  -3.433  -3.744  0.00  0.00    +0.045 A 
ATOM     19  C   UNL     1       3.748  -4.514  -4.488  0.00  0.00    +0.164 A 
ATOM     20  S   UNL     1       1.967  -4.498  -4.369  0.00  0.00    -0.073 S 
ATOM     21  C   UNL     1       1.796  -3.054  -3.332  0.00  0.00    +0.052 A 
BRANCH  19  22
ATOM     22  N   UNL     1       4.625  -5.462  -5.211  0.00  0.00    +0.063 N 
ATOM     23  O   UNL     1       5.825  -5.317  -5.182  0.00  0.00    -0.126 OA
ATOM     24  O   UNL     1       4.142  -6.380  -5.831  0.00  0.00    -0.126 OA
ENDBRANCH  19  22
ENDBRANCH  16  17
ENDBRANCH   9  16
TORSDOF 4
