REMARK  Name = ZINC01354158
REMARK  4 active torsions:
REMARK  status: ('A' for Active; 'I' for Inactive)
REMARK    1  A    between atoms: C_4  and  C_8
REMARK    2  A    between atoms: C_8  and  N_9
REMARK    3  A    between atoms: C_13  and  N_16
REMARK    4  A    between atoms: N_19  and  C_20
REMARK                            x       y       z     vdW  Elec       q    Type
REMARK                         _______ _______ _______ _____ _____    ______ ____
ROOT
ATOM      1  N   UNL     1       4.009  -0.872   1.408  0.00  0.00    -0.309 N 
ATOM      2  C   UNL     1       4.918  -0.032   1.970  0.00  0.00    +0.089 A 
ATOM      3  C   UNL     1       5.476  -0.316   3.169  0.00  0.00    +0.020 A 
ATOM      4  C   UNL     1       5.119  -1.489   3.849  0.00  0.00    +0.030 A 
ATOM      5  C   UNL     1       4.204  -2.335   3.286  0.00  0.00    +0.100 A 
ATOM      6  C   UNL     1       3.638  -2.004   2.036  0.00  0.00    +0.273 A 
ATOM      7  O   UNL     1       2.816  -2.747   1.521  0.00  0.00    -0.266 OA
ENDROOT
BRANCH   5   8
ATOM      8  N   UNL     1       3.829  -3.515   3.945  0.00  0.00    -0.265 N 
ATOM      9  C   UNL     1       4.005  -4.708   3.343  0.00  0.00    +0.304 C 
ATOM     10  O   UNL     1       4.572  -4.769   2.269  0.00  0.00    -0.252 OA
ATOM     11  N   UNL     1       3.551  -5.833   3.931  0.00  0.00    -0.296 N 
ATOM     12  H   UNL     1       3.443  -3.472   4.834  0.00  0.00    +0.157 HD
ATOM     13  H   UNL     1       3.099  -5.784   4.787  0.00  0.00    +0.151 HD
BRANCH  11  14
ATOM     14  C   UNL     1       3.743  -7.130   3.277  0.00  0.00    +0.074 C 
ATOM     15  C   UNL     1       2.608  -7.369   2.278  0.00  0.00    +0.022 C 
ATOM     16  C   UNL     1       2.808  -8.724   1.595  0.00  0.00    +0.002 C 
ATOM     17  C   UNL     1       2.803  -9.832   2.649  0.00  0.00    +0.000 C 
ATOM     18  C   UNL     1       3.937  -9.593   3.648  0.00  0.00    +0.002 C 
ATOM     19  C   UNL     1       3.737  -8.238   4.331  0.00  0.00    +0.022 C 
ENDBRANCH  11  14
ENDBRANCH   5   8
BRANCH   1  20
ATOM     20  C   UNL     1       3.421  -0.539   0.108  0.00  0.00    +0.164 C 
BRANCH  20  24
ATOM     21  C   UNL     1      -0.118   1.784   0.696  0.00  0.00    +0.004 A 
ATOM     22  C   UNL     1       1.106   2.413   0.564  0.00  0.00    +0.039 A 
ATOM     23  C   UNL     1       2.253   1.662   0.374  0.00  0.00    +0.130 A 
ATOM     24  C   UNL     1       2.174   0.281   0.316  0.00  0.00    +0.026 A 
ATOM     25  C   UNL     1       0.948  -0.347   0.448  0.00  0.00    +0.049 A 
ATOM     26  C   UNL     1      -0.197   0.406   0.638  0.00  0.00    +0.020 A 
ATOM     27 CL   UNL     1       0.847  -2.078   0.376  0.00  0.00    -0.083 Cl
ATOM     28  F   UNL     1       3.450   2.276   0.244  0.00  0.00    -0.205 F 
ENDBRANCH  20  24
ENDBRANCH   1  20
TORSDOF 4
