REMARK  Name = ZINC20585847
REMARK  3 active torsions:
REMARK  status: ('A' for Active; 'I' for Inactive)
REMARK    1  A    between atoms: C_3  and  N_9
REMARK    2  A    between atoms: N_9  and  C_10
REMARK    3  A    between atoms: C_15  and  N_16
REMARK                            x       y       z     vdW  Elec       q    Type
REMARK                         _______ _______ _______ _____ _____    ______ ____
ROOT
ATOM      1  C   UNL     1       3.513   3.524  -0.106  0.00  0.00    +0.056 A 
ATOM      2  C   UNL     1       2.281   4.160  -0.077  0.00  0.00    +0.074 A 
ATOM      3  C   UNL     1       2.210   5.543  -0.160  0.00  0.00    +0.164 A 
ATOM      4  C   UNL     1       3.374   6.293  -0.270  0.00  0.00    +0.164 A 
ATOM      5  C   UNL     1       4.608   5.658  -0.301  0.00  0.00    +0.074 A 
ATOM      6  C   UNL     1       4.681   4.277  -0.214  0.00  0.00    +0.050 A 
ATOM      7  O   UNL     1       3.323   7.652  -0.344  0.00  0.00    -0.485 OA
ATOM      8  C   UNL     1       2.059   8.232  -0.686  0.00  0.00    +0.270 C 
ATOM      9  C   UNL     1       0.975   7.551   0.160  0.00  0.00    +0.270 C 
ATOM     10  O   UNL     1       0.990   6.150  -0.134  0.00  0.00    -0.485 OA
ENDROOT
BRANCH   6  11
ATOM     11  N   UNL     1       5.928   3.637  -0.239  0.00  0.00    -0.356 N 
ATOM     12  H   UNL     1       5.979   2.670  -0.182  0.00  0.00    +0.142 HD
ATOM     13  H   UNL     1       6.741   4.161  -0.314  0.00  0.00    +0.142 HD
ENDBRANCH   6  11
BRANCH   1  14
ATOM     14  N   UNL     1       3.583   2.126  -0.021  0.00  0.00    -0.312 N 
ATOM     15  H   UNL     1       4.436   1.677  -0.124  0.00  0.00    +0.152 HD
BRANCH  14  18
ATOM     16  C   UNL     1       0.359   1.065   1.392  0.00  0.00    +0.040 A 
ATOM     17  C   UNL     1       1.504   1.804   1.163  0.00  0.00    +0.027 A 
ATOM     18  C   UNL     1       2.424   1.381   0.212  0.00  0.00    +0.046 A 
ATOM     19  C   UNL     1       2.188   0.215  -0.508  0.00  0.00    +0.042 A 
ATOM     20  C   UNL     1       1.042  -0.519  -0.276  0.00  0.00    +0.055 A 
ATOM     21  C   UNL     1       0.127  -0.095   0.674  0.00  0.00    +0.125 A 
ATOM     22  F   UNL     1      -0.994  -0.815   0.899  0.00  0.00    -0.205 F 
ATOM     23 BR   UNL     1       3.437  -0.364  -1.804  0.00  0.00    -0.048 Br
ENDBRANCH  14  18
ENDBRANCH   1  14
TORSDOF 3
