REMARK  Name = ZINC00906593
REMARK  9 active torsions:
REMARK  status: ('A' for Active; 'I' for Inactive)
REMARK    1  A    between atoms: C_1  and  C_2
REMARK    2  A    between atoms: C_5  and  N_8
REMARK    3  A    between atoms: N_8  and  C_9
REMARK    4  A    between atoms: C_9  and  C_10
REMARK    5  A    between atoms: N_12  and  C_13
REMARK    6  A    between atoms: C_18  and  C_20
REMARK    7  A    between atoms: C_21  and  N_34
REMARK    8  A    between atoms: C_22  and  C_25
REMARK    9  A    between atoms: N_27  and  C_28
REMARK                            x       y       z     vdW  Elec       q    Type
REMARK                         _______ _______ _______ _____ _____    ______ ____
ROOT
ATOM      1  N   UNL     1       6.807   2.096   1.361  0.00  0.00    -0.258 N 
ATOM      2  C   UNL     1       6.489   3.382   1.608  0.00  0.00    +0.261 C 
ATOM      3  O   UNL     1       5.879   4.029   0.776  0.00  0.00    -0.269 OA
ENDROOT
BRANCH   1   8
ATOM      4  C   UNL     1       9.228  -1.054   5.409  0.00  0.00    +0.044 C 
ATOM      5  C   UNL     1       8.585  -0.217   4.334  0.00  0.00    -0.050 A 
ATOM      6  C   UNL     1       7.207  -0.133   4.257  0.00  0.00    +0.005 A 
ATOM      7  C   UNL     1       6.614   0.634   3.272  0.00  0.00    +0.024 A 
ATOM      8  C   UNL     1       7.404   1.319   2.359  0.00  0.00    +0.037 A 
ATOM      9  C   UNL     1       8.788   1.228   2.435  0.00  0.00    +0.024 A 
ATOM     10  C   UNL     1       9.374   0.464   3.425  0.00  0.00    +0.005 A 
ENDBRANCH   1   8
BRANCH   2  11
ATOM     11  C   UNL     1       6.876   4.002   2.876  0.00  0.00    +0.116 A 
ATOM     12  C   UNL     1       6.567   5.269   3.373  0.00  0.00    +0.076 A 
ATOM     13  C   UNL     1       7.122   5.500   4.632  0.00  0.00    +0.156 A 
ATOM     14  N   UNL     1       7.843   4.558   5.199  0.00  0.00    -0.203 NA
ATOM     15  S   UNL     1       7.861   3.337   4.203  0.00  0.00    +0.019 S 
BRANCH  13  16
ATOM     16  C   UNL     1       6.904   6.786   5.318  0.00  0.00    +0.265 C 
ATOM     17  O   UNL     1       6.237   7.653   4.787  0.00  0.00    -0.268 OA
ATOM     18  N   UNL     1       7.444   7.002   6.534  0.00  0.00    -0.307 N 
ATOM     19  H   UNL     1       7.977   6.310   6.957  0.00  0.00    +0.149 HD
BRANCH  18  20
ATOM     20  C   UNL     1       7.228   8.280   7.216  0.00  0.00    +0.073 C 
ATOM     21  C   UNL     1       8.267   9.296   6.736  0.00  0.00    +0.022 C 
ATOM     22  C   UNL     1       8.040  10.631   7.449  0.00  0.00    +0.002 C 
ATOM     23  C   UNL     1       8.180  10.433   8.959  0.00  0.00    +0.000 C 
ATOM     24  C   UNL     1       7.141   9.417   9.439  0.00  0.00    +0.002 C 
ATOM     25  C   UNL     1       7.367   8.082   8.726  0.00  0.00    +0.022 C 
ENDBRANCH  18  20
ENDBRANCH  13  16
BRANCH  12  26
ATOM     26  N   UNL     1       5.792   6.197   2.691  0.00  0.00    -0.355 N 
ATOM     27  H   UNL     1       5.431   5.979   1.817  0.00  0.00    +0.142 HD
ATOM     28  H   UNL     1       5.610   7.064   3.087  0.00  0.00    +0.142 HD
ENDBRANCH  12  26
ENDBRANCH   2  11
BRANCH   1  29
ATOM     29  C   UNL     1       6.528   1.512   0.047  0.00  0.00    +0.209 C 
BRANCH  29  30
ATOM     30  C   UNL     1       5.148   0.906   0.049  0.00  0.00    +0.231 C 
ATOM     31  O   UNL     1       4.465   0.958   1.050  0.00  0.00    -0.274 OA
ATOM     32  N   UNL     1       4.673   0.308  -1.061  0.00  0.00    -0.311 N 
ATOM     33  H   UNL     1       5.220   0.266  -1.862  0.00  0.00    +0.149 HD
BRANCH  32  34
ATOM     34  C   UNL     1       3.332  -0.281  -1.059  0.00  0.00    +0.073 C 
ATOM     35  C   UNL     1       2.280   0.749  -1.542  0.00  0.00    +0.022 C 
ATOM     36  C   UNL     1       1.115  -0.117  -2.064  0.00  0.00    +0.002 C 
ATOM     37  C   UNL     1       1.714  -1.486  -2.432  0.00  0.00    +0.002 C 
ATOM     38  C   UNL     1       3.223  -1.404  -2.120  0.00  0.00    +0.022 C 
ENDBRANCH  32  34
ENDBRANCH  29  30
ENDBRANCH   1  29
TORSDOF 8
