REMARK  Name = ZINC66988799
REMARK  8 active torsions:
REMARK  status: ('A' for Active; 'I' for Inactive)
REMARK    1  A    between atoms: C_1  and  N_2
REMARK    2  A    between atoms: N_2  and  S_3
REMARK    3  A    between atoms: S_3  and  C_6
REMARK    4  A    between atoms: C_10  and  C_12
REMARK    5  A    between atoms: C_12  and  N_13
REMARK    6  A    between atoms: N_13  and  C_14
REMARK    7  A    between atoms: C_14  and  C_15
REMARK    8  A    between atoms: C_24  and  O_25
REMARK                            x       y       z     vdW  Elec       q    Type
REMARK                         _______ _______ _______ _____ _____    ______ ____
ROOT
ATOM      1  N   UNL     1      -4.323  -1.435   4.032  0.00  0.00    +0.384 N 
ATOM      2  H   UNL     1      -4.495  -0.498   4.365  0.00  0.00    -0.085 HD
ATOM      3  H   UNL     1      -4.239  -1.423   3.026  0.00  0.00    -0.085 HD
ENDROOT
BRANCH   1   4
ATOM      4  C   UNL     1      -3.078  -1.943   4.622  0.00  0.00    -0.046 C 
BRANCH   4   9
ATOM      5  C   UNL     1      -0.166  -0.494   2.705  0.00  0.00    +0.105 A 
ATOM      6  C   UNL     1       0.172   0.589   3.494  0.00  0.00    +0.028 A 
ATOM      7  C   UNL     1      -0.540   0.852   4.649  0.00  0.00    +0.002 A 
ATOM      8  C   UNL     1      -1.592   0.033   5.014  0.00  0.00    +0.002 A 
ATOM      9  C   UNL     1      -1.931  -1.050   4.224  0.00  0.00    -0.063 A 
ATOM     10  C   UNL     1      -1.221  -1.310   3.067  0.00  0.00    +0.030 A 
BRANCH   5  11
ATOM     11  S   UNL     1       0.742  -0.829   1.233  0.00  0.00    +0.058 S 
ATOM     12  O   UNL     1       0.570  -2.212   0.955  0.00  0.00    -0.153 OA
ATOM     13  O   UNL     1       2.024  -0.240   1.403  0.00  0.00    -0.153 OA
BRANCH  11  15
ATOM     14  C   UNL     1      -0.018   1.461   0.010  0.00  0.00    +0.127 C 
ATOM     15  N   UNL     1       0.002  -0.004   0.002  0.00  0.00    -0.193 NA
ATOM     16  H   UNL     1      -0.418  -0.491  -0.724  0.00  0.00    +0.148 HD
ENDBRANCH  11  15
ENDBRANCH   5  11
ENDBRANCH   4   9
ENDBRANCH   1   4
BRANCH   1  17
ATOM     17  C   UNL     1      -5.440  -2.306   4.420  0.00  0.00    -0.042 C 
BRANCH  17  18
ATOM     18  C   UNL     1      -6.718  -1.784   3.814  0.00  0.00    -0.015 A 
ATOM     19  C   UNL     1      -7.503  -0.853   4.515  0.00  0.00    -0.013 A 
ATOM     20  C   UNL     1      -7.122  -0.388   5.785  0.00  0.00    +0.009 A 
ATOM     21  C   UNL     1      -7.906   0.514   6.435  0.00  0.00    +0.001 A 
ATOM     22  C   UNL     1      -9.085   0.986   5.860  0.00  0.00    +0.001 A 
ATOM     23  C   UNL     1      -9.485   0.558   4.631  0.00  0.00    +0.008 A 
ATOM     24  C   UNL     1      -8.701  -0.373   3.929  0.00  0.00    -0.017 A 
ATOM     25  C   UNL     1      -9.083  -0.837   2.659  0.00  0.00    +0.012 A 
ATOM     26  C   UNL     1      -8.302  -1.738   2.006  0.00  0.00    +0.046 A 
ATOM     27  C   UNL     1      -7.116  -2.209   2.579  0.00  0.00    +0.119 A 
BRANCH  27  28
ATOM     28  O   UNL     1      -6.353  -3.106   1.900  0.00  0.00    -0.507 OA
ATOM     29  H   UNL     1      -6.580  -4.029   2.077  0.00  0.00    +0.292 HD
ENDBRANCH  27  28
ENDBRANCH  17  18
ENDBRANCH   1  17
TORSDOF 7
