REMARK  Name = ZINC45353388
REMARK  4 active torsions:
REMARK  status: ('A' for Active; 'I' for Inactive)
REMARK    1  A    between atoms: C_3  and  N_19
REMARK    2  A    between atoms: C_6  and  N_7
REMARK    3  A    between atoms: N_10  and  C_11
REMARK    4  A    between atoms: C_26  and  C_28
REMARK                            x       y       z     vdW  Elec       q    Type
REMARK                         _______ _______ _______ _____ _____    ______ ____
ROOT
ATOM      1  C   UNL     1      -0.181   1.482   0.622  0.00  0.00    +0.025 A 
ATOM      2  C   UNL     1       0.958   2.249   0.763  0.00  0.00    +0.028 A 
ATOM      3  C   UNL     1       2.208   1.678   0.570  0.00  0.00    +0.047 A 
ATOM      4  C   UNL     1       2.313   0.335   0.233  0.00  0.00    +0.028 A 
ATOM      5  C   UNL     1       1.175  -0.432   0.092  0.00  0.00    +0.025 A 
ATOM      6  C   UNL     1      -0.076   0.139   0.286  0.00  0.00    +0.035 A 
ENDROOT
BRANCH   3   7
ATOM      7  N   UNL     1       3.365   2.458   0.713  0.00  0.00    -0.314 N 
ATOM      8  C   UNL     1       3.570   3.676   0.124  0.00  0.00    +0.094 A 
ATOM      9  C   UNL     1       4.778   4.154   0.466  0.00  0.00    +0.048 A 
ATOM     10  C   UNL     1       5.400   3.162   1.347  0.00  0.00    +0.090 A 
ATOM     11  C   UNL     1       4.460   2.115   1.471  0.00  0.00    +0.072 A 
ATOM     12  C   UNL     1       4.773   1.014   2.263  0.00  0.00    +0.030 A 
ATOM     13  C   UNL     1       5.998   0.992   2.903  0.00  0.00    +0.035 A 
ATOM     14  C   UNL     1       6.880   2.063   2.739  0.00  0.00    +0.126 A 
ATOM     15  N   UNL     1       6.565   3.098   1.975  0.00  0.00    -0.241 NA
BRANCH  14  16
ATOM     16  C   UNL     1       8.192   2.037   3.426  0.00  0.00    +0.260 C 
ATOM     17  O   UNL     1       8.493   1.089   4.125  0.00  0.00    -0.269 OA
ATOM     18  N   UNL     1       9.051   3.064   3.276  0.00  0.00    -0.324 N 
ATOM     19  H   UNL     1       8.811   3.820   2.718  0.00  0.00    +0.145 HD
ATOM     20  H   UNL     1       9.911   3.047   3.726  0.00  0.00    +0.145 HD
ENDBRANCH  14  16
ENDBRANCH   3   7
BRANCH   6  21
ATOM     21  N   UNL     1      -1.232  -0.640   0.143  0.00  0.00    -0.269 N 
ATOM     22  C   UNL     1      -2.365  -0.084  -0.330  0.00  0.00    +0.308 C 
ATOM     23  O   UNL     1      -2.360   1.068  -0.720  0.00  0.00    -0.252 OA
ATOM     24  N   UNL     1      -3.503  -0.804  -0.369  0.00  0.00    -0.269 N 
ATOM     25  H   UNL     1      -1.216  -1.579   0.383  0.00  0.00    +0.156 HD
ATOM     26  H   UNL     1      -3.526  -1.696   0.010  0.00  0.00    +0.156 HD
BRANCH  24  27
ATOM     27  C   UNL     1      -4.653  -0.264  -0.959  0.00  0.00    +0.036 A 
ATOM     28  C   UNL     1      -4.540   0.597  -2.043  0.00  0.00    +0.025 A 
ATOM     29  C   UNL     1      -5.675   1.128  -2.623  0.00  0.00    +0.023 A 
ATOM     30  C   UNL     1      -6.924   0.803  -2.125  0.00  0.00    +0.059 A 
ATOM     31  C   UNL     1      -7.040  -0.054  -1.045  0.00  0.00    +0.061 A 
ATOM     32  C   UNL     1      -5.907  -0.594  -0.465  0.00  0.00    +0.044 A 
ATOM     33 CL   UNL     1      -8.610  -0.459  -0.423  0.00  0.00    -0.082 Cl
ATOM     34 CL   UNL     1      -8.349   1.473  -2.857  0.00  0.00    -0.082 Cl
ENDBRANCH  24  27
ENDBRANCH   6  21
TORSDOF 4
