REMARK  Name = ZINC39988216
REMARK  11 active torsions:
REMARK  status: ('A' for Active; 'I' for Inactive)
REMARK    1  A    between atoms: C_1  and  C_2
REMARK    2  A    between atoms: C_2  and  C_4
REMARK    3  A    between atoms: C_2  and  O_29
REMARK    4  A    between atoms: N_6  and  N_7
REMARK    5  A    between atoms: N_15  and  C_18
REMARK    6  A    between atoms: C_18  and  C_19
REMARK    7  A    between atoms: C_19  and  O_20
REMARK    8  A    between atoms: O_20  and  C_21
REMARK    9  A    between atoms: C_26  and  O_27
REMARK   10  A    between atoms: O_27  and  C_28
REMARK   11  A    between atoms: O_29  and  C_30
REMARK                            x       y       z     vdW  Elec       q    Type
REMARK                         _______ _______ _______ _____ _____    ______ ____
ROOT
ATOM      1  N   UNL     1       1.192  -0.298   3.568  0.00  0.00    -0.174 NA
ATOM      2  C   UNL     1       0.734  -0.054   4.771  0.00  0.00    +0.153 C 
ATOM      3  C   UNL     1       1.433  -0.257   6.061  0.00  0.00    +0.028 A 
ATOM      4  C   UNL     1       2.696  -0.732   6.395  0.00  0.00    +0.012 A 
ATOM      5  C   UNL     1       3.071  -0.807   7.722  0.00  0.00    +0.001 A 
ATOM      6  C   UNL     1       2.192  -0.410   8.715  0.00  0.00    +0.002 A 
ATOM      7  C   UNL     1       0.936   0.062   8.393  0.00  0.00    +0.024 A 
ATOM      8  C   UNL     1       0.540   0.145   7.063  0.00  0.00    +0.046 A 
ATOM      9  N   UNL     1      -0.645   0.576   6.477  0.00  0.00    -0.262 N 
ATOM     10  C   UNL     1      -0.591   0.489   5.137  0.00  0.00    +0.271 C 
ATOM     11  O   UNL     1      -1.476   0.799   4.362  0.00  0.00    -0.268 OA
ENDROOT
BRANCH   1  14
ATOM     12  C   UNL     1       0.863  -0.290   1.210  0.00  0.00    +0.273 C 
ATOM     13  O   UNL     1       1.980  -0.740   1.066  0.00  0.00    -0.270 OA
ATOM     14  N   UNL     1       0.391  -0.040   2.447  0.00  0.00    -0.203 N 
ATOM     15  H   UNL     1      -0.502   0.320   2.562  0.00  0.00    +0.177 HD
BRANCH  12  17
ATOM     16  C   UNL     1      -0.257   1.492  -0.101  0.00  0.00    +0.062 C 
ATOM     17  C   UNL     1       0.001  -0.013   0.005  0.00  0.00    +0.257 C 
BRANCH  17  18
ATOM     18  O   UNL     1       0.671  -0.465  -1.174  0.00  0.00    -0.479 OA
BRANCH  18  19
ATOM     19  C   UNL     1      -0.106  -0.774  -2.244  0.00  0.00    +0.129 A 
ATOM     20  C   UNL     1      -1.453  -0.545  -2.205  0.00  0.00    +0.046 A 
ATOM     21  C   UNL     1      -2.263  -0.857  -3.294  0.00  0.00    +0.004 A 
ATOM     22  C   UNL     1      -1.738  -1.399  -4.428  0.00  0.00    +0.009 A 
ATOM     23  C   UNL     1      -0.357  -1.649  -4.507  0.00  0.00    -0.014 A 
ATOM     24  C   UNL     1       0.472  -1.329  -3.404  0.00  0.00    +0.024 A 
ATOM     25  C   UNL     1       1.852  -1.575  -3.485  0.00  0.00    +0.012 A 
ATOM     26  C   UNL     1       2.375  -2.112  -4.621  0.00  0.00    +0.001 A 
ATOM     27  C   UNL     1       1.561  -2.423  -5.708  0.00  0.00    +0.001 A 
ATOM     28  C   UNL     1       0.217  -2.208  -5.662  0.00  0.00    +0.008 A 
ENDBRANCH  18  19
ENDBRANCH  17  18
ENDBRANCH  12  17
ENDBRANCH   1  14
BRANCH   9  29
ATOM     29  C   UNL     1      -1.804   1.068   7.225  0.00  0.00    +0.155 C 
BRANCH  29  30
ATOM     30  C   UNL     1      -1.684   2.582   7.413  0.00  0.00    +0.248 C 
BRANCH  30  31
ATOM     31  O   UNL     1      -1.754   3.227   6.140  0.00  0.00    -0.487 OA
BRANCH  31  32
ATOM     32  C   UNL     1      -1.663   4.584   6.129  0.00  0.00    +0.162 A 
ATOM     33  C   UNL     1      -1.503   5.278   7.318  0.00  0.00    +0.049 A 
ATOM     34  C   UNL     1      -1.410   6.657   7.305  0.00  0.00    +0.004 A 
ATOM     35  C   UNL     1      -1.476   7.347   6.109  0.00  0.00    +0.004 A 
ATOM     36  C   UNL     1      -1.635   6.660   4.920  0.00  0.00    +0.049 A 
ATOM     37  C   UNL     1      -1.723   5.277   4.925  0.00  0.00    +0.161 A 
BRANCH  37  38
ATOM     38  O   UNL     1      -1.874   4.600   3.755  0.00  0.00    -0.491 OA
ATOM     39  C   UNL     1      -1.928   5.378   2.557  0.00  0.00    +0.277 C 
ENDBRANCH  37  38
ENDBRANCH  31  32
ENDBRANCH  30  31
ENDBRANCH  29  30
ENDBRANCH   9  29
TORSDOF 9
