REMARK  Name = ZINC14793011
REMARK  6 active torsions:
REMARK  status: ('A' for Active; 'I' for Inactive)
REMARK    1  A    between atoms: C_1  and  C_2
REMARK    2  A    between atoms: N_4  and  C_5
REMARK    3  A    between atoms: C_8  and  O_27
REMARK    4  A    between atoms: C_9  and  N_11
REMARK    5  A    between atoms: C_12  and  C_14
REMARK    6  A    between atoms: O_27  and  C_28
REMARK                            x       y       z     vdW  Elec       q    Type
REMARK                         _______ _______ _______ _____ _____    ______ ____
ROOT
ATOM      1  N   UNL     1      -4.751   0.181   0.224  0.00  0.00    -0.278 N 
ATOM      2  C   UNL     1      -4.485  -1.136   0.332  0.00  0.00    +0.255 C 
ATOM      3  O   UNL     1      -3.335  -1.531   0.279  0.00  0.00    -0.269 OA
ATOM      4  H   UNL     1      -5.670   0.490   0.198  0.00  0.00    +0.155 HD
ENDROOT
BRANCH   2   5
ATOM      5  C   UNL     1      -5.580  -2.091   0.512  0.00  0.00    +0.075 A 
ATOM      6  C   UNL     1      -5.521  -3.472   0.636  0.00  0.00    +0.025 A 
ATOM      7  C   UNL     1      -6.681  -4.189   0.802  0.00  0.00    -0.032 A 
ATOM      8  C   UNL     1      -7.867  -3.448   0.833  0.00  0.00    +0.023 A 
ATOM      9  S   UNL     1      -7.338  -1.779   0.619  0.00  0.00    -0.083 S 
ATOM     10  C   UNL     1      -9.188  -4.045   0.997  0.00  0.00    -0.008 A 
ATOM     11  C   UNL     1     -10.370  -3.358   0.756  0.00  0.00    +0.009 A 
ATOM     12  C   UNL     1     -11.582  -4.003   0.909  0.00  0.00    +0.001 A 
ATOM     13  C   UNL     1     -11.613  -5.328   1.310  0.00  0.00    +0.000 A 
ATOM     14  C   UNL     1     -10.440  -6.009   1.580  0.00  0.00    +0.004 A 
ATOM     15  C   UNL     1      -9.223  -5.375   1.450  0.00  0.00    -0.039 A 
ATOM     16  C   UNL     1      -7.950  -6.075   1.832  0.00  0.00    +0.040 C 
ATOM     17  C   UNL     1      -6.771  -5.703   0.940  0.00  0.00    +0.041 C 
ENDBRANCH   2   5
BRANCH   1  22
ATOM     18  C   UNL     1      -1.470   1.667  -0.544  0.00  0.00    +0.035 A 
ATOM     19  C   UNL     1      -1.619   2.933   0.006  0.00  0.00    +0.027 A 
ATOM     20  C   UNL     1      -2.807   3.288   0.619  0.00  0.00    +0.049 A 
ATOM     21  C   UNL     1      -3.848   2.377   0.694  0.00  0.00    +0.141 A 
ATOM     22  C   UNL     1      -3.700   1.104   0.148  0.00  0.00    +0.078 A 
ATOM     23  C   UNL     1      -2.510   0.751  -0.471  0.00  0.00    +0.050 A 
BRANCH  18  27
ATOM     24  C   UNL     1       1.786   1.887  -2.423  0.00  0.00    +0.109 C 
ATOM     25  C   UNL     1       0.440   2.240  -1.845  0.00  0.00    +0.214 C 
ATOM     26  O   UNL     1      -0.008   3.358  -1.989  0.00  0.00    -0.276 OA
ATOM     27  N   UNL     1      -0.267   1.313  -1.168  0.00  0.00    -0.286 N 
ATOM     28  H   UNL     1       0.056   0.399  -1.116  0.00  0.00    +0.155 HD
ENDBRANCH  18  27
BRANCH  21  29
ATOM     29  O   UNL     1      -5.014   2.725   1.302  0.00  0.00    -0.493 OA
ATOM     30  C   UNL     1      -5.096   4.046   1.840  0.00  0.00    +0.277 C 
ENDBRANCH  21  29
ENDBRANCH   1  22
TORSDOF 4
