REMARK  Name = ZINC16049807
REMARK  4 active torsions:
REMARK  status: ('A' for Active; 'I' for Inactive)
REMARK    1  A    between atoms: N_9  and  C_12
REMARK    2  A    between atoms: C_12  and  O_13
REMARK    3  A    between atoms: O_13  and  C_14
REMARK    4  A    between atoms: C_14  and  C_16
REMARK                            x       y       z     vdW  Elec       q    Type
REMARK                         _______ _______ _______ _____ _____    ______ ____
ROOT
ATOM      1  C   UNL     1      -0.013   1.086   0.008  0.00  0.00    +0.353 C 
ENDROOT
BRANCH   1  10
ATOM      2  C   UNL     1      -2.438   3.555  -4.996  0.00  0.00    +0.001 A 
ATOM      3  C   UNL     1      -3.432   2.618  -4.785  0.00  0.00    +0.001 A 
ATOM      4  C   UNL     1      -3.360   1.747  -3.710  0.00  0.00    +0.014 A 
ATOM      5  C   UNL     1      -2.284   1.816  -2.841  0.00  0.00    +0.049 A 
ATOM      6  C   UNL     1      -1.269   2.771  -3.055  0.00  0.00    +0.049 A 
ATOM      7  C   UNL     1      -1.355   3.636  -4.135  0.00  0.00    +0.014 A 
ATOM      8  C   UNL     1      -0.291   2.575  -1.965  0.00  0.00    +0.256 C 
ATOM      9  O   UNL     1       0.730   3.212  -1.805  0.00  0.00    -0.269 OA
ATOM     10  N   UNL     1      -0.721   1.571  -1.179  0.00  0.00    -0.199 N 
ATOM     11  C   UNL     1      -1.885   1.068  -1.629  0.00  0.00    +0.256 C 
ATOM     12  O   UNL     1      -2.505   0.154  -1.124  0.00  0.00    -0.269 OA
ENDBRANCH   1  10
BRANCH   1  13
ATOM     13  O   UNL     1      -0.692   1.554   1.203  0.00  0.00    -0.441 OA
BRANCH  13  14
ATOM     14  C   UNL     1      -1.790   0.874   1.589  0.00  0.00    +0.341 C 
ATOM     15  O   UNL     1      -2.169  -0.085   0.944  0.00  0.00    -0.245 OA
BRANCH  14  16
ATOM     16  C   UNL     1      -2.529   1.291   2.789  0.00  0.00    +0.069 A 
ATOM     17  C   UNL     1      -2.120   2.375   3.536  0.00  0.00    +0.060 A 
ATOM     18  S   UNL     1      -3.296   2.446   4.808  0.00  0.00    -0.100 S 
ATOM     19  C   UNL     1      -4.299   1.063   4.344  0.00  0.00    -0.006 A 
ATOM     20  C   UNL     1      -3.717   0.579   3.223  0.00  0.00    -0.023 A 
ATOM     21  C   UNL     1      -4.287  -0.640   2.508  0.00  0.00    +0.037 C 
ATOM     22  C   UNL     1      -5.216  -1.386   3.467  0.00  0.00    +0.005 C 
ATOM     23  C   UNL     1      -6.243  -0.416   4.058  0.00  0.00    +0.005 C 
ATOM     24  C   UNL     1      -5.525   0.538   5.024  0.00  0.00    +0.043 C 
ENDBRANCH  14  16
ENDBRANCH  13  14
ENDBRANCH   1  13
TORSDOF 4
