REMARK  Name = ZINC06091168
REMARK  6 active torsions:
REMARK  status: ('A' for Active; 'I' for Inactive)
REMARK    1  A    between atoms: C_3  and  O_9
REMARK    2  A    between atoms: O_9  and  C_10
REMARK    3  A    between atoms: C_12  and  O_25
REMARK    4  A    between atoms: C_14  and  O_24
REMARK    5  A    between atoms: C_16  and  O_23
REMARK    6  A    between atoms: C_18  and  C_21
REMARK                            x       y       z     vdW  Elec       q    Type
REMARK                         _______ _______ _______ _____ _____    ______ ____
ROOT
ATOM      1  C   UNL     1      -2.029   1.086   1.307  0.00  0.00    +0.341 C 
ATOM      2  C   UNL     1      -2.851   1.593   0.119  0.00  0.00    +0.214 C 
ATOM      3  C   UNL     1      -2.206   1.108  -1.183  0.00  0.00    +0.180 C 
ATOM      4  C   UNL     1      -0.754   1.593  -1.232  0.00  0.00    +0.186 C 
ATOM      5  C   UNL     1      -0.013   1.086   0.008  0.00  0.00    +0.266 C 
ATOM      6  O   UNL     1      -0.682   1.547   1.183  0.00  0.00    -0.322 OA
ENDROOT
BRANCH   5   7
ATOM      7  C   UNL     1       1.401   1.608  -0.003  0.00  0.00    +0.387 C 
ATOM      8  O   UNL     1       1.768   2.375   0.855  0.00  0.00    -0.243 OA
ATOM      9  O   UNL     1       2.252   1.220  -0.965  0.00  0.00    -0.243 OA
ENDBRANCH   5   7
BRANCH   4  10
ATOM     10  O   UNL     1      -0.120   1.086  -2.408  0.00  0.00    -0.386 OA
ATOM     11  H   UNL     1       0.806   1.350  -2.501  0.00  0.00    +0.210 HD
ENDBRANCH   4  10
BRANCH   3  12
ATOM     12  O   UNL     1      -2.925   1.638  -2.299  0.00  0.00    -0.386 OA
ATOM     13  H   UNL     1      -3.855   1.377  -2.327  0.00  0.00    +0.210 HD
ENDBRANCH   3  12
BRANCH   2  14
ATOM     14  O   UNL     1      -4.184   1.086   0.209  0.00  0.00    -0.383 OA
ATOM     15  H   UNL     1      -4.652   1.350   1.013  0.00  0.00    +0.210 HD
ENDBRANCH   2  14
BRANCH   1  16
ATOM     16  O   UNL     1      -2.593   1.581   2.523  0.00  0.00    -0.443 OA
BRANCH  16  19
ATOM     17  C   UNL     1      -1.977   1.126   6.074  0.00  0.00    +0.048 A 
ATOM     18  C   UNL     1      -2.544   1.589   4.897  0.00  0.00    +0.104 A 
ATOM     19  C   UNL     1      -2.042   1.139   3.682  0.00  0.00    +0.237 A 
ATOM     20  N   UNL     1      -1.030   0.288   3.643  0.00  0.00    -0.198 NA
ATOM     21  C   UNL     1      -0.466  -0.167   4.747  0.00  0.00    +0.151 A 
ATOM     22  C   UNL     1      -0.917   0.234   5.991  0.00  0.00    +0.079 A 
ATOM     23 CL   UNL     1      -0.166  -0.372   7.434  0.00  0.00    -0.080 Cl
ATOM     24 CL   UNL     1       0.860  -1.283   4.634  0.00  0.00    -0.060 Cl
ATOM     25 CL   UNL     1      -3.868   2.711   4.940  0.00  0.00    -0.078 Cl
ENDBRANCH  16  19
ENDBRANCH   1  16
TORSDOF 6
