REMARK  Name = ZINC01673415
REMARK  7 active torsions:
REMARK  status: ('A' for Active; 'I' for Inactive)
REMARK    1  A    between atoms: C_4  and  C_7
REMARK    2  A    between atoms: N_13  and  C_14
REMARK    3  A    between atoms: C_14  and  C_16
REMARK    4  A    between atoms: C_14  and  O_20
REMARK    5  A    between atoms: N_21  and  C_22
REMARK    6  A    between atoms: C_22  and  C_24
REMARK    7  A    between atoms: C_22  and  O_28
REMARK                            x       y       z     vdW  Elec       q    Type
REMARK                         _______ _______ _______ _____ _____    ______ ____
ROOT
ATOM      1  C   UNL     1       0.002  -0.004   0.002  0.00  0.00    +0.167 A 
ATOM      2  N   UNL     1      -0.016   1.326   0.009  0.00  0.00    -0.195 NA
ATOM      3  C   UNL     1       1.126   2.006   0.002  0.00  0.00    +0.222 A 
ATOM      4  N   UNL     1       2.286   1.357  -0.013  0.00  0.00    -0.181 NA
ATOM      5  C   UNL     1       2.305   0.028  -0.020  0.00  0.00    +0.222 A 
ATOM      6  N   UNL     1       1.163  -0.653  -0.013  0.00  0.00    -0.195 NA
ATOM      7  N   UNL     1       3.510  -0.645  -0.035  0.00  0.00    -0.285 N 
ATOM      8  N   UNL     1       1.108   3.386   0.010  0.00  0.00    -0.285 N 
ATOM      9  H   UNL     1       3.523  -1.615  -0.040  0.00  0.00    +0.151 HD
ATOM     10  H   UNL     1       0.261   3.859   0.020  0.00  0.00    +0.151 HD
ENDROOT
BRANCH   1  14
ATOM     11  C   UNL     1      -3.650  -2.180   0.028  0.00  0.00    +0.000 A 
ATOM     12  C   UNL     1      -2.444  -2.858   0.011  0.00  0.00    +0.001 A 
ATOM     13  C   UNL     1      -1.256  -2.157   0.003  0.00  0.00    +0.011 A 
ATOM     14  C   UNL     1      -1.272  -0.763   0.011  0.00  0.00    +0.019 A 
ATOM     15  C   UNL     1      -2.490  -0.086   0.032  0.00  0.00    +0.011 A 
ATOM     16  C   UNL     1      -3.672  -0.797   0.035  0.00  0.00    +0.001 A 
ENDBRANCH   1  14
BRANCH   7  17
ATOM     17  C   UNL     1       4.768   0.105  -0.042  0.00  0.00    +0.254 C 
BRANCH  17  18
ATOM     18  C   UNL     1       5.819  -0.653   0.771  0.00  0.00    +0.232 C 
ATOM     19 CL   UNL     1       7.367   0.270   0.761  0.00  0.00    -0.079 Cl
ATOM     20 CL   UNL     1       5.242  -0.842   2.469  0.00  0.00    -0.079 Cl
ATOM     21 CL   UNL     1       6.085  -2.280   0.042  0.00  0.00    -0.079 Cl
ENDBRANCH  17  18
BRANCH  17  22
ATOM     22  O   UNL     1       5.224   0.255  -1.388  0.00  0.00    -0.370 OA
ATOM     23  H   UNL     1       5.389  -0.582  -1.843  0.00  0.00    +0.212 HD
ENDBRANCH  17  22
ENDBRANCH   7  17
BRANCH   8  24
ATOM     24  C   UNL     1       2.366   4.135   0.002  0.00  0.00    +0.254 C 
BRANCH  24  25
ATOM     25  C   UNL     1       2.192   5.416  -0.817  0.00  0.00    +0.232 C 
ATOM     26 CL   UNL     1       3.741   6.339  -0.827  0.00  0.00    -0.079 Cl
ATOM     27 CL   UNL     1       1.735   4.990  -2.509  0.00  0.00    -0.079 Cl
ATOM     28 CL   UNL     1       0.894   6.428  -0.081  0.00  0.00    -0.079 Cl
ENDBRANCH  24  25
BRANCH  24  29
ATOM     29  O   UNL     1       2.728   4.473   1.342  0.00  0.00    -0.370 OA
ATOM     30  H   UNL     1       2.075   5.018   1.801  0.00  0.00    +0.212 HD
ENDBRANCH  24  29
ENDBRANCH   8  24
TORSDOF 7
