REMARK  Name = ZINC40914536
REMARK  12 active torsions:
REMARK  status: ('A' for Active; 'I' for Inactive)
REMARK    1  A    between atoms: C_1  and  C_2
REMARK    2  A    between atoms: C_2  and  O_3
REMARK    3  A    between atoms: O_3  and  C_4
REMARK    4  A    between atoms: C_6  and  C_20
REMARK    5  A    between atoms: C_9  and  O_10
REMARK    6  A    between atoms: O_10  and  C_11
REMARK    7  A    between atoms: C_11  and  C_12
REMARK    8  A    between atoms: C_22  and  C_31
REMARK    9  A    between atoms: C_23  and  C_30
REMARK   10  A    between atoms: C_31  and  O_33
REMARK   11  A    between atoms: O_33  and  C_34
REMARK   12  A    between atoms: C_34  and  C_35
REMARK                            x       y       z     vdW  Elec       q    Type
REMARK                         _______ _______ _______ _____ _____    ______ ____
ROOT
ATOM      1  C   UNL     1       1.247  -1.931  -1.362  0.00  0.00    +0.162 A 
ATOM      2  C   UNL     1       0.541  -2.719  -0.467  0.00  0.00    +0.055 A 
ATOM      3  C   UNL     1       0.590  -4.097  -0.572  0.00  0.00    -0.015 A 
ATOM      4  C   UNL     1       1.343  -4.691  -1.567  0.00  0.00    +0.010 A 
ATOM      5  C   UNL     1       2.050  -3.910  -2.463  0.00  0.00    +0.050 A 
ATOM      6  C   UNL     1       2.001  -2.529  -2.367  0.00  0.00    +0.162 A 
ENDROOT
BRANCH   3   7
ATOM      7  C   UNL     1      -0.179  -4.952   0.402  0.00  0.00    +0.179 C 
ATOM      8  C   UNL     1      -1.171  -5.800  -0.350  0.00  0.00    +0.082 C 
ATOM      9  C   UNL     1      -1.025  -7.123  -0.518  0.00  0.00    +0.020 C 
ATOM     10  N   UNL     1       0.045  -7.812  -0.005  0.00  0.00    -0.287 N 
ATOM     11  C   UNL     1       0.844  -7.154   0.921  0.00  0.00    +0.218 A 
ATOM     12  N   UNL     1       0.748  -5.817   1.127  0.00  0.00    -0.221 N 
ATOM     13  N   UNL     1       1.677  -5.500   2.116  0.00  0.00    -0.156 NA
ATOM     14  C   UNL     1       2.273  -6.619   2.447  0.00  0.00    +0.247 A 
ATOM     15  N   UNL     1       1.766  -7.619   1.718  0.00  0.00    -0.201 NA
ATOM     16  C   UNL     1      -2.071  -7.878  -1.298  0.00  0.00    +0.061 C 
ATOM     17  H   UNL     1       0.236  -8.723  -0.278  0.00  0.00    +0.155 HD
BRANCH   8  18
ATOM     18  C   UNL     1      -2.309  -5.172  -0.903  0.00  0.00    +0.339 C 
ATOM     19  O   UNL     1      -3.220  -4.817  -0.178  0.00  0.00    -0.245 OA
BRANCH  18  20
ATOM     20  O   UNL     1      -2.387  -4.967  -2.235  0.00  0.00    -0.462 OA
BRANCH  20  21
ATOM     21  C   UNL     1      -3.567  -4.327  -2.725  0.00  0.00    +0.229 C 
ATOM     22  C   UNL     1      -3.474  -4.181  -4.245  0.00  0.00    +0.048 C 
ENDBRANCH  20  21
ENDBRANCH  18  20
ENDBRANCH   8  18
ENDBRANCH   3   7
BRANCH   1  23
ATOM     23  O   UNL     1       1.199  -0.575  -1.260  0.00  0.00    -0.489 OA
BRANCH  23  25
ATOM     24  C   UNL     1       0.474   1.497  -0.249  0.00  0.00    +0.048 C 
ATOM     25  C   UNL     1       0.406  -0.031  -0.204  0.00  0.00    +0.226 C 
ENDBRANCH  23  25
ENDBRANCH   1  23
BRANCH   6  26
ATOM     26  O   UNL     1       2.691  -1.759  -3.251  0.00  0.00    -0.484 OA
BRANCH  26  27
ATOM     27  C   UNL     1       3.443  -2.442  -4.256  0.00  0.00    +0.264 C 
BRANCH  27  28
ATOM     28  C   UNL     1       4.136  -1.433  -5.136  0.00  0.00    -0.009 A 
ATOM     29  C   UNL     1       3.499  -0.946  -6.263  0.00  0.00    +0.008 A 
ATOM     30  C   UNL     1       4.133  -0.022  -7.071  0.00  0.00    +0.022 A 
ATOM     31  C   UNL     1       5.406   0.417  -6.753  0.00  0.00    +0.059 A 
ATOM     32  C   UNL     1       6.044  -0.071  -5.624  0.00  0.00    +0.060 A 
ATOM     33  C   UNL     1       5.405  -0.992  -4.814  0.00  0.00    +0.028 A 
ATOM     34 CL   UNL     1       7.641   0.478  -5.224  0.00  0.00    -0.082 Cl
ATOM     35 CL   UNL     1       6.204   1.577  -7.768  0.00  0.00    -0.082 Cl
ENDBRANCH  27  28
ENDBRANCH  26  27
ENDBRANCH   6  26
TORSDOF 9
