REMARK  Name = ZINC59830603
REMARK  9 active torsions:
REMARK  status: ('A' for Active; 'I' for Inactive)
REMARK    1  A    between atoms: C_1  and  C_2
REMARK    2  A    between atoms: C_2  and  C_24
REMARK    3  A    between atoms: N_3  and  N_4
REMARK    4  A    between atoms: C_7  and  S_10
REMARK    5  A    between atoms: S_10  and  C_11
REMARK    6  A    between atoms: C_11  and  C_12
REMARK    7  A    between atoms: C_12  and  C_13
REMARK    8  A    between atoms: N_15  and  C_16
REMARK    9  A    between atoms: C_29  and  O_30
REMARK                            x       y       z     vdW  Elec       q    Type
REMARK                         _______ _______ _______ _____ _____    ______ ____
ROOT
ATOM      1  N   UNL     1       6.313  -5.069   2.505  0.00  0.00    -0.205 N 
ATOM      2  C   UNL     1       5.580  -5.130   3.675  0.00  0.00    +0.232 A 
ATOM      3  N   UNL     1       4.346  -5.576   3.794  0.00  0.00    -0.186 NA
ATOM      4  C   UNL     1       3.957  -5.488   5.070  0.00  0.00    +0.210 A 
ATOM      5  N   UNL     1       4.937  -4.984   5.781  0.00  0.00    -0.144 NA
ATOM      6  N   UNL     1       6.004  -4.748   4.899  0.00  0.00    -0.245 N 
ATOM      7  H   UNL     1       7.221  -4.727   2.518  0.00  0.00    +0.177 HD
ATOM      8  H   UNL     1       6.873  -4.381   5.124  0.00  0.00    +0.192 HD
ENDROOT
BRANCH   1  11
ATOM      9  C   UNL     1       7.844  -4.912   0.221  0.00  0.00    +0.068 C 
ATOM     10  C   UNL     1       6.434  -5.444   0.200  0.00  0.00    +0.067 C 
ATOM     11  N   UNL     1       5.745  -5.501   1.299  0.00  0.00    -0.184 NA
BRANCH  10  12
ATOM     12  C   UNL     1       5.837  -5.899  -1.068  0.00  0.00    +0.039 A 
ATOM     13  C   UNL     1       6.576  -5.845  -2.252  0.00  0.00    +0.013 A 
ATOM     14  C   UNL     1       6.012  -6.272  -3.435  0.00  0.00    +0.001 A 
ATOM     15  C   UNL     1       4.714  -6.754  -3.455  0.00  0.00    +0.004 A 
ATOM     16  C   UNL     1       3.972  -6.813  -2.291  0.00  0.00    +0.046 A 
ATOM     17  C   UNL     1       4.526  -6.394  -1.092  0.00  0.00    +0.126 A 
BRANCH  17  18
ATOM     18  O   UNL     1       3.800  -6.457   0.054  0.00  0.00    -0.506 OA
ATOM     19  H   UNL     1       3.284  -5.660   0.237  0.00  0.00    +0.292 HD
ENDBRANCH  17  18
ENDBRANCH  10  12
ENDBRANCH   1  11
BRANCH   4  20
ATOM     20  S   UNL     1       2.382  -5.970   5.695  0.00  0.00    -0.084 S 
BRANCH  20  21
ATOM     21  C   UNL     1       2.482  -5.603   7.469  0.00  0.00    +0.086 C 
BRANCH  21  22
ATOM     22  C   UNL     1       1.162  -5.980   8.143  0.00  0.00    +0.107 C 
BRANCH  22  23
ATOM     23  C   UNL     1       1.245  -5.675   9.617  0.00  0.00    +0.218 C 
ATOM     24  O   UNL     1       2.261  -5.204  10.082  0.00  0.00    -0.275 OA
ATOM     25  N   UNL     1       0.191  -5.927  10.418  0.00  0.00    -0.283 N 
ATOM     26  H   UNL     1      -0.645  -6.236  10.036  0.00  0.00    +0.155 HD
BRANCH  25  27
ATOM     27  C   UNL     1       0.304  -5.744  11.802  0.00  0.00    +0.070 A 
ATOM     28  C   UNL     1      -0.028  -4.521  12.371  0.00  0.00    +0.064 A 
ATOM     29  C   UNL     1       0.085  -4.343  13.737  0.00  0.00    +0.022 A 
ATOM     30  C   UNL     1       0.527  -5.381  14.537  0.00  0.00    +0.003 A 
ATOM     31  C   UNL     1       0.858  -6.600  13.974  0.00  0.00    +0.022 A 
ATOM     32  C   UNL     1       0.742  -6.786  12.609  0.00  0.00    +0.064 A 
ATOM     33 CL   UNL     1       1.150  -8.319  11.904  0.00  0.00    -0.082 Cl
ATOM     34 CL   UNL     1      -0.582  -3.217  11.368  0.00  0.00    -0.082 Cl
ENDBRANCH  25  27
ENDBRANCH  22  23
ENDBRANCH  21  22
ENDBRANCH  20  21
ENDBRANCH   4  20
TORSDOF 8
