REMARK  Name = ZINC05018297
REMARK  10 active torsions:
REMARK  status: ('A' for Active; 'I' for Inactive)
REMARK    1  A    between atoms: C_1  and  C_2
REMARK    2  A    between atoms: C_2  and  O_3
REMARK    3  A    between atoms: O_3  and  C_4
REMARK    4  A    between atoms: C_4  and  C_6
REMARK    5  A    between atoms: C_7  and  C_22
REMARK    6  A    between atoms: C_12  and  C_14
REMARK    7  A    between atoms: C_17  and  C_21
REMARK    8  A    between atoms: C_19  and  C_20
REMARK    9  A    between atoms: C_22  and  S_23
REMARK   10  A    between atoms: S_23  and  C_24
REMARK                            x       y       z     vdW  Elec       q    Type
REMARK                         _______ _______ _______ _____ _____    ______ ____
ROOT
ATOM      1  C   UNL     1       1.622   4.256   1.079  0.00  0.00    +0.079 C 
ATOM      2  C   UNL     1       0.736   4.979   1.796  0.00  0.00    +0.034 C 
ATOM      3  N   UNL     1      -0.534   5.189   1.340  0.00  0.00    -0.272 N 
ATOM      4  C   UNL     1      -0.995   4.710   0.178  0.00  0.00    +0.304 C 
ATOM      5  O   UNL     1      -2.142   4.950  -0.143  0.00  0.00    -0.252 OA
ATOM      6  N   UNL     1      -0.228   3.970  -0.647  0.00  0.00    -0.288 N 
ATOM      7  C   UNL     1       1.161   3.686  -0.247  0.00  0.00    +0.144 C 
ATOM      8  H   UNL     1      -1.136   5.715   1.889  0.00  0.00    +0.156 HD
ATOM      9  H   UNL     1      -0.582   3.633  -1.485  0.00  0.00    +0.151 HD
ENDROOT
BRANCH   7  10
ATOM     10  C   UNL     1       1.333   2.190  -0.195  0.00  0.00    -0.020 A 
ATOM     11  C   UNL     1       1.332   1.536   1.023  0.00  0.00    +0.006 A 
ATOM     12  C   UNL     1       1.490   0.164   1.071  0.00  0.00    +0.004 A 
ATOM     13  C   UNL     1       1.648  -0.555  -0.100  0.00  0.00    -0.050 A 
ATOM     14  C   UNL     1       1.647   0.099  -1.318  0.00  0.00    +0.007 A 
ATOM     15  C   UNL     1       1.489   1.471  -1.365  0.00  0.00    -0.045 A 
ATOM     16  C   UNL     1       1.488   2.184  -2.693  0.00  0.00    +0.044 C 
ATOM     17  C   UNL     1       1.820  -2.051  -0.048  0.00  0.00    +0.044 C 
ENDBRANCH   7  10
BRANCH   1  18
ATOM     18  C   UNL     1       2.938   4.038   1.550  0.00  0.00    +0.339 C 
ATOM     19  O   UNL     1       3.870   4.643   1.055  0.00  0.00    -0.245 OA
BRANCH  18  20
ATOM     20  O   UNL     1       3.160   3.159   2.550  0.00  0.00    -0.462 OA
BRANCH  20  22
ATOM     21  C   UNL     1       4.577   1.945   4.085  0.00  0.00    +0.048 C 
ATOM     22  C   UNL     1       4.495   3.069   3.051  0.00  0.00    +0.229 C 
ENDBRANCH  20  22
ENDBRANCH  18  20
ENDBRANCH   1  18
BRANCH   2  23
ATOM     23  C   UNL     1       1.155   5.563   3.120  0.00  0.00    +0.127 C 
BRANCH  23  24
ATOM     24  S   UNL     1       1.435   7.346   2.933  0.00  0.00    -0.091 S 
BRANCH  24  25
ATOM     25  C   UNL     1       1.911   7.874   4.545  0.00  0.00    +0.160 A 
ATOM     26  N   UNL     1       2.038   7.168   5.653  0.00  0.00    -0.133 NA
ATOM     27  N   UNL     1       2.431   7.787   6.817  0.00  0.00    -0.125 NA
ATOM     28  C   UNL     1       2.668   9.084   6.824  0.00  0.00    +0.180 A 
ATOM     29  S   UNL     1       2.344   9.509   5.119  0.00  0.00    -0.025 S 
ATOM     30  N   UNL     1       3.065   9.902   7.875  0.00  0.00    -0.336 N 
ATOM     31  H   UNL     1       3.202  10.850   7.727  0.00  0.00    +0.144 HD
ATOM     32  H   UNL     1       3.204   9.524   8.758  0.00  0.00    +0.144 HD
ENDBRANCH  24  25
ENDBRANCH  23  24
ENDBRANCH   2  23
TORSDOF 7
