REMARK  Name = ZINC62825425
REMARK  8 active torsions:
REMARK  status: ('A' for Active; 'I' for Inactive)
REMARK    1  A    between atoms: C_1  and  C_2
REMARK    2  A    between atoms: C_2  and  C_3
REMARK    3  A    between atoms: C_2  and  C_4
REMARK    4  A    between atoms: C_2  and  C_5
REMARK    5  A    between atoms: C_5  and  C_7
REMARK    6  A    between atoms: C_5  and  N_21
REMARK    7  A    between atoms: N_9  and  C_10
REMARK    8  A    between atoms: C_11  and  C_18
REMARK                            x       y       z     vdW  Elec       q    Type
REMARK                         _______ _______ _______ _____ _____    ______ ____
ROOT
ATOM      1  C   UNL     1       2.113   0.626   0.045  0.00  0.00    +0.203 C 
ATOM      2  O   UNL     1       3.001   0.350   0.825  0.00  0.00    -0.277 OA
ATOM      3  N   UNL     1       2.386   1.352  -1.057  0.00  0.00    -0.285 N 
ATOM      4  H   UNL     1       1.685   1.537  -1.701  0.00  0.00    +0.155 HD
ENDROOT
BRANCH   3   5
ATOM      5  C   UNL     1       3.673   1.836  -1.271  0.00  0.00    +0.062 A 
ATOM      6  C   UNL     1       3.877   3.193  -1.567  0.00  0.00    +0.086 A 
ATOM      7  C   UNL     1       5.176   3.667  -1.779  0.00  0.00    +0.032 A 
ATOM      8  C   UNL     1       6.245   2.801  -1.696  0.00  0.00    +0.020 A 
ATOM      9  C   UNL     1       6.040   1.461  -1.404  0.00  0.00    +0.032 A 
ATOM     10  C   UNL     1       4.764   0.980  -1.187  0.00  0.00    +0.041 A 
ATOM     11 BR   UNL     1       4.500  -0.849  -0.781  0.00  0.00    -0.048 Br
ATOM     12 BR   UNL     1       8.000   3.443  -1.984  0.00  0.00    -0.050 Br
BRANCH   6  13
ATOM     13  C   UNL     1       2.731   4.112  -1.654  0.00  0.00    +0.388 C 
ATOM     14  O   UNL     1       2.918   5.318  -1.740  0.00  0.00    -0.241 OA
ATOM     15  O   UNL     1       1.590   3.670  -1.640  0.00  0.00    -0.241 OA
ENDBRANCH   6  13
ENDBRANCH   3   5
BRANCH   1  16
ATOM     16  C   UNL     1       0.705   0.157   0.310  0.00  0.00    +0.019 C 
BRANCH  16  18
ATOM     17  C   UNL     1      -0.139   2.477  -0.071  0.00  0.00    +0.009 C 
ATOM     18  C   UNL     1      -0.110   1.304   0.910  0.00  0.00    -0.042 C 
ATOM     19  C   UNL     1       0.533   1.754   2.224  0.00  0.00    +0.009 C 
ATOM     20  C   UNL     1      -1.539   0.828   1.179  0.00  0.00    +0.009 C 
ENDBRANCH  16  18
BRANCH  16  21
ATOM     21  N   UNL     1       0.733  -0.970   1.252  0.00  0.00    +0.386 N 
ATOM     22  H   UNL     1       1.271  -1.726   0.856  0.00  0.00    -0.089 HD
ATOM     23  H   UNL     1       1.157  -0.673   2.119  0.00  0.00    -0.089 HD
ATOM     24  H   UNL     1      -0.209  -1.284   1.429  0.00  0.00    -0.089 HD
ENDBRANCH  16  21
ENDBRANCH   1  16
TORSDOF 5
