REMARK  Name = ZINC34988912
REMARK  8 active torsions:
REMARK  status: ('A' for Active; 'I' for Inactive)
REMARK    1  A    between atoms: C_4  and  C_7
REMARK    2  A    between atoms: C_7  and  C_9
REMARK    3  A    between atoms: C_14  and  N_15
REMARK    4  A    between atoms: N_15  and  C_16
REMARK    5  A    between atoms: C_16  and  C_17
REMARK    6  A    between atoms: N_19  and  C_20
REMARK    7  A    between atoms: C_23  and  S_26
REMARK    8  A    between atoms: S_26  and  N_29
REMARK                            x       y       z     vdW  Elec       q    Type
REMARK                         _______ _______ _______ _____ _____    ______ ____
ROOT
ATOM      1  N   UNL     1       6.238  -1.960  -0.005  0.00  0.00    -0.335 N 
ATOM      2  H   UNL     1       6.157  -0.998   0.085  0.00  0.00    +0.147 HD
ENDROOT
BRANCH   1   8
ATOM      3  C   UNL     1       3.826  -2.153  -0.096  0.00  0.00    +0.044 A 
ATOM      4  C   UNL     1       2.686  -2.960  -0.160  0.00  0.00    +0.028 A 
ATOM      5  C   UNL     1       2.816  -4.332  -0.185  0.00  0.00    +0.019 A 
ATOM      6  C   UNL     1       4.073  -4.918  -0.146  0.00  0.00    +0.017 A 
ATOM      7  C   UNL     1       5.207  -4.135  -0.083  0.00  0.00    +0.025 A 
ATOM      8  C   UNL     1       5.097  -2.750  -0.063  0.00  0.00    +0.039 A 
ATOM      9 BR   UNL     1       1.273  -5.421  -0.271  0.00  0.00    -0.050 Br
BRANCH   3  10
ATOM     10  C   UNL     1       3.695  -0.686  -0.070  0.00  0.00    +0.195 C 
ATOM     11  O   UNL     1       3.421  -0.082  -1.089  0.00  0.00    -0.287 OA
BRANCH  10  15
ATOM     12  C   UNL     1       4.275   1.433   3.566  0.00  0.00    +0.000 A 
ATOM     13  C   UNL     1       4.078   2.130   2.386  0.00  0.00    +0.001 A 
ATOM     14  C   UNL     1       3.889   1.448   1.202  0.00  0.00    +0.012 A 
ATOM     15  C   UNL     1       3.897   0.051   1.195  0.00  0.00    +0.022 A 
ATOM     16  C   UNL     1       4.097  -0.645   2.389  0.00  0.00    +0.012 A 
ATOM     17  C   UNL     1       4.284   0.049   3.566  0.00  0.00    +0.001 A 
ENDBRANCH  10  15
ENDBRANCH   3  10
ENDBRANCH   1   8
BRANCH   1  18
ATOM     18  C   UNL     1       7.563  -2.580  -0.081  0.00  0.00    +0.198 C 
BRANCH  18  19
ATOM     19  C   UNL     1       8.623  -1.513   0.004  0.00  0.00    +0.234 C 
ATOM     20  O   UNL     1       8.303  -0.348   0.117  0.00  0.00    -0.274 OA
ATOM     21  N   UNL     1       9.927  -1.852  -0.045  0.00  0.00    -0.284 N 
ATOM     22  H   UNL     1      10.184  -2.787  -0.066  0.00  0.00    +0.155 HD
BRANCH  21  23
ATOM     23  C   UNL     1      10.908  -0.855  -0.066  0.00  0.00    +0.034 A 
ATOM     24  C   UNL     1      12.067  -1.036  -0.809  0.00  0.00    +0.025 A 
ATOM     25  C   UNL     1      13.035  -0.050  -0.828  0.00  0.00    +0.030 A 
ATOM     26  C   UNL     1      12.850   1.116  -0.107  0.00  0.00    +0.105 A 
ATOM     27  C   UNL     1      11.697   1.298   0.634  0.00  0.00    +0.030 A 
ATOM     28  C   UNL     1      10.723   0.319   0.652  0.00  0.00    +0.025 A 
BRANCH  26  29
ATOM     29  S   UNL     1      14.086   2.371  -0.134  0.00  0.00    +0.056 S 
ATOM     30  O   UNL     1      13.920   3.130   1.056  0.00  0.00    -0.153 OA
ATOM     31  O   UNL     1      15.310   1.728  -0.463  0.00  0.00    -0.153 OA
BRANCH  29  32
ATOM     32  N   UNL     1      13.730   3.383  -1.395  0.00  0.00    -0.204 NA
ATOM     33  H   UNL     1      13.974   4.321  -1.348  0.00  0.00    +0.144 HD
ATOM     34  H   UNL     1      13.277   3.038  -2.180  0.00  0.00    +0.144 HD
ENDBRANCH  29  32
ENDBRANCH  26  29
ENDBRANCH  21  23
ENDBRANCH  18  19
ENDBRANCH   1  18
TORSDOF 8
