REMARK  Name = ZINC66093782
REMARK  10 active torsions:
REMARK  status: ('A' for Active; 'I' for Inactive)
REMARK    1  A    between atoms: C_4  and  C_7
REMARK    2  A    between atoms: C_7  and  C_8
REMARK    3  A    between atoms: C_8  and  C_9
REMARK    4  A    between atoms: N_11  and  C_12
REMARK    5  A    between atoms: C_15  and  N_18
REMARK    6  A    between atoms: N_18  and  C_19
REMARK    7  A    between atoms: C_19  and  C_20
REMARK    8  A    between atoms: N_22  and  C_23
REMARK    9  A    between atoms: C_26  and  C_29
REMARK   10  A    between atoms: N_31  and  C_32
REMARK                            x       y       z     vdW  Elec       q    Type
REMARK                         _______ _______ _______ _____ _____    ______ ____
ROOT
ATOM      1  C   UNL     1      11.734  -4.987   3.463  0.00  0.00    +0.198 C 
ENDROOT
BRANCH   1   2
ATOM      2  C   UNL     1      13.065  -5.609   3.130  0.00  0.00    +0.234 C 
ATOM      3  O   UNL     1      13.347  -5.856   1.977  0.00  0.00    -0.274 OA
ATOM      4  N   UNL     1      13.942  -5.892   4.114  0.00  0.00    -0.284 N 
ATOM      5  H   UNL     1      13.688  -5.764   5.041  0.00  0.00    +0.155 HD
BRANCH   4   6
ATOM      6  C   UNL     1      15.213  -6.369   3.799  0.00  0.00    +0.033 A 
ATOM      7  C   UNL     1      15.851  -5.932   2.642  0.00  0.00    +0.024 A 
ATOM      8  C   UNL     1      17.107  -6.401   2.328  0.00  0.00    +0.015 A 
ATOM      9  C   UNL     1      17.741  -7.317   3.172  0.00  0.00    +0.037 A 
ATOM     10  C   UNL     1      17.097  -7.753   4.333  0.00  0.00    +0.015 A 
ATOM     11  C   UNL     1      15.844  -7.277   4.644  0.00  0.00    +0.024 A 
BRANCH   9  12
ATOM     12  C   UNL     1      19.087  -7.822   2.838  0.00  0.00    +0.244 C 
ATOM     13  O   UNL     1      19.646  -7.441   1.827  0.00  0.00    -0.270 OA
ATOM     14  N   UNL     1      19.697  -8.705   3.653  0.00  0.00    -0.308 N 
ATOM     15  H   UNL     1      19.251  -9.009   4.459  0.00  0.00    +0.149 HD
BRANCH  14  16
ATOM     16  C   UNL     1      21.033  -9.206   3.321  0.00  0.00    +0.073 C 
ATOM     17  C   UNL     1      20.909 -10.396   2.367  0.00  0.00    +0.022 C 
ATOM     18  C   UNL     1      22.304 -10.919   2.021  0.00  0.00    +0.002 C 
ATOM     19  C   UNL     1      23.014 -11.364   3.301  0.00  0.00    +0.000 C 
ATOM     20  C   UNL     1      23.138 -10.175   4.255  0.00  0.00    +0.002 C 
ATOM     21  C   UNL     1      21.743  -9.651   4.601  0.00  0.00    +0.022 C 
ENDBRANCH  14  16
ENDBRANCH   9  12
ENDBRANCH   4   6
ENDBRANCH   1   2
BRANCH   1  22
ATOM     22  N   UNL     1      10.969  -4.779   2.231  0.00  0.00    -0.335 N 
ATOM     23  H   UNL     1      11.348  -5.037   1.376  0.00  0.00    +0.147 HD
BRANCH  22  27
ATOM     24  C   UNL     1       7.165  -3.084   2.398  0.00  0.00    +0.033 A 
ATOM     25  C   UNL     1       7.708  -3.452   1.174  0.00  0.00    +0.025 A 
ATOM     26  C   UNL     1       8.968  -4.013   1.119  0.00  0.00    +0.025 A 
ATOM     27  C   UNL     1       9.693  -4.210   2.287  0.00  0.00    +0.028 A 
ATOM     28  C   UNL     1       9.150  -3.842   3.511  0.00  0.00    +0.025 A 
ATOM     29  C   UNL     1       7.892  -3.276   3.566  0.00  0.00    +0.025 A 
BRANCH  24  32
ATOM     30  C   UNL     1       5.616  -1.552   3.359  0.00  0.00    +0.218 C 
ATOM     31  O   UNL     1       6.454  -1.238   4.179  0.00  0.00    -0.275 OA
ATOM     32  N   UNL     1       5.886  -2.514   2.454  0.00  0.00    -0.285 N 
ATOM     33  H   UNL     1       5.195  -2.811   1.842  0.00  0.00    +0.155 HD
BRANCH  30  34
ATOM     34  C   UNL     1       4.275  -0.865   3.352  0.00  0.00    +0.101 C 
BRANCH  34  35
ATOM     35  C   UNL     1       4.229   0.177   4.471  0.00  0.00    +0.044 C 
BRANCH  35  39
ATOM     36  C   UNL     1       0.426   2.123   4.452  0.00  0.00    +0.000 A 
ATOM     37  C   UNL     1       0.614   0.980   5.207  0.00  0.00    +0.000 A 
ATOM     38  C   UNL     1       1.845   0.350   5.213  0.00  0.00    +0.003 A 
ATOM     39  C   UNL     1       2.887   0.863   4.464  0.00  0.00    -0.047 A 
ATOM     40  C   UNL     1       2.699   2.005   3.708  0.00  0.00    +0.003 A 
ATOM     41  C   UNL     1       1.469   2.636   3.704  0.00  0.00    +0.000 A 
ENDBRANCH  35  39
ENDBRANCH  34  35
ENDBRANCH  30  34
ENDBRANCH  24  32
ENDBRANCH  22  27
ENDBRANCH   1  22
TORSDOF 10
