REMARK  Name = ZINC33810314
REMARK  7 active torsions:
REMARK  status: ('A' for Active; 'I' for Inactive)
REMARK    1  A    between atoms: C_1  and  C_2
REMARK    2  A    between atoms: C_2  and  C_30
REMARK    3  A    between atoms: C_6  and  C_20
REMARK    4  A    between atoms: C_11  and  S_15
REMARK    5  A    between atoms: S_15  and  C_16
REMARK    6  A    between atoms: C_16  and  C_17
REMARK    7  A    between atoms: C_23  and  O_26
REMARK                            x       y       z     vdW  Elec       q    Type
REMARK                         _______ _______ _______ _____ _____    ______ ____
ROOT
ATOM      1  C   UNL     1       5.846   1.453  -3.124  0.00  0.00    +0.011 C 
ATOM      2  C   UNL     1       6.694   1.726  -1.880  0.00  0.00    -0.023 C 
ATOM      3  C   UNL     1       5.841   2.425  -0.819  0.00  0.00    +0.058 C 
ATOM      4  C   UNL     1       4.696   1.528  -0.417  0.00  0.00    +0.017 C 
ATOM      5  C   UNL     1       4.824   0.184  -0.440  0.00  0.00    +0.024 C 
ATOM      6  C   UNL     1       3.686  -0.711  -0.019  0.00  0.00    +0.092 C 
ATOM      7  C   UNL     1       2.382   0.031  -0.015  0.00  0.00    +0.069 A 
ATOM      8  C   UNL     1       2.350   1.391  -0.012  0.00  0.00    +0.135 A 
ATOM      9  N   UNL     1       1.141   2.033   0.002  0.00  0.00    -0.208 NA
ATOM     10  C   UNL     1      -0.016   1.313   0.009  0.00  0.00    +0.171 A 
ATOM     11  N   UNL     1       0.002  -0.004   0.002  0.00  0.00    -0.302 N 
ATOM     12  C   UNL     1       1.162  -0.679  -0.011  0.00  0.00    +0.258 A 
ATOM     13  O   UNL     1       1.161  -1.901  -0.020  0.00  0.00    -0.267 OA
ATOM     14  N   UNL     1       3.522   2.111  -0.022  0.00  0.00    -0.302 N 
ATOM     15  C   UNL     1       6.021  -0.422  -0.858  0.00  0.00    +0.162 C 
ATOM     16  O   UNL     1       6.106  -1.634  -0.862  0.00  0.00    -0.292 OA
ATOM     17  C   UNL     1       7.200   0.401  -1.301  0.00  0.00    +0.086 C 
ATOM     18  C   UNL     1       7.881   2.616  -2.253  0.00  0.00    +0.011 C 
ATOM     19  H   UNL     1       3.509   3.165   0.291  0.00  0.00    +0.153 HD
ATOM     20  H   UNL     1      -0.943  -0.567   0.007  0.00  0.00    +0.171 HD
ENDROOT
BRANCH   6  21
ATOM     21  C   UNL     1       3.960  -1.235   1.367  0.00  0.00    -0.035 A 
ATOM     22  C   UNL     1       4.077  -0.355   2.427  0.00  0.00    +0.008 A 
ATOM     23  C   UNL     1       4.322  -0.833   3.700  0.00  0.00    +0.046 A 
ATOM     24  C   UNL     1       4.461  -2.197   3.912  0.00  0.00    +0.117 A 
ATOM     25  C   UNL     1       4.349  -3.078   2.846  0.00  0.00    +0.046 A 
ATOM     26  C   UNL     1       4.098  -2.595   1.576  0.00  0.00    +0.008 A 
BRANCH  24  27
ATOM     27  O   UNL     1       4.707  -2.670   5.162  0.00  0.00    -0.507 OA
ATOM     28  H   UNL     1       4.818  -3.752   5.329  0.00  0.00    +0.292 HD
ENDBRANCH  24  27
ENDBRANCH   6  21
BRANCH  10  29
ATOM     29  S   UNL     1      -1.562   2.157   0.021  0.00  0.00    -0.084 S 
BRANCH  29  30
ATOM     30  C   UNL     1      -2.692   0.744   0.019  0.00  0.00    +0.104 C 
BRANCH  30  31
ATOM     31  C   UNL     1      -4.116   1.239   0.028  0.00  0.00    -0.023 C 
ATOM     32  C   UNL     1      -4.897   1.006  -0.998  0.00  0.00    +0.005 C 
ENDBRANCH  30  31
ENDBRANCH  29  30
ENDBRANCH  10  29
TORSDOF 5
