REMARK  Name = ZINC08010472
REMARK  6 active torsions:
REMARK  status: ('A' for Active; 'I' for Inactive)
REMARK    1  A    between atoms: C_1  and  C_2
REMARK    2  A    between atoms: C_4  and  S_17
REMARK    3  A    between atoms: C_6  and  N_9
REMARK    4  A    between atoms: C_7  and  C_8
REMARK    5  A    between atoms: C_10  and  C_12
REMARK    6  A    between atoms: S_17  and  N_20
REMARK                            x       y       z     vdW  Elec       q    Type
REMARK                         _______ _______ _______ _____ _____    ______ ____
ROOT
ATOM      1  C   UNL     1       0.008   1.495   0.024  0.00  0.00    +0.044 C 
ATOM      2  C   UNL     1       0.025  -0.012   0.011  0.00  0.00    -0.044 A 
ATOM      3  C   UNL     1       0.053  -0.713   1.203  0.00  0.00    +0.032 A 
ATOM      4  C   UNL     1       0.068  -2.095   1.195  0.00  0.00    +0.107 A 
ATOM      5  C   UNL     1       0.055  -2.781  -0.004  0.00  0.00    +0.052 A 
ATOM      6  C   UNL     1       0.028  -2.080  -1.203  0.00  0.00    +0.038 A 
ATOM      7  C   UNL     1       0.007  -0.691  -1.191  0.00  0.00    -0.026 A 
ATOM      8  C   UNL     1      -0.029   0.073  -2.489  0.00  0.00    +0.046 C 
ENDROOT
BRANCH   6   9
ATOM      9  N   UNL     1       0.015  -2.771  -2.419  0.00  0.00    -0.285 N 
ATOM     10  C   UNL     1      -0.464  -4.030  -2.474  0.00  0.00    +0.220 C 
ATOM     11  O   UNL     1      -0.974  -4.528  -1.492  0.00  0.00    -0.275 OA
ATOM     12  H   UNL     1       0.349  -2.345  -3.223  0.00  0.00    +0.155 HD
BRANCH  10  13
ATOM     13  C   UNL     1      -0.364  -4.819  -3.753  0.00  0.00    +0.075 C 
ATOM     14  C   UNL     1      -1.183  -4.130  -4.864  0.00  0.00    +0.013 C 
ATOM     15  C   UNL     1      -1.798  -5.303  -5.667  0.00  0.00    +0.001 C 
ATOM     16  C   UNL     1      -2.146  -6.329  -4.560  0.00  0.00    +0.001 C 
ATOM     17  C   UNL     1      -0.976  -6.218  -3.560  0.00  0.00    +0.013 C 
ENDBRANCH  10  13
ENDBRANCH   6   9
BRANCH   4  18
ATOM     18  S   UNL     1       0.103  -2.984   2.716  0.00  0.00    +0.056 S 
ATOM     19  O   UNL     1       0.663  -4.258   2.430  0.00  0.00    -0.153 OA
ATOM     20  O   UNL     1       0.660  -2.107   3.686  0.00  0.00    -0.153 OA
BRANCH  18  21
ATOM     21  N   UNL     1      -1.469  -3.248   3.165  0.00  0.00    -0.204 NA
ATOM     22  H   UNL     1      -2.194  -2.923   2.608  0.00  0.00    +0.144 HD
ATOM     23  H   UNL     1      -1.665  -3.727   3.985  0.00  0.00    +0.144 HD
ENDBRANCH  18  21
ENDBRANCH   4  18
TORSDOF 4
