REMARK  Name = ZINC21673642
REMARK  12 active torsions:
REMARK  status: ('A' for Active; 'I' for Inactive)
REMARK    1  A    between atoms: C_1  and  C_2
REMARK    2  A    between atoms: C_2  and  O_3
REMARK    3  A    between atoms: O_3  and  C_4
REMARK    4  A    between atoms: C_11  and  C_18
REMARK    5  A    between atoms: C_13  and  O_14
REMARK    6  A    between atoms: C_18  and  S_19
REMARK    7  A    between atoms: S_19  and  C_20
REMARK    8  A    between atoms: C_23  and  C_28
REMARK    9  A    between atoms: N_24  and  C_25
REMARK   10  A    between atoms: C_25  and  C_26
REMARK   11  A    between atoms: C_33  and  O_34
REMARK   12  A    between atoms: O_34  and  C_35
REMARK                            x       y       z     vdW  Elec       q    Type
REMARK                         _______ _______ _______ _____ _____    ______ ____
ROOT
ATOM      1  C   UNL     1       2.913 -12.254  -5.174  0.00  0.00    +0.405 C 
ATOM      2  O   UNL     1       2.717 -12.910  -4.170  0.00  0.00    -0.226 OA
ATOM      3  N   UNL     1       3.038 -10.915  -5.090  0.00  0.00    -0.251 N 
ATOM      4  C   UNL     1       2.848 -10.271  -3.867  0.00  0.00    +0.040 A 
ATOM      5  C   UNL     1       2.239  -9.017  -3.832  0.00  0.00    +0.024 A 
ATOM      6  C   UNL     1       2.047  -8.375  -2.644  0.00  0.00    +0.013 A 
ATOM      7  C   UNL     1       2.456  -8.982  -1.451  0.00  0.00    +0.022 A 
ATOM      8  C   UNL     1       2.268  -8.313  -0.162  0.00  0.00    -0.020 A 
ATOM      9  C   UNL     1       2.692  -8.951   0.960  0.00  0.00    +0.092 A 
ATOM     10  C   UNL     1       3.300 -10.219   0.859  0.00  0.00    +0.285 A 
ATOM     11  O   UNL     1       3.475 -10.824  -0.326  0.00  0.00    -0.425 OA
ATOM     12  C   UNL     1       3.076 -10.245  -1.479  0.00  0.00    +0.141 A 
ATOM     13  C   UNL     1       3.265 -10.884  -2.695  0.00  0.00    +0.070 A 
ATOM     14  H   UNL     1       3.291 -10.329  -5.986  0.00  0.00    +0.158 HD
ENDROOT
BRANCH  10  15
ATOM     15  O   UNL     1       3.676 -10.780   1.873  0.00  0.00    -0.480 OA
ATOM     16  H   UNL     1       4.152 -11.769   1.810  0.00  0.00    +0.295 HD
ENDBRANCH  10  15
BRANCH   1  17
ATOM     17  O   UNL     1       3.003 -12.865  -6.371  0.00  0.00    -0.450 OA
BRANCH  17  19
ATOM     18  C   UNL     1       2.989 -14.820  -7.822  0.00  0.00    +0.048 C 
ATOM     19  C   UNL     1       2.858 -14.310  -6.386  0.00  0.00    +0.230 C 
ENDBRANCH  17  19
ENDBRANCH   1  17
BRANCH   8  20
ATOM     20  C   UNL     1       1.615  -6.957  -0.082  0.00  0.00    +0.113 C 
BRANCH  20  21
ATOM     21  S   UNL     1       2.881  -5.670  -0.204  0.00  0.00    -0.081 S 
BRANCH  21  22
ATOM     22  C   UNL     1       1.868  -4.233  -0.085  0.00  0.00    +0.192 A 
ATOM     23  N   UNL     1       0.562  -4.209   0.053  0.00  0.00    -0.122 NA
ATOM     24  N   UNL     1       0.146  -2.994   0.108  0.00  0.00    -0.128 NA
ATOM     25  C   UNL     1       1.161  -2.168   0.008  0.00  0.00    +0.169 A 
ATOM     26  N   UNL     1       2.295  -2.935  -0.124  0.00  0.00    -0.298 N 
BRANCH  25  27
ATOM     27  C   UNL     1       1.096  -0.691   0.027  0.00  0.00    +0.061 A 
ATOM     28  C   UNL     1       1.772   0.053  -0.941  0.00  0.00    +0.015 A 
ATOM     29  C   UNL     1       1.708   1.431  -0.918  0.00  0.00    +0.001 A 
ATOM     30  C   UNL     1       0.977   2.079   0.062  0.00  0.00    +0.004 A 
ATOM     31  C   UNL     1       0.304   1.352   1.026  0.00  0.00    +0.046 A 
ATOM     32  C   UNL     1       0.357  -0.032   1.017  0.00  0.00    +0.131 A 
BRANCH  32  33
ATOM     33  O   UNL     1      -0.304  -0.747   1.964  0.00  0.00    -0.494 OA
ATOM     34  C   UNL     1      -1.036  -0.006   2.942  0.00  0.00    +0.277 C 
ENDBRANCH  32  33
ENDBRANCH  25  27
BRANCH  26  35
ATOM     35  C   UNL     1       3.673  -2.460  -0.273  0.00  0.00    +0.152 C 
BRANCH  35  36
ATOM     36  C   UNL     1       4.338  -2.417   1.079  0.00  0.00    -0.013 C 
ATOM     37  C   UNL     1       5.464  -3.057   1.276  0.00  0.00    +0.005 C 
ENDBRANCH  35  36
ENDBRANCH  26  35
ENDBRANCH  21  22
ENDBRANCH  20  21
ENDBRANCH   8  20
TORSDOF 10
