REMARK  Name = ZINC23154056
REMARK  11 active torsions:
REMARK  status: ('A' for Active; 'I' for Inactive)
REMARK    1  A    between atoms: C_1  and  C_2
REMARK    2  A    between atoms: C_2  and  O_3
REMARK    3  A    between atoms: O_3  and  C_4
REMARK    4  A    between atoms: C_7  and  N_10
REMARK    5  A    between atoms: N_10  and  S_11
REMARK    6  A    between atoms: S_11  and  C_14
REMARK    7  A    between atoms: C_16  and  N_21
REMARK    8  A    between atoms: C_19  and  C_20
REMARK    9  A    between atoms: C_22  and  C_24
REMARK   10  A    between atoms: C_27  and  N_33
REMARK   11  A    between atoms: C_28  and  N_30
REMARK                            x       y       z     vdW  Elec       q    Type
REMARK                         _______ _______ _______ _____ _____    ______ ____
ROOT
ATOM      1  C   UNL     1       2.232  -7.449   3.393  0.00  0.00    +0.113 A 
ATOM      2  C   UNL     1       2.489  -8.153   4.553  0.00  0.00    +0.052 A 
ATOM      3  C   UNL     1       2.722  -7.471   5.740  0.00  0.00    +0.036 A 
ATOM      4  C   UNL     1       2.695  -6.083   5.757  0.00  0.00    +0.024 A 
ATOM      5  C   UNL     1       2.437  -5.385   4.593  0.00  0.00    +0.007 A 
ATOM      6  C   UNL     1       2.211  -6.067   3.412  0.00  0.00    -0.024 A 
ATOM      7  C   UNL     1       1.936  -5.302   2.143  0.00  0.00    +0.046 C 
ENDROOT
BRANCH   3   8
ATOM      8  N   UNL     1       2.982  -8.181   6.916  0.00  0.00    -0.281 N 
ATOM      9  C   UNL     1       3.851  -7.690   7.822  0.00  0.00    +0.248 C 
ATOM     10  O   UNL     1       4.345  -6.591   7.656  0.00  0.00    -0.270 OA
ATOM     11  H   UNL     1       2.538  -9.028   7.081  0.00  0.00    +0.155 HD
BRANCH   9  12
ATOM     12  C   UNL     1       4.202  -8.484   9.014  0.00  0.00    +0.039 A 
ATOM     13  C   UNL     1       3.639  -9.750   9.203  0.00  0.00    +0.015 A 
ATOM     14  C   UNL     1       3.969 -10.489  10.316  0.00  0.00    +0.026 A 
ATOM     15  C   UNL     1       4.862  -9.977  11.254  0.00  0.00    +0.055 A 
ATOM     16  C   UNL     1       5.423  -8.717  11.069  0.00  0.00    +0.147 A 
ATOM     17  C   UNL     1       5.102  -7.975   9.954  0.00  0.00    +0.047 A 
BRANCH  16  18
ATOM     18  N   UNL     1       6.372  -8.176  12.068  0.00  0.00    +0.058 N 
ATOM     19  O   UNL     1       6.357  -6.998  12.340  0.00  0.00    -0.126 OA
ATOM     20  O   UNL     1       7.161  -8.912  12.613  0.00  0.00    -0.126 OA
ENDBRANCH  16  18
BRANCH  15  21
ATOM     21  N   UNL     1       5.193 -10.726  12.378  0.00  0.00    -0.356 N 
ATOM     22  H   UNL     1       4.872 -11.637  12.465  0.00  0.00    +0.142 HD
ATOM     23  H   UNL     1       5.744 -10.337  13.075  0.00  0.00    +0.142 HD
ENDBRANCH  15  21
ENDBRANCH   9  12
ENDBRANCH   3   8
BRANCH   1  24
ATOM     24  S   UNL     1       1.937  -8.313   1.886  0.00  0.00    +0.073 S 
ATOM     25  O   UNL     1       0.748  -7.767   1.330  0.00  0.00    -0.150 OA
ATOM     26  O   UNL     1       2.076  -9.697   2.177  0.00  0.00    -0.150 OA
BRANCH  24  27
ATOM     27  N   UNL     1       3.167  -7.922   0.848  0.00  0.00    -0.216 N 
ATOM     28  H   UNL     1       2.982  -7.402   0.051  0.00  0.00    +0.174 HD
BRANCH  27  32
ATOM     29  C   UNL     1       7.058  -9.175   1.663  0.00  0.00    +0.121 A 
ATOM     30  C   UNL     1       6.532  -9.330   0.389  0.00  0.00    +0.047 A 
ATOM     31  C   UNL     1       5.243  -8.916   0.118  0.00  0.00    +0.028 A 
ATOM     32  C   UNL     1       4.473  -8.343   1.122  0.00  0.00    +0.048 A 
ATOM     33  C   UNL     1       5.000  -8.188   2.397  0.00  0.00    +0.028 A 
ATOM     34  C   UNL     1       6.288  -8.608   2.667  0.00  0.00    +0.047 A 
BRANCH  29  35
ATOM     35  O   UNL     1       8.328  -9.583   1.928  0.00  0.00    -0.492 OA
BRANCH  35  37
ATOM     36  C   UNL     1      10.460 -10.554   1.333  0.00  0.00    +0.048 C 
ATOM     37  C   UNL     1       9.064 -10.158   0.847  0.00  0.00    +0.225 C 
ENDBRANCH  35  37
ENDBRANCH  29  35
ENDBRANCH  27  32
ENDBRANCH  24  27
ENDBRANCH   1  24
TORSDOF 9
