REMARK  Name = ZINC66209864
REMARK  8 active torsions:
REMARK  status: ('A' for Active; 'I' for Inactive)
REMARK    1  A    between atoms: C_1  and  C_2
REMARK    2  A    between atoms: C_2  and  C_3
REMARK    3  A    between atoms: C_2  and  C_4
REMARK    4  A    between atoms: N_6  and  C_7
REMARK    5  A    between atoms: C_10  and  N_13
REMARK    6  A    between atoms: C_14  and  C_16
REMARK    7  A    between atoms: C_16  and  N_17
REMARK    8  A    between atoms: N_17  and  C_18
REMARK                            x       y       z     vdW  Elec       q    Type
REMARK                         _______ _______ _______ _____ _____    ______ ____
ROOT
ATOM      1  N   UNL     1       3.313  -1.835   6.825  0.00  0.00    -0.284 N 
ATOM      2  C   UNL     1       2.702  -2.225   7.961  0.00  0.00    +0.234 C 
ATOM      3  O   UNL     1       1.497  -2.133   8.064  0.00  0.00    -0.274 OA
ATOM      4  H   UNL     1       4.282  -1.846   6.767  0.00  0.00    +0.155 HD
ENDROOT
BRANCH   1   8
ATOM      5  C   UNL     1       1.042  -0.581   3.561  0.00  0.00    +0.034 A 
ATOM      6  C   UNL     1       2.224  -1.282   3.356  0.00  0.00    +0.025 A 
ATOM      7  C   UNL     1       2.975  -1.697   4.437  0.00  0.00    +0.025 A 
ATOM      8  C   UNL     1       2.550  -1.413   5.728  0.00  0.00    +0.034 A 
ATOM      9  C   UNL     1       1.369  -0.713   5.933  0.00  0.00    +0.025 A 
ATOM     10  C   UNL     1       0.620  -0.293   4.852  0.00  0.00    +0.025 A 
BRANCH   5  13
ATOM     11  C   UNL     1      -0.382   1.014   2.513  0.00  0.00    +0.220 C 
ATOM     12  O   UNL     1      -0.384   1.665   3.536  0.00  0.00    -0.275 OA
ATOM     13  N   UNL     1       0.279  -0.160   2.464  0.00  0.00    -0.285 N 
ATOM     14  H   UNL     1       0.226  -0.714   1.669  0.00  0.00    +0.155 HD
BRANCH  11  16
ATOM     15  C   UNL     1      -2.192   0.503   0.898  0.00  0.00    +0.017 C 
ATOM     16  C   UNL     1      -1.117   1.516   1.298  0.00  0.00    +0.069 C 
ATOM     17  C   UNL     1      -1.776   2.859   1.619  0.00  0.00    +0.017 C 
ENDBRANCH  11  16
ENDBRANCH   5  13
ENDBRANCH   1   8
BRANCH   2  18
ATOM     18  C   UNL     1       3.516  -2.776   9.103  0.00  0.00    +0.198 C 
BRANCH  18  19
ATOM     19  N   UNL     1       2.626  -3.125  10.213  0.00  0.00    -0.335 N 
ATOM     20  H   UNL     1       1.669  -2.985  10.130  0.00  0.00    +0.147 HD
BRANCH  19  21
ATOM     21  C   UNL     1       3.154  -3.659  11.392  0.00  0.00    +0.029 A 
ATOM     22  C   UNL     1       4.524  -3.855  11.514  0.00  0.00    +0.024 A 
ATOM     23  C   UNL     1       5.045  -4.383  12.679  0.00  0.00    +0.023 A 
ATOM     24  C   UNL     1       4.203  -4.718  13.725  0.00  0.00    +0.059 A 
ATOM     25  C   UNL     1       2.837  -4.525  13.606  0.00  0.00    +0.061 A 
ATOM     26  C   UNL     1       2.312  -3.990  12.444  0.00  0.00    +0.044 A 
ATOM     27 CL   UNL     1       1.784  -4.947  14.920  0.00  0.00    -0.082 Cl
ATOM     28 CL   UNL     1       4.860  -5.382  15.188  0.00  0.00    -0.082 Cl
ENDBRANCH  19  21
ENDBRANCH  18  19
ENDBRANCH   2  18
TORSDOF 6
