REMARK  Name = ZINC42961546
REMARK  10 active torsions:
REMARK  status: ('A' for Active; 'I' for Inactive)
REMARK    1  A    between atoms: C_1  and  C_2
REMARK    2  A    between atoms: C_2  and  C_3
REMARK    3  A    between atoms: C_2  and  C_4
REMARK    4  A    between atoms: C_2  and  O_5
REMARK    5  A    between atoms: O_5  and  C_6
REMARK    6  A    between atoms: N_8  and  C_9
REMARK    7  A    between atoms: C_9  and  C_16
REMARK    8  A    between atoms: C_16  and  N_17
REMARK    9  A    between atoms: N_20  and  C_21
REMARK   10  A    between atoms: C_24  and  O_27
REMARK                            x       y       z     vdW  Elec       q    Type
REMARK                         _______ _______ _______ _____ _____    ______ ____
ROOT
ATOM      1  C   UNL     1       4.066  -0.168  -2.650  0.00  0.00    +0.053 C 
ATOM      2  C   UNL     1       5.041  -0.721  -1.591  0.00  0.00    +0.027 C 
ATOM      3  C   UNL     1       4.563  -2.082  -1.165  0.00  0.00    +0.002 C 
ATOM      4  C   UNL     1       5.233  -3.219  -1.960  0.00  0.00    +0.000 C 
ATOM      5  C   UNL     1       5.358  -2.903  -3.463  0.00  0.00    +0.000 C 
ATOM      6  C   UNL     1       4.121  -2.250  -4.019  0.00  0.00    +0.002 C 
ATOM      7  C   UNL     1       4.313  -0.720  -3.974  0.00  0.00    +0.027 C 
ENDROOT
BRANCH   1  10
ATOM      8  C   UNL     1       1.661  -0.150  -3.041  0.00  0.00    +0.401 C 
ATOM      9  O   UNL     1       1.856   0.511  -4.042  0.00  0.00    -0.226 OA
ATOM     10  N   UNL     1       2.695  -0.495  -2.249  0.00  0.00    -0.274 N 
ATOM     11  H   UNL     1       2.532  -0.959  -1.413  0.00  0.00    +0.153 HD
BRANCH   8  12
ATOM     12  O   UNL     1       0.411  -0.539  -2.724  0.00  0.00    -0.445 OA
BRANCH  12  14
ATOM     13  C   UNL     1      -0.371  -0.707  -5.005  0.00  0.00    +0.055 C 
ATOM     14  C   UNL     1      -0.637  -0.139  -3.609  0.00  0.00    +0.107 C 
ATOM     15  C   UNL     1      -0.687   1.389  -3.681  0.00  0.00    +0.055 C 
ATOM     16  C   UNL     1      -1.974  -0.669  -3.088  0.00  0.00    +0.055 C 
ENDBRANCH  12  14
ENDBRANCH   8  12
ENDBRANCH   1  10
BRANCH   1  17
ATOM     17  C   UNL     1       4.214   1.353  -2.712  0.00  0.00    +0.131 C 
BRANCH  17  18
ATOM     18  N   UNL     1       3.888   1.929  -1.405  0.00  0.00    -0.297 N 
ATOM     19  C   UNL     1       4.058   3.248  -1.188  0.00  0.00    +0.300 C 
ATOM     20  O   UNL     1       4.481   3.961  -2.078  0.00  0.00    -0.253 OA
ATOM     21  N   UNL     1       3.758   3.778   0.014  0.00  0.00    -0.297 N 
ATOM     22  H   UNL     1       3.551   1.360  -0.695  0.00  0.00    +0.150 HD
ATOM     23  H   UNL     1       3.420   3.209   0.724  0.00  0.00    +0.151 HD
BRANCH  21  24
ATOM     24  C   UNL     1       3.942   5.212   0.249  0.00  0.00    +0.075 C 
ATOM     25  C   UNL     1       5.392   5.480   0.657  0.00  0.00    +0.025 C 
ATOM     26  C   UNL     1       5.584   6.978   0.902  0.00  0.00    +0.033 C 
ATOM     27  C   UNL     1       4.647   7.436   2.022  0.00  0.00    +0.115 C 
ATOM     28  C   UNL     1       3.197   7.168   1.615  0.00  0.00    +0.033 C 
ATOM     29  C   UNL     1       3.005   5.670   1.369  0.00  0.00    +0.025 C 
BRANCH  27  30
ATOM     30  O   UNL     1       4.827   8.835   2.251  0.00  0.00    -0.392 OA
ATOM     31  H   UNL     1       4.263   9.194   2.950  0.00  0.00    +0.210 HD
ENDBRANCH  27  30
ENDBRANCH  21  24
ENDBRANCH  17  18
ENDBRANCH   1  17
TORSDOF 7
