REMARK  Name = ZINC40572400
REMARK  4 active torsions:
REMARK  status: ('A' for Active; 'I' for Inactive)
REMARK    1  A    between atoms: C_1  and  C_2
REMARK    2  A    between atoms: C_7  and  N_10
REMARK    3  A    between atoms: C_15  and  O_23
REMARK    4  A    between atoms: C_18  and  C_20
REMARK                            x       y       z     vdW  Elec       q    Type
REMARK                         _______ _______ _______ _____ _____    ______ ____
ROOT
ATOM      1  N   UNL     1       1.448  -2.513   0.028  0.00  0.00    -0.296 N 
ATOM      2  C   UNL     1       2.034  -3.727   0.018  0.00  0.00    +0.303 C 
ATOM      3  O   UNL     1       1.992  -4.431   1.008  0.00  0.00    -0.253 OA
ATOM      4  N   UNL     1       2.664  -4.162  -1.091  0.00  0.00    -0.269 N 
ATOM      5  C   UNL     1       2.795  -3.413  -2.355  0.00  0.00    +0.141 C 
ATOM      6  C   UNL     1       3.009  -4.499  -3.439  0.00  0.00    +0.134 C 
ATOM      7  C   UNL     1       3.889  -5.527  -2.681  0.00  0.00    +0.067 C 
ATOM      8  C   UNL     1       3.341  -5.459  -1.239  0.00  0.00    +0.193 C 
ATOM      9  H   UNL     1       1.482  -1.952  -0.763  0.00  0.00    +0.151 HD
ENDROOT
BRANCH   1  15
ATOM     10  C   UNL     1      -0.019   1.526   0.010  0.00  0.00    +0.007 C 
ATOM     11  C   UNL     1       0.002  -0.004   0.002  0.00  0.00    -0.012 C 
ATOM     12  C   UNL     1      -1.433  -0.534   0.013  0.00  0.00    +0.003 C 
ATOM     13  C   UNL     1      -1.413  -2.063   0.004  0.00  0.00    +0.002 C 
ATOM     14  C   UNL     1      -0.673  -2.570   1.244  0.00  0.00    +0.022 C 
ATOM     15  C   UNL     1       0.763  -2.041   1.233  0.00  0.00    +0.075 C 
ATOM     16  C   UNL     1       0.742  -0.511   1.242  0.00  0.00    +0.025 C 
ENDBRANCH   1  15
BRANCH   8  17
ATOM     17  C   UNL     1       4.475  -5.560  -0.252  0.00  0.00    +0.376 C 
ATOM     18  O   UNL     1       4.688  -4.648   0.529  0.00  0.00    -0.244 OA
ATOM     19  O   UNL     1       5.180  -6.555  -0.234  0.00  0.00    -0.244 OA
ENDBRANCH   8  17
BRANCH   6  20
ATOM     20  O   UNL     1       1.764  -5.081  -3.833  0.00  0.00    -0.390 OA
ATOM     21  H   UNL     1       1.142  -4.452  -4.223  0.00  0.00    +0.210 HD
ENDBRANCH   6  20
TORSDOF 3
