REMARK  Name = ZINC12390697
REMARK  6 active torsions:
REMARK  status: ('A' for Active; 'I' for Inactive)
REMARK    1  A    between atoms: C_1  and  C_2
REMARK    2  A    between atoms: C_5  and  C_8
REMARK    3  A    between atoms: C_11  and  C_14
REMARK    4  A    between atoms: C_24  and  C_26
REMARK    5  A    between atoms: C_26  and  C_27
REMARK    6  A    between atoms: C_26  and  C_28
REMARK                            x       y       z     vdW  Elec       q    Type
REMARK                         _______ _______ _______ _____ _____    ______ ____
ROOT
ATOM      1  C   UNL     1      -2.501   1.010   0.019  0.00  0.00    +0.069 C 
ATOM      2  N   UNL     1      -2.606  -0.274   0.013  0.00  0.00    -0.181 NA
ATOM      3  N   UNL     1      -3.920  -0.737   0.017  0.00  0.00    -0.185 N 
ATOM      4  C   UNL     1      -4.832   0.418   0.028  0.00  0.00    +0.137 C 
ATOM      5  C   UNL     1      -3.880   1.630   0.035  0.00  0.00    +0.087 C 
ATOM      6  C   UNL     1      -4.295  -2.032   0.013  0.00  0.00    +0.238 C 
ATOM      7  O   UNL     1      -5.473  -2.322   0.018  0.00  0.00    -0.274 OA
ENDROOT
BRANCH   4   8
ATOM      8  C   UNL     1      -5.698   0.421  -1.206  0.00  0.00    -0.023 A 
ATOM      9  C   UNL     1      -5.149   0.046  -2.431  0.00  0.00    +0.008 A 
ATOM     10  C   UNL     1      -5.905   0.034  -3.563  0.00  0.00    +0.030 A 
ATOM     11  C   UNL     1      -7.257   0.414  -3.502  0.00  0.00    +0.089 A 
ATOM     12  C   UNL     1      -7.814   0.801  -2.256  0.00  0.00    +0.089 A 
ATOM     13  C   UNL     1      -7.002   0.796  -1.108  0.00  0.00    +0.035 A 
ATOM     14  N   UNL     1      -9.099   1.164  -2.192  0.00  0.00    -0.252 NA
ATOM     15  C   UNL     1      -9.832   1.159  -3.282  0.00  0.00    +0.131 A 
ATOM     16  C   UNL     1      -9.284   0.778  -4.509  0.00  0.00    +0.131 A 
ATOM     17  N   UNL     1      -8.024   0.417  -4.597  0.00  0.00    -0.252 NA
ENDBRANCH   4   8
BRANCH   1  22
ATOM     18  C   UNL     1       2.452   3.933   0.001  0.00  0.00    +0.044 C 
ATOM     19  C   UNL     1       1.155   3.167   0.009  0.00  0.00    -0.050 A 
ATOM     20  C   UNL     1       1.171   1.783   0.001  0.00  0.00    +0.004 A 
ATOM     21  C   UNL     1      -0.013   1.076   0.008  0.00  0.00    +0.010 A 
ATOM     22  C   UNL     1      -1.231   1.759   0.017  0.00  0.00    -0.002 A 
ATOM     23  C   UNL     1      -1.240   3.156   0.031  0.00  0.00    +0.010 A 
ATOM     24  C   UNL     1      -0.048   3.851   0.024  0.00  0.00    +0.004 A 
ENDBRANCH   1  22
BRANCH   6  25
ATOM     25  C   UNL     1      -3.251  -3.118   0.003  0.00  0.00    +0.071 C 
ATOM     26  C   UNL     1      -2.371  -2.992   1.248  0.00  0.00    +0.017 C 
ATOM     27  C   UNL     1      -3.938  -4.486  -0.001  0.00  0.00    +0.017 C 
ENDBRANCH   6  25
TORSDOF 3
