REMARK  Name = ZINC49741030
REMARK  4 active torsions:
REMARK  status: ('A' for Active; 'I' for Inactive)
REMARK    1  A    between atoms: C_1  and  C_2
REMARK    2  A    between atoms: C_4  and  S_9
REMARK    3  A    between atoms: S_9  and  N_12
REMARK    4  A    between atoms: N_12  and  C_13
REMARK                            x       y       z     vdW  Elec       q    Type
REMARK                         _______ _______ _______ _____ _____    ______ ____
ROOT
ATOM      1  C   UNL     1       2.380  -4.047  -2.220  0.00  0.00    +0.048 A 
ATOM      2  C   UNL     1       2.171  -4.056  -0.847  0.00  0.00    +0.026 A 
ATOM      3  C   UNL     1       2.900  -4.902  -0.039  0.00  0.00    +0.025 A 
ATOM      4  C   UNL     1       3.853  -5.755  -0.593  0.00  0.00    +0.038 A 
ATOM      5  C   UNL     1       4.055  -5.739  -1.968  0.00  0.00    -0.009 A 
ATOM      6  C   UNL     1       3.325  -4.899  -2.778  0.00  0.00    +0.031 A 
ATOM      7  C   UNL     1       5.132  -6.757  -2.246  0.00  0.00    +0.074 C 
ATOM      8  C   UNL     1       6.349  -6.087  -2.876  0.00  0.00    +0.021 C 
ATOM      9  C   UNL     1       7.441  -7.131  -3.122  0.00  0.00    +0.001 C 
ATOM     10  C   UNL     1       6.902  -8.221  -4.051  0.00  0.00    +0.000 C 
ATOM     11  C   UNL     1       5.696  -8.900  -3.397  0.00  0.00    +0.001 C 
ATOM     12  C   UNL     1       4.598  -7.862  -3.153  0.00  0.00    +0.021 C 
ATOM     13  C   UNL     1       5.484  -7.316  -0.888  0.00  0.00    +0.228 C 
ATOM     14  O   UNL     1       6.312  -8.169  -0.651  0.00  0.00    -0.274 OA
ATOM     15  N   UNL     1       4.704  -6.687   0.009  0.00  0.00    -0.284 N 
ATOM     16  H   UNL     1       4.728  -6.860   0.964  0.00  0.00    +0.155 HD
ENDROOT
BRANCH   1  17
ATOM     17  N   UNL     1       1.639  -3.187  -3.038  0.00  0.00    -0.216 N 
ATOM     18  H   UNL     1       2.053  -2.391  -3.406  0.00  0.00    +0.174 HD
BRANCH  17  19
ATOM     19  S   UNL     1       0.055  -3.530  -3.379  0.00  0.00    +0.072 S 
ATOM     20  O   UNL     1      -0.391  -2.532  -4.287  0.00  0.00    -0.150 OA
ATOM     21  O   UNL     1      -0.586  -3.767  -2.133  0.00  0.00    -0.150 OA
BRANCH  19  25
ATOM     22  C   UNL     1      -0.442  -8.731  -3.522  0.00  0.00    +0.047 C 
ATOM     23  C   UNL     1      -0.207  -7.440  -4.264  0.00  0.00    -0.013 A 
ATOM     24  C   UNL     1      -0.186  -6.241  -3.576  0.00  0.00    +0.035 A 
ATOM     25  C   UNL     1       0.029  -5.058  -4.256  0.00  0.00    +0.109 A 
ATOM     26  C   UNL     1       0.224  -5.071  -5.625  0.00  0.00    +0.031 A 
ATOM     27  C   UNL     1       0.204  -6.268  -6.315  0.00  0.00    +0.040 A 
ATOM     28  C   UNL     1      -0.006  -7.455  -5.634  0.00  0.00    +0.126 A 
ATOM     29  F   UNL     1      -0.021  -8.627  -6.306  0.00  0.00    -0.205 F 
ENDBRANCH  19  25
ENDBRANCH  17  19
ENDBRANCH   1  17
TORSDOF 3
