REMARK  Name = ZINC39482864
REMARK  12 active torsions:
REMARK  status: ('A' for Active; 'I' for Inactive)
REMARK    1  A    between atoms: C_1  and  C_2
REMARK    2  A    between atoms: C_2  and  O_3
REMARK    3  A    between atoms: O_3  and  S_4
REMARK    4  A    between atoms: S_4  and  N_7
REMARK    5  A    between atoms: N_7  and  C_8
REMARK    6  A    between atoms: C_11  and  S_28
REMARK    7  A    between atoms: C_13  and  N_14
REMARK    8  A    between atoms: C_18  and  C_21
REMARK    9  A    between atoms: C_26  and  O_27
REMARK   10  A    between atoms: S_28  and  C_31
REMARK   11  A    between atoms: C_31  and  C_32
REMARK   12  A    between atoms: C_31  and  C_33
REMARK                            x       y       z     vdW  Elec       q    Type
REMARK                         _______ _______ _______ _____ _____    ______ ____
ROOT
ATOM      1  C   UNL     1       2.201  -3.856   0.021  0.00  0.00    +0.097 A 
ATOM      2  C   UNL     1       1.535  -4.790   0.801  0.00  0.00    +0.030 A 
ATOM      3  C   UNL     1       1.824  -6.136   0.664  0.00  0.00    +0.029 A 
ATOM      4  C   UNL     1       2.775  -6.554  -0.247  0.00  0.00    +0.090 A 
ATOM      5  C   UNL     1       3.443  -5.630  -1.029  0.00  0.00    +0.052 A 
ATOM      6  C   UNL     1       3.156  -4.279  -0.902  0.00  0.00    +0.056 A 
ENDROOT
BRANCH   6   7
ATOM      7  N   UNL     1       3.828  -3.341  -1.696  0.00  0.00    -0.331 N 
ATOM      8  C   UNL     1       5.092  -2.736  -1.247  0.00  0.00    +0.086 C 
ATOM      9  C   UNL     1       6.122  -2.870  -2.373  0.00  0.00    -0.063 C 
ATOM     10  N   UNL     1       5.576  -2.288  -3.606  0.00  0.00    +0.386 N 
ATOM     11  C   UNL     1       4.406  -3.058  -4.047  0.00  0.00    -0.020 C 
ATOM     12  C   UNL     1       3.294  -2.938  -3.006  0.00  0.00    +0.094 C 
ATOM     13  H   UNL     1       5.302  -1.332  -3.433  0.00  0.00    -0.085 HD
ATOM     14  H   UNL     1       6.282  -2.307  -4.327  0.00  0.00    -0.085 HD
BRANCH  11  15
ATOM     15  C   UNL     1       3.920  -2.520  -5.369  0.00  0.00    -0.018 A 
ATOM     16  C   UNL     1       4.277  -1.248  -5.771  0.00  0.00    +0.005 A 
ATOM     17  C   UNL     1       3.832  -0.754  -6.983  0.00  0.00    +0.000 A 
ATOM     18  C   UNL     1       3.027  -1.532  -7.795  0.00  0.00    +0.004 A 
ATOM     19  C   UNL     1       2.668  -2.805  -7.398  0.00  0.00    +0.045 A 
ATOM     20  C   UNL     1       3.119  -3.305  -6.184  0.00  0.00    +0.118 A 
BRANCH  20  21
ATOM     21  O   UNL     1       2.771  -4.559  -5.794  0.00  0.00    -0.507 OA
ATOM     22  H   UNL     1       1.950  -4.599  -5.284  0.00  0.00    +0.292 HD
ENDBRANCH  20  21
ENDBRANCH  11  15
ENDBRANCH   6   7
BRANCH   4  23
ATOM     23  S   UNL     1       3.136  -8.270  -0.414  0.00  0.00    -0.001 S 
ATOM     24  O   UNL     1       4.472  -8.314  -0.898  0.00  0.00    -0.169 OA
ATOM     25  O   UNL     1       2.804  -8.835   0.846  0.00  0.00    -0.169 OA
BRANCH  23  26
ATOM     26  C   UNL     1       1.991  -8.867  -1.688  0.00  0.00    +0.130 C 
ATOM     27  C   UNL     1       2.130 -10.384  -1.830  0.00  0.00    +0.032 C 
ATOM     28  C   UNL     1       0.556  -8.522  -1.285  0.00  0.00    +0.032 C 
ENDBRANCH  23  26
ENDBRANCH   4  23
BRANCH   1  29
ATOM     29  N   UNL     1       1.910  -2.493   0.157  0.00  0.00    -0.075 NA
BRANCH  29  30
ATOM     30  S   UNL     1       0.775  -1.994   1.255  0.00  0.00    +0.186 S 
ATOM     31  O   UNL     1       1.296  -2.293   2.543  0.00  0.00    -0.125 OA
ATOM     32  O   UNL     1      -0.475  -2.497   0.804  0.00  0.00    -0.125 OA
BRANCH  30  33
ATOM     33  O   UNL     1       0.693  -0.477   1.160  0.00  0.00    -0.221 OA
BRANCH  33  35
ATOM     34  C   UNL     1      -0.019   1.526   0.010  0.00  0.00    +0.036 C 
ATOM     35  C   UNL     1       0.002  -0.004   0.002  0.00  0.00    +0.192 C 
ENDBRANCH  33  35
ENDBRANCH  30  33
ENDBRANCH  29  30
ENDBRANCH   1  29
TORSDOF 9
