REMARK  Name = ZINC12570134
REMARK  10 active torsions:
REMARK  status: ('A' for Active; 'I' for Inactive)
REMARK    1  A    between atoms: C_1  and  C_2
REMARK    2  A    between atoms: C_2  and  C_4
REMARK    3  A    between atoms: C_2  and  O_25
REMARK    4  A    between atoms: N_6  and  C_7
REMARK    5  A    between atoms: C_7  and  N_9
REMARK    6  A    between atoms: N_9  and  N_10
REMARK    7  A    between atoms: C_11  and  C_13
REMARK    8  A    between atoms: C_16  and  N_19
REMARK    9  A    between atoms: C_20  and  C_22
REMARK   10  A    between atoms: O_25  and  C_26
REMARK                            x       y       z     vdW  Elec       q    Type
REMARK                         _______ _______ _______ _____ _____    ______ ____
ROOT
ATOM      1  N   UNL     1       2.356   0.359  -0.355  0.00  0.00    -0.245 N 
ATOM      2  H   UNL     1       2.491  -0.594  -0.237  0.00  0.00    +0.172 HD
ENDROOT
BRANCH   1   3
ATOM      3  N   UNL     1       1.062   0.894  -0.306  0.00  0.00    -0.231 N 
ATOM      4  C   UNL     1       0.005   0.084  -0.095  0.00  0.00    +0.260 C 
ATOM      5  O   UNL     1       0.175  -1.111   0.053  0.00  0.00    -0.269 OA
ATOM      6  H   UNL     1       0.926   1.847  -0.424  0.00  0.00    +0.173 HD
BRANCH   4   7
ATOM      7  C   UNL     1      -1.358   0.646  -0.049  0.00  0.00    +0.038 A 
ATOM      8  C   UNL     1      -1.555   2.020  -0.213  0.00  0.00    +0.015 A 
ATOM      9  C   UNL     1      -2.829   2.541  -0.174  0.00  0.00    +0.024 A 
ATOM     10  C   UNL     1      -3.919   1.703   0.038  0.00  0.00    +0.033 A 
ATOM     11  C   UNL     1      -3.726   0.335   0.207  0.00  0.00    +0.024 A 
ATOM     12  C   UNL     1      -2.455  -0.193   0.164  0.00  0.00    +0.015 A 
BRANCH  10  13
ATOM     13  N   UNL     1      -5.207   2.234   0.082  0.00  0.00    -0.285 N 
ATOM     14  C   UNL     1      -6.248   1.517  -0.385  0.00  0.00    +0.220 C 
ATOM     15  O   UNL     1      -6.055   0.449  -0.928  0.00  0.00    -0.275 OA
ATOM     16  H   UNL     1      -5.354   3.120   0.448  0.00  0.00    +0.155 HD
BRANCH  14  17
ATOM     17  C   UNL     1      -7.653   2.041  -0.233  0.00  0.00    +0.075 C 
ATOM     18  C   UNL     1      -8.584   1.298   0.728  0.00  0.00    +0.013 C 
ATOM     19  C   UNL     1      -8.792   1.180  -0.784  0.00  0.00    +0.013 C 
ENDBRANCH  14  17
ENDBRANCH  10  13
ENDBRANCH   4   7
ENDBRANCH   1   3
BRANCH   1  20
ATOM     20  C   UNL     1       3.412   1.169  -0.567  0.00  0.00    +0.153 C 
ATOM     21  S   UNL     1       4.993   0.516  -0.627  0.00  0.00    -0.017 S 
BRANCH  20  24
ATOM     22  C   UNL     1       4.280   3.303  -0.942  0.00  0.00    +0.259 C 
ATOM     23  O   UNL     1       5.399   2.841  -0.985  0.00  0.00    -0.271 OA
ATOM     24  N   UNL     1       3.223   2.494  -0.731  0.00  0.00    -0.264 N 
ATOM     25  H   UNL     1       2.328   2.864  -0.697  0.00  0.00    +0.157 HD
BRANCH  22  27
ATOM     26  C   UNL     1       3.274   5.031  -2.410  0.00  0.00    +0.062 C 
ATOM     27  C   UNL     1       4.069   4.784  -1.126  0.00  0.00    +0.256 C 
BRANCH  27  28
ATOM     28  O   UNL     1       5.336   5.438  -1.217  0.00  0.00    -0.478 OA
BRANCH  28  29
ATOM     29  C   UNL     1       5.375   6.758  -0.891  0.00  0.00    +0.140 A 
ATOM     30  C   UNL     1       4.228   7.396  -0.443  0.00  0.00    +0.048 A 
ATOM     31  C   UNL     1       4.270   8.736  -0.108  0.00  0.00    +0.023 A 
ATOM     32  C   UNL     1       5.453   9.444  -0.230  0.00  0.00    +0.043 A 
ATOM     33  C   UNL     1       6.597   8.811  -0.681  0.00  0.00    +0.043 A 
ATOM     34  C   UNL     1       6.560   7.469  -1.013  0.00  0.00    +0.084 A 
ATOM     35 CL   UNL     1       7.996   6.675  -1.579  0.00  0.00    -0.080 Cl
ATOM     36 CL   UNL     1       5.501  11.129   0.186  0.00  0.00    -0.083 Cl
ENDBRANCH  28  29
ENDBRANCH  27  28
ENDBRANCH  22  27
ENDBRANCH  20  24
ENDBRANCH   1  20
TORSDOF 9
