REMARK  Name = ZINC42903921
REMARK  9 active torsions:
REMARK  status: ('A' for Active; 'I' for Inactive)
REMARK    1  A    between atoms: C_1  and  C_2
REMARK    2  A    between atoms: C_2  and  C_4
REMARK    3  A    between atoms: C_2  and  N_18
REMARK    4  A    between atoms: C_7  and  O_12
REMARK    5  A    between atoms: C_8  and  O_10
REMARK    6  A    between atoms: O_10  and  C_11
REMARK    7  A    between atoms: O_12  and  C_13
REMARK    8  A    between atoms: N_21  and  C_22
REMARK    9  A    between atoms: C_25  and  C_28
REMARK                            x       y       z     vdW  Elec       q    Type
REMARK                         _______ _______ _______ _____ _____    ______ ____
ROOT
ATOM      1  N   UNL     1      -0.228  -0.687  -1.178  0.00  0.00    -0.293 N 
ATOM      2  C   UNL     1      -1.093  -0.739  -2.210  0.00  0.00    +0.304 C 
ATOM      3  O   UNL     1      -2.251  -0.402  -2.050  0.00  0.00    -0.252 OA
ATOM      4  N   UNL     1      -0.675  -1.162  -3.419  0.00  0.00    -0.269 N 
ATOM      5  H   UNL     1       0.696  -0.956  -1.305  0.00  0.00    +0.151 HD
ATOM      6  H   UNL     1       0.226  -1.503  -3.529  0.00  0.00    +0.156 HD
ENDROOT
BRANCH   4   7
ATOM      7  C   UNL     1      -1.540  -1.111  -4.512  0.00  0.00    +0.035 A 
ATOM      8  C   UNL     1      -2.473  -0.085  -4.612  0.00  0.00    +0.024 A 
ATOM      9  C   UNL     1      -3.328  -0.032  -5.690  0.00  0.00    +0.015 A 
ATOM     10  C   UNL     1      -3.256  -1.010  -6.685  0.00  0.00    +0.037 A 
ATOM     11  C   UNL     1      -2.317  -2.040  -6.582  0.00  0.00    +0.015 A 
ATOM     12  C   UNL     1      -1.462  -2.084  -5.504  0.00  0.00    +0.024 A 
BRANCH  10  13
ATOM     13  C   UNL     1      -4.171  -0.957  -7.842  0.00  0.00    +0.242 C 
ATOM     14  O   UNL     1      -4.988  -0.061  -7.930  0.00  0.00    -0.270 OA
ATOM     15  N   UNL     1      -4.101  -1.901  -8.801  0.00  0.00    -0.325 N 
ATOM     16  H   UNL     1      -3.449  -2.616  -8.731  0.00  0.00    +0.145 HD
ATOM     17  H   UNL     1      -4.702  -1.866  -9.561  0.00  0.00    +0.145 HD
ENDBRANCH  10  13
ENDBRANCH   4   7
BRANCH   1  19
ATOM     18  C   UNL     1      -0.612   1.301   0.194  0.00  0.00    +0.033 C 
ATOM     19  C   UNL     1      -0.682  -0.227   0.137  0.00  0.00    +0.102 C 
BRANCH  19  20
ATOM     20  C   UNL     1       0.204  -0.810   1.207  0.00  0.00    -0.024 A 
ATOM     21  C   UNL     1       1.569  -0.893   1.003  0.00  0.00    +0.009 A 
ATOM     22  C   UNL     1       2.386  -1.428   1.982  0.00  0.00    +0.050 A 
ATOM     23  C   UNL     1       1.837  -1.881   3.171  0.00  0.00    +0.162 A 
ATOM     24  C   UNL     1       0.464  -1.797   3.376  0.00  0.00    +0.162 A 
ATOM     25  C   UNL     1      -0.349  -1.256   2.393  0.00  0.00    +0.054 A 
BRANCH  24  26
ATOM     26  O   UNL     1      -0.080  -2.241   4.541  0.00  0.00    -0.491 OA
ATOM     27  C   UNL     1      -1.497  -2.124   4.682  0.00  0.00    +0.277 C 
ENDBRANCH  24  26
BRANCH  23  28
ATOM     28  O   UNL     1       2.639  -2.408   4.134  0.00  0.00    -0.485 OA
BRANCH  28  29
ATOM     29  C   UNL     1       4.049  -2.350   3.908  0.00  0.00    +0.174 C 
ATOM     30  C   UNL     1       4.505  -3.582   3.098  0.00  0.00    +0.044 C 
ATOM     31  C   UNL     1       5.888  -3.940   3.696  0.00  0.00    +0.004 C 
ATOM     32  C   UNL     1       5.688  -3.666   5.207  0.00  0.00    +0.004 C 
ATOM     33  C   UNL     1       4.801  -2.404   5.249  0.00  0.00    +0.044 C 
ENDBRANCH  28  29
ENDBRANCH  23  28
ENDBRANCH  19  20
ENDBRANCH   1  19
TORSDOF 7
