REMARK  Name = ZINC07333373
REMARK  4 active torsions:
REMARK  status: ('A' for Active; 'I' for Inactive)
REMARK    1  A    between atoms: C_6  and  C_7
REMARK    2  A    between atoms: C_8  and  C_9
REMARK    3  A    between atoms: C_9  and  C_11
REMARK    4  A    between atoms: C_14  and  C_16
REMARK                            x       y       z     vdW  Elec       q    Type
REMARK                         _______ _______ _______ _____ _____    ______ ____
ROOT
ATOM      1  C   UNL     1       2.421   1.303  -0.014  0.00  0.00    +0.012 C 
ATOM      2  C   UNL     1       1.242   1.962   0.001  0.00  0.00    +0.052 C 
ENDROOT
BRANCH   1   8
ATOM      3  C   UNL     1       4.907   1.375  -0.037  0.00  0.00    +0.011 A 
ATOM      4  C   UNL     1       6.088   2.086  -0.045  0.00  0.00    +0.040 A 
ATOM      5  C   UNL     1       6.066   3.472  -0.037  0.00  0.00    +0.137 A 
ATOM      6  C   UNL     1       4.856   4.154  -0.021  0.00  0.00    +0.054 A 
ATOM      7  C   UNL     1       3.669   3.455  -0.020  0.00  0.00    +0.026 A 
ATOM      8  C   UNL     1       3.684   2.055  -0.022  0.00  0.00    -0.024 A 
ATOM      9 BR   UNL     1       4.839   6.045  -0.009  0.00  0.00    -0.047 Br
ATOM     10  F   UNL     1       7.227   4.163  -0.043  0.00  0.00    -0.204 F 
ENDBRANCH   1   8
BRANCH   2  11
ATOM     11  C   UNL     1      -0.014   1.214   0.009  0.00  0.00    +0.193 C 
ATOM     12  O   UNL     1       0.002  -0.004   0.002  0.00  0.00    -0.287 OA
BRANCH  11  13
ATOM     13  C   UNL     1      -1.299   1.933   0.019  0.00  0.00    +0.060 A 
ATOM     14  C   UNL     1      -2.588   1.416   0.016  0.00  0.00    +0.020 A 
ATOM     15  C   UNL     1      -3.643   2.283   0.031  0.00  0.00    +0.023 A 
ATOM     16  C   UNL     1      -3.385   3.647   0.037  0.00  0.00    +0.101 A 
ATOM     17  S   UNL     1      -1.600   3.692   0.029  0.00  0.00    -0.078 S 
BRANCH  16  18
ATOM     18  C   UNL     1      -4.337   4.766   0.047  0.00  0.00    +0.393 C 
ATOM     19  O   UNL     1      -5.532   4.548   0.051  0.00  0.00    -0.240 OA
ATOM     20  O   UNL     1      -3.884   6.037   0.052  0.00  0.00    -0.240 OA
ENDBRANCH  16  18
ENDBRANCH  11  13
ENDBRANCH   2  11
TORSDOF 4
