REMARK  Name = ZINC01785380
REMARK  9 active torsions:
REMARK  status: ('A' for Active; 'I' for Inactive)
REMARK    1  A    between atoms: C_1  and  C_2
REMARK    2  A    between atoms: C_2  and  C_4
REMARK    3  A    between atoms: C_2  and  O_16
REMARK    4  A    between atoms: N_6  and  N_7
REMARK    5  A    between atoms: C_8  and  C_9
REMARK    6  A    between atoms: O_16  and  C_17
REMARK    7  A    between atoms: C_20  and  C_23
REMARK    8  A    between atoms: N_25  and  C_26
REMARK    9  A    between atoms: C_27  and  C_35
REMARK                            x       y       z     vdW  Elec       q    Type
REMARK                         _______ _______ _______ _____ _____    ______ ____
ROOT
ATOM      1  C   UNL     1       5.425  10.279  -0.687  0.00  0.00    +0.122 A 
ATOM      2  C   UNL     1       6.502   9.725  -1.370  0.00  0.00    +0.046 A 
ATOM      3  C   UNL     1       7.357  10.534  -2.083  0.00  0.00    +0.016 A 
ATOM      4  C   UNL     1       7.148  11.916  -2.112  0.00  0.00    +0.037 A 
ATOM      5  C   UNL     1       6.067  12.469  -1.420  0.00  0.00    +0.016 A 
ATOM      6  C   UNL     1       5.213  11.652  -0.713  0.00  0.00    +0.046 A 
ENDROOT
BRANCH   4   7
ATOM      7  C   UNL     1       8.065  12.787  -2.871  0.00  0.00    +0.249 C 
ATOM      8  O   UNL     1       7.881  13.989  -2.895  0.00  0.00    -0.270 OA
ATOM      9  N   UNL     1       9.106  12.251  -3.538  0.00  0.00    -0.275 N 
ATOM     10  H   UNL     1       9.253  11.293  -3.519  0.00  0.00    +0.156 HD
BRANCH   9  11
ATOM     11  C   UNL     1       9.967  13.070  -4.251  0.00  0.00    +0.085 A 
ATOM     12  C   UNL     1      11.087  12.710  -4.989  0.00  0.00    +0.068 A 
ATOM     13  C   UNL     1      11.824  13.772  -5.652  0.00  0.00    -0.023 A 
ATOM     14  C   UNL     1      11.334  15.016  -5.464  0.00  0.00    -0.004 A 
ATOM     15  S   UNL     1       9.912  14.792  -4.432  0.00  0.00    -0.077 S 
ATOM     16  C   UNL     1      11.883  16.296  -6.015  0.00  0.00    +0.043 C 
ATOM     17  C   UNL     1      13.308  16.032  -6.522  0.00  0.00    +0.005 C 
ATOM     18  C   UNL     1      13.299  14.766  -7.383  0.00  0.00    +0.005 C 
ATOM     19  C   UNL     1      13.068  13.538  -6.501  0.00  0.00    +0.037 C 
BRANCH  12  20
ATOM     20  C   UNL     1      11.507  11.309  -5.098  0.00  0.00    +0.244 C 
ATOM     21  O   UNL     1      11.080  10.614  -6.001  0.00  0.00    -0.270 OA
ATOM     22  N   UNL     1      12.367  10.792  -4.197  0.00  0.00    -0.325 N 
ATOM     23  H   UNL     1      12.707  11.346  -3.477  0.00  0.00    +0.145 HD
ATOM     24  H   UNL     1      12.645   9.865  -4.269  0.00  0.00    +0.145 HD
ENDBRANCH  12  20
ENDBRANCH   9  11
ENDBRANCH   4   7
BRANCH   1  25
ATOM     25  O   UNL     1       4.581   9.477   0.011  0.00  0.00    -0.480 OA
BRANCH  25  27
ATOM     26  C   UNL     1       2.361  10.426  -0.093  0.00  0.00    +0.062 C 
ATOM     27  C   UNL     1       3.572  10.120   0.791  0.00  0.00    +0.257 C 
BRANCH  27  28
ATOM     28  C   UNL     1       3.153   9.212   1.918  0.00  0.00    +0.273 C 
ATOM     29  O   UNL     1       3.669   8.121   2.042  0.00  0.00    -0.270 OA
ATOM     30  N   UNL     1       2.206   9.613   2.790  0.00  0.00    -0.204 N 
ATOM     31  H   UNL     1       1.794  10.485   2.691  0.00  0.00    +0.177 HD
BRANCH  30  32
ATOM     32  N   UNL     1       1.817   8.768   3.838  0.00  0.00    -0.188 NA
ATOM     33  C   UNL     1       0.905   9.154   4.677  0.00  0.00    +0.141 C 
BRANCH  33  34
ATOM     34  C   UNL     1       0.496   8.265   5.780  0.00  0.00    +0.030 A 
ATOM     35  C   UNL     1      -0.485   8.676   6.686  0.00  0.00    +0.012 A 
ATOM     36  C   UNL     1      -0.864   7.840   7.715  0.00  0.00    +0.001 A 
ATOM     37  C   UNL     1      -0.270   6.598   7.857  0.00  0.00    +0.003 A 
ATOM     38  C   UNL     1       0.698   6.179   6.962  0.00  0.00    +0.039 A 
ATOM     39  C   UNL     1       1.088   7.006   5.926  0.00  0.00    +0.132 A 
ATOM     40  F   UNL     1       2.038   6.599   5.056  0.00  0.00    -0.205 F 
ENDBRANCH  33  34
ENDBRANCH  30  32
ENDBRANCH  27  28
ENDBRANCH  25  27
ENDBRANCH   1  25
TORSDOF 8
