REMARK  Name = ZINC48548150
REMARK  6 active torsions:
REMARK  status: ('A' for Active; 'I' for Inactive)
REMARK    1  A    between atoms: C_5  and  C_7
REMARK    2  A    between atoms: C_9  and  N_15
REMARK    3  A    between atoms: C_10  and  O_14
REMARK    4  A    between atoms: N_15  and  N_16
REMARK    5  A    between atoms: N_16  and  S_17
REMARK    6  A    between atoms: S_17  and  C_20
REMARK                            x       y       z     vdW  Elec       q    Type
REMARK                         _______ _______ _______ _____ _____    ______ ____
ROOT
ATOM      1  C   UNL     1       1.229  -2.186  -0.022  0.00  0.00    +0.256 C 
ATOM      2  C   UNL     1       1.354  -2.711   1.389  0.00  0.00    +0.112 C 
ATOM      3  C   UNL     1       0.255  -3.451   1.626  0.00  0.00    +0.201 C 
ATOM      4  C   UNL     1      -0.590  -3.438   0.432  0.00  0.00    +0.253 C 
ATOM      5  N   UNL     1      -1.735  -4.056   0.316  0.00  0.00    -0.264 NA
ATOM      6  O   UNL     1      -0.009  -2.691  -0.533  0.00  0.00    -0.460 OA
ATOM      7  H   UNL     1      -2.237  -3.997  -0.512  0.00  0.00    +0.190 HD
ENDROOT
BRANCH   1  12
ATOM      8  C   UNL     1      -0.017   1.378   0.010  0.00  0.00    +0.000 A 
ATOM      9  C   UNL     1       1.171   2.086   0.002  0.00  0.00    +0.001 A 
ATOM     10  C   UNL     1       2.377   1.412  -0.013  0.00  0.00    +0.020 A 
ATOM     11  C   UNL     1       2.397   0.029  -0.021  0.00  0.00    +0.048 A 
ATOM     12  C   UNL     1       1.208  -0.679  -0.013  0.00  0.00    +0.017 A 
ATOM     13  C   UNL     1       0.002  -0.004   0.002  0.00  0.00    +0.009 A 
ATOM     14 CL   UNL     1       3.912  -0.818  -0.041  0.00  0.00    -0.083 Cl
ENDBRANCH   1  12
BRANCH   3  15
ATOM     15  O   UNL     1      -0.024  -4.107   2.788  0.00  0.00    -0.501 OA
ATOM     16  H   UNL     1      -0.862  -4.590   2.776  0.00  0.00    +0.292 HD
ENDBRANCH   3  15
BRANCH   2  17
ATOM     17  N   UNL     1       2.394  -2.477   2.265  0.00  0.00    -0.259 N 
ATOM     18  H   UNL     1       3.143  -1.925   1.992  0.00  0.00    +0.168 HD
BRANCH  17  19
ATOM     19  N   UNL     1       2.367  -3.037   3.549  0.00  0.00    -0.110 NA
ATOM     20  H   UNL     1       1.608  -2.877   4.132  0.00  0.00    +0.172 HD
BRANCH  19  21
ATOM     21  S   UNL     1       3.631  -3.970   4.072  0.00  0.00    +0.073 S 
ATOM     22  O   UNL     1       3.381  -4.264   5.439  0.00  0.00    -0.152 OA
ATOM     23  O   UNL     1       3.817  -4.986   3.095  0.00  0.00    -0.152 OA
BRANCH  21  24
ATOM     24  C   UNL     1       5.076  -2.962   4.030  0.00  0.00    +0.107 A 
ATOM     25  C   UNL     1       5.848  -2.909   2.885  0.00  0.00    +0.030 A 
ATOM     26  C   UNL     1       6.982  -2.118   2.852  0.00  0.00    +0.022 A 
ATOM     27  C   UNL     1       7.342  -1.379   3.964  0.00  0.00    +0.041 A 
ATOM     28  C   UNL     1       6.568  -1.433   5.110  0.00  0.00    +0.022 A 
ATOM     29  C   UNL     1       5.432  -2.219   5.140  0.00  0.00    +0.030 A 
ATOM     30 CL   UNL     1       8.765  -0.386   3.924  0.00  0.00    -0.084 Cl
ENDBRANCH  21  24
ENDBRANCH  19  21
ENDBRANCH  17  19
ENDBRANCH   2  17
TORSDOF 6
