REMARK  Name = ZINC35723106
REMARK  6 active torsions:
REMARK  status: ('A' for Active; 'I' for Inactive)
REMARK    1  A    between atoms: C_1  and  C_2
REMARK    2  A    between atoms: N_5  and  C_8
REMARK    3  A    between atoms: C_11  and  N_20
REMARK    4  A    between atoms: C_13  and  C_14
REMARK    5  A    between atoms: N_16  and  C_17
REMARK    6  A    between atoms: N_23  and  C_24
REMARK                            x       y       z     vdW  Elec       q    Type
REMARK                         _______ _______ _______ _____ _____    ______ ____
ROOT
ATOM      1  C   UNL     1      -0.502  -3.673   2.181  0.00  0.00    +0.042 A 
ATOM      2  C   UNL     1      -0.269  -5.036   2.046  0.00  0.00    +0.026 A 
ATOM      3  C   UNL     1      -0.911  -5.934   2.873  0.00  0.00    +0.025 A 
ATOM      4  C   UNL     1      -1.796  -5.484   3.848  0.00  0.00    +0.036 A 
ATOM      5  C   UNL     1      -2.039  -4.131   3.995  0.00  0.00    +0.038 A 
ATOM      6  C   UNL     1      -1.389  -3.213   3.166  0.00  0.00    +0.059 A 
ENDROOT
BRANCH   1  11
ATOM      7  C   UNL     1       2.966  -2.071  -1.761  0.00  0.00    +0.007 C 
ATOM      8  C   UNL     1       1.911  -1.870  -0.672  0.00  0.00    -0.011 C 
ATOM      9  C   UNL     1       2.455  -2.376   0.666  0.00  0.00    +0.022 C 
ATOM     10  C   UNL     1       1.409  -2.142   1.760  0.00  0.00    +0.105 C 
ATOM     11  N   UNL     1       0.145  -2.768   1.347  0.00  0.00    -0.329 N 
ATOM     12  C   UNL     1      -0.421  -2.421   0.037  0.00  0.00    +0.105 C 
ATOM     13  C   UNL     1       0.646  -2.651  -1.038  0.00  0.00    +0.022 C 
ENDBRANCH   1  11
BRANCH   4  14
ATOM     14  N   UNL     1      -2.443  -6.406   4.682  0.00  0.00    -0.269 N 
ATOM     15  C   UNL     1      -2.833  -7.600   4.194  0.00  0.00    +0.308 C 
ATOM     16  O   UNL     1      -2.707  -7.842   3.009  0.00  0.00    -0.252 OA
ATOM     17  N   UNL     1      -3.361  -8.526   5.019  0.00  0.00    -0.267 N 
ATOM     18  H   UNL     1      -2.611  -6.184   5.612  0.00  0.00    +0.156 HD
ATOM     19  H   UNL     1      -3.532  -8.306   5.948  0.00  0.00    +0.156 HD
BRANCH  17  20
ATOM     20  C   UNL     1      -3.665  -9.805   4.533  0.00  0.00    +0.070 A 
ATOM     21  C   UNL     1      -2.950 -10.331   3.466  0.00  0.00    +0.029 A 
ATOM     22  C   UNL     1      -3.251 -11.593   2.989  0.00  0.00    +0.040 A 
ATOM     23  C   UNL     1      -4.264 -12.333   3.575  0.00  0.00    +0.126 A 
ATOM     24  C   UNL     1      -4.979 -11.812   4.639  0.00  0.00    +0.078 A 
ATOM     25  C   UNL     1      -4.678 -10.552   5.124  0.00  0.00    +0.147 A 
ATOM     26  F   UNL     1      -5.372 -10.045   6.167  0.00  0.00    -0.203 F 
ATOM     27  F   UNL     1      -4.555 -13.566   3.106  0.00  0.00    -0.205 F 
ENDBRANCH  17  20
ENDBRANCH   4  14
BRANCH   6  28
ATOM     28  C   UNL     1      -1.639  -1.768   3.321  0.00  0.00    +0.246 C 
ATOM     29  O   UNL     1      -1.157  -0.979   2.530  0.00  0.00    -0.270 OA
ATOM     30  N   UNL     1      -2.401  -1.321   4.339  0.00  0.00    -0.308 N 
ATOM     31  H   UNL     1      -2.785  -1.950   4.970  0.00  0.00    +0.149 HD
BRANCH  30  32
ATOM     32  C   UNL     1      -2.648   0.115   4.493  0.00  0.00    +0.073 C 
ATOM     33  C   UNL     1      -2.551   0.701   5.903  0.00  0.00    +0.024 C 
ATOM     34  C   UNL     1      -3.918   0.537   5.236  0.00  0.00    +0.024 C 
ENDBRANCH  30  32
ENDBRANCH   6  28
TORSDOF 5
