REMARK  Name = ZINC36592240
REMARK  21 active torsions:
REMARK  status: ('A' for Active; 'I' for Inactive)
REMARK    1  A    between atoms: C_1  and  C_2
REMARK    2  A    between atoms: C_2  and  C_3
REMARK    3  A    between atoms: C_2  and  C_4
REMARK    4  A    between atoms: C_2  and  C_5
REMARK    5  A    between atoms: C_5  and  C_6
REMARK    6  A    between atoms: C_6  and  C_7
REMARK    7  A    between atoms: C_6  and  C_8
REMARK    8  A    between atoms: C_6  and  N_9
REMARK    9  A    between atoms: C_10  and  C_12
REMARK   10  A    between atoms: C_12  and  C_14
REMARK   11  A    between atoms: C_12  and  N_23
REMARK   12  A    between atoms: C_15  and  O_22
REMARK   13  A    between atoms: C_17  and  O_21
REMARK   14  A    between atoms: C_19  and  O_20
REMARK   15  A    between atoms: N_23  and  C_29
REMARK   16  A    between atoms: C_24  and  C_26
REMARK   17  A    between atoms: C_26  and  O_27
REMARK   18  A    between atoms: O_27  and  C_28
REMARK   19  A    between atoms: C_29  and  C_30
REMARK   20  A    between atoms: C_29  and  C_31
REMARK   21  A    between atoms: C_29  and  C_32
REMARK                            x       y       z     vdW  Elec       q    Type
REMARK                         _______ _______ _______ _____ _____    ______ ____
ROOT
ATOM      1  C   UNL     1       4.239  -1.061  -1.454  0.00  0.00    +0.200 C 
ENDROOT
BRANCH   1   2
ATOM      2  C   UNL     1       3.127  -1.028  -2.470  0.00  0.00    +0.065 A 
ATOM      3  C   UNL     1       2.976   0.075  -3.297  0.00  0.00    +0.129 A 
ATOM      4  C   UNL     1       1.953   0.105  -4.232  0.00  0.00    +0.091 A 
ATOM      5  C   UNL     1       1.082  -0.968  -4.342  0.00  0.00    +0.124 A 
ATOM      6  C   UNL     1       1.234  -2.072  -3.516  0.00  0.00    +0.091 A 
ATOM      7  C   UNL     1       2.260  -2.104  -2.584  0.00  0.00    +0.129 A 
BRANCH   7   8
ATOM      8  O   UNL     1       2.412  -3.187  -1.778  0.00  0.00    -0.506 OA
ATOM      9  H   UNL     1       1.920  -3.132  -0.947  0.00  0.00    +0.292 HD
ENDBRANCH   7   8
BRANCH   5  10
ATOM     10  O   UNL     1       0.079  -0.939  -5.258  0.00  0.00    -0.507 OA
ATOM     11  H   UNL     1       0.322  -1.302  -6.120  0.00  0.00    +0.292 HD
ENDBRANCH   5  10
BRANCH   3  12
ATOM     12  O   UNL     1       3.830   1.127  -3.189  0.00  0.00    -0.506 OA
ATOM     13  H   UNL     1       4.571   1.097  -3.810  0.00  0.00    +0.292 HD
ENDBRANCH   3  12
ENDBRANCH   1   2
BRANCH   1  15
ATOM     14  N   UNL     1       2.770  -0.799   0.519  0.00  0.00    -0.308 N 
ATOM     15  C   UNL     1       3.803  -0.332  -0.209  0.00  0.00    +0.239 C 
ATOM     16  O   UNL     1       4.383   0.676   0.138  0.00  0.00    -0.273 OA
ATOM     17  H   UNL     1       2.306  -1.605   0.241  0.00  0.00    +0.149 HD
BRANCH  14  18
ATOM     18  C   UNL     1       2.346  -0.090   1.729  0.00  0.00    +0.030 C 
ATOM     19  C   UNL     1       2.000   1.358   1.377  0.00  0.00    +0.031 C 
ATOM     20  C   UNL     1       3.481  -0.108   2.754  0.00  0.00    +0.031 C 
BRANCH  18  21
ATOM     21  C   UNL     1       1.114  -0.780   2.319  0.00  0.00    +0.031 C 
BRANCH  21  23
ATOM     22  C   UNL     1       0.371  -2.112   0.340  0.00  0.00    +0.010 C 
ATOM     23  C   UNL     1       0.040  -0.918   1.238  0.00  0.00    -0.036 C 
ATOM     24  C   UNL     1      -0.002   0.358   0.395  0.00  0.00    +0.010 C 
ATOM     25  C   UNL     1      -1.322  -1.139   1.898  0.00  0.00    +0.010 C 
ENDBRANCH  21  23
ENDBRANCH  18  21
ENDBRANCH  14  18
ENDBRANCH   1  15
BRANCH   1  26
ATOM     26  N   UNL     1       5.429  -0.410  -2.009  0.00  0.00    -0.279 N 
ATOM     27  C   UNL     1       5.885  -0.767  -3.226  0.00  0.00    +0.243 C 
ATOM     28  O   UNL     1       5.436  -1.749  -3.779  0.00  0.00    -0.273 OA
BRANCH  26  29
ATOM     29  C   UNL     1       6.122   0.627  -1.242  0.00  0.00    +0.030 C 
ATOM     30  C   UNL     1       6.385   0.122   0.178  0.00  0.00    +0.031 C 
ATOM     31  C   UNL     1       7.453   0.959  -1.920  0.00  0.00    +0.031 C 
ATOM     32  C   UNL     1       5.252   1.885  -1.184  0.00  0.00    +0.031 C 
ENDBRANCH  26  29
BRANCH  27  33
ATOM     33  C   UNL     1       6.953   0.054  -3.901  0.00  0.00    +0.255 C 
BRANCH  33  34
ATOM     34  O   UNL     1       7.263  -0.519  -5.173  0.00  0.00    -0.374 OA
ATOM     35  C   UNL     1       8.271   0.188  -5.899  0.00  0.00    +0.194 C 
ENDBRANCH  33  34
ENDBRANCH  27  33
ENDBRANCH   1  26
TORSDOF 12
