REMARK  Name = ZINC50046575
REMARK  4 active torsions:
REMARK  status: ('A' for Active; 'I' for Inactive)
REMARK    1  A    between atoms: C_4  and  S_8
REMARK    2  A    between atoms: C_5  and  O_7
REMARK    3  A    between atoms: S_8  and  C_9
REMARK    4  A    between atoms: C_9  and  C_10
REMARK                            x       y       z     vdW  Elec       q    Type
REMARK                         _______ _______ _______ _____ _____    ______ ____
ROOT
ATOM      1  C   UNL     1       6.566  -0.092  -0.065  0.00  0.00    +0.059 A 
ATOM      2  C   UNL     1       7.312  -0.072  -1.227  0.00  0.00    +0.094 A 
ATOM      3  C   UNL     1       8.593  -0.637  -1.218  0.00  0.00    +0.259 A 
ATOM      4  O   UNL     1       9.278  -0.635  -2.228  0.00  0.00    -0.267 OA
ATOM      5  N   UNL     1       9.059  -1.183  -0.074  0.00  0.00    -0.267 N 
ATOM      6  C   UNL     1      10.304  -1.736  -0.050  0.00  0.00    +0.111 A 
ATOM      7  C   UNL     1      10.793  -2.289   1.083  0.00  0.00    +0.035 A 
ATOM      8  C   UNL     1      10.018  -2.299   2.253  0.00  0.00    +0.020 A 
ATOM      9  C   UNL     1       8.772  -1.748   2.238  0.00  0.00    +0.048 A 
ATOM     10  C   UNL     1       8.281  -1.177   1.050  0.00  0.00    +0.141 A 
ATOM     11  N   UNL     1       7.065  -0.634   1.035  0.00  0.00    -0.233 NA
ATOM     12 BR   UNL     1      12.523  -3.051   1.092  0.00  0.00    -0.049 Br
ENDROOT
BRANCH   1  13
ATOM     13  C   UNL     1       5.184   0.509  -0.047  0.00  0.00    +0.130 C 
BRANCH  13  14
ATOM     14  S   UNL     1       3.947  -0.818  -0.042  0.00  0.00    -0.115 S 
BRANCH  14  18
ATOM     15  C   UNL     1      -0.017   1.379   0.010  0.00  0.00    +0.004 A 
ATOM     16  C   UNL     1       1.169   2.090   0.002  0.00  0.00    +0.001 A 
ATOM     17  C   UNL     1       2.379   1.423  -0.013  0.00  0.00    +0.018 A 
ATOM     18  C   UNL     1       2.406   0.036  -0.021  0.00  0.00    +0.050 A 
ATOM     19  C   UNL     1       1.210  -0.681  -0.013  0.00  0.00    +0.130 A 
ATOM     20  C   UNL     1       0.002  -0.004   0.002  0.00  0.00    +0.046 A 
BRANCH  19  21
ATOM     21  O   UNL     1       1.230  -2.041  -0.021  0.00  0.00    -0.506 OA
ATOM     22  H   UNL     1       1.245  -2.438   0.861  0.00  0.00    +0.292 HD
ENDBRANCH  19  21
ENDBRANCH  14  18
ENDBRANCH  13  14
ENDBRANCH   1  13
TORSDOF 4
