REMARK  Name = ZINC12895162
REMARK  5 active torsions:
REMARK  status: ('A' for Active; 'I' for Inactive)
REMARK    1  A    between atoms: C_7  and  C_23
REMARK    2  A    between atoms: C_12  and  C_13
REMARK    3  A    between atoms: C_23  and  O_25
REMARK    4  A    between atoms: O_25  and  C_26
REMARK    5  A    between atoms: C_26  and  C_27
REMARK                            x       y       z     vdW  Elec       q    Type
REMARK                         _______ _______ _______ _____ _____    ______ ____
ROOT
ATOM      1  C   UNL     1       6.775  -1.293   0.386  0.00  0.00    +0.001 A 
ATOM      2  C   UNL     1       5.750  -2.233   0.460  0.00  0.00    +0.002 A 
ATOM      3  C   UNL     1       4.444  -1.857   0.396  0.00  0.00    +0.028 A 
ATOM      4  C   UNL     1       4.116  -0.495   0.252  0.00  0.00    +0.072 A 
ATOM      5  C   UNL     1       5.164   0.457   0.178  0.00  0.00    +0.015 A 
ATOM      6  C   UNL     1       6.495   0.035   0.247  0.00  0.00    +0.011 A 
ATOM      7  C   UNL     1       4.814   1.868   0.019  0.00  0.00    +0.073 A 
ATOM      8  C   UNL     1       3.465   2.192  -0.037  0.00  0.00    -0.007 A 
ATOM      9  C   UNL     1       2.497   1.179   0.050  0.00  0.00    +0.072 A 
ATOM     10  N   UNL     1       2.848  -0.097   0.185  0.00  0.00    -0.247 NA
ATOM     11  C   UNL     1       1.144   1.761  -0.037  0.00  0.00    -0.021 C 
ATOM     12  C   UNL     1      -0.013   1.076   0.008  0.00  0.00    +0.018 C 
ATOM     13  C   UNL     1       1.280   3.256  -0.179  0.00  0.00    +0.042 C 
ATOM     14  C   UNL     1       2.789   3.533  -0.178  0.00  0.00    +0.043 C 
ENDROOT
BRANCH  12  15
ATOM     15  C   UNL     1      -1.290   1.772  -0.221  0.00  0.00    +0.029 A 
ATOM     16  C   UNL     1      -1.515   2.454  -1.423  0.00  0.00    +0.132 A 
ATOM     17  C   UNL     1      -2.716   3.104  -1.628  0.00  0.00    +0.039 A 
ATOM     18  C   UNL     1      -3.695   3.082  -0.651  0.00  0.00    +0.004 A 
ATOM     19  C   UNL     1      -3.480   2.410   0.539  0.00  0.00    +0.021 A 
ATOM     20  C   UNL     1      -2.287   1.751   0.759  0.00  0.00    +0.051 A 
ATOM     21 CL   UNL     1      -2.024   0.902   2.251  0.00  0.00    -0.083 Cl
ATOM     22  F   UNL     1      -0.560   2.475  -2.378  0.00  0.00    -0.205 F 
ENDBRANCH  12  15
BRANCH   7  23
ATOM     23  C   UNL     1       5.857   2.912  -0.063  0.00  0.00    +0.341 C 
ATOM     24  O   UNL     1       6.266   3.443   0.950  0.00  0.00    -0.245 OA
BRANCH  23  25
ATOM     25  O   UNL     1       6.353   3.276  -1.261  0.00  0.00    -0.453 OA
BRANCH  25  26
ATOM     26  C   UNL     1       7.375   4.307  -1.266  0.00  0.00    +0.308 C 
BRANCH  26  27
ATOM     27  C   UNL     1       7.807   4.580  -2.684  0.00  0.00    +0.173 A 
ATOM     28  N   UNL     1       8.810   3.899  -3.210  0.00  0.00    -0.196 NA
ATOM     29  C   UNL     1       9.192   4.134  -4.463  0.00  0.00    +0.217 A 
ATOM     30  N   UNL     1       8.568   5.061  -5.183  0.00  0.00    -0.181 NA
ATOM     31  C   UNL     1       7.563   5.746  -4.649  0.00  0.00    +0.217 A 
ATOM     32  N   UNL     1       7.184   5.502  -3.397  0.00  0.00    -0.196 NA
ATOM     33  N   UNL     1       6.912   6.709  -5.393  0.00  0.00    -0.327 N 
ATOM     34  N   UNL     1      10.236   3.419  -5.013  0.00  0.00    -0.327 N 
ATOM     35  H   UNL     1       6.178   7.209  -5.003  0.00  0.00    +0.145 HD
ATOM     36  H   UNL     1       7.188   6.886  -6.306  0.00  0.00    +0.145 HD
ATOM     37  H   UNL     1      10.516   3.593  -5.925  0.00  0.00    +0.145 HD
ATOM     38  H   UNL     1      10.691   2.743  -4.487  0.00  0.00    +0.145 HD
ENDBRANCH  26  27
ENDBRANCH  25  26
ENDBRANCH  23  25
ENDBRANCH   7  23
TORSDOF 5
