REMARK  Name = ZINC58992053
REMARK  13 active torsions:
REMARK  status: ('A' for Active; 'I' for Inactive)
REMARK    1  A    between atoms: C_1  and  C_2
REMARK    2  A    between atoms: C_2  and  O_3
REMARK    3  A    between atoms: O_3  and  C_4
REMARK    4  A    between atoms: C_6  and  C_11
REMARK    5  A    between atoms: C_9  and  O_10
REMARK    6  A    between atoms: N_12  and  N_13
REMARK    7  A    between atoms: C_14  and  C_16
REMARK    8  A    between atoms: C_16  and  C_17
REMARK    9  A    between atoms: C_17  and  C_18
REMARK   10  A    between atoms: C_18  and  S_19
REMARK   11  A    between atoms: S_19  and  C_20
REMARK   12  A    between atoms: C_23  and  C_26
REMARK   13  A    between atoms: N_24  and  N_25
REMARK                            x       y       z     vdW  Elec       q    Type
REMARK                         _______ _______ _______ _____ _____    ______ ____
ROOT
ATOM      1  C   UNL     1      -1.109  -9.359  -2.224  0.00  0.00    +0.098 C 
ENDROOT
BRANCH   1   3
ATOM      2  N   UNL     1      -0.633  -7.097  -1.343  0.00  0.00    -0.207 N 
ATOM      3  C   UNL     1      -0.445  -8.428  -1.242  0.00  0.00    +0.232 C 
ATOM      4  O   UNL     1       0.258  -8.876  -0.362  0.00  0.00    -0.274 OA
ATOM      5  H   UNL     1      -1.196  -6.739  -2.047  0.00  0.00    +0.177 HD
BRANCH   2   7
ATOM      6  C   UNL     1      -0.197  -4.950  -0.528  0.00  0.00    +0.138 C 
ATOM      7  N   UNL     1      -0.016  -6.231  -0.431  0.00  0.00    -0.188 NA
BRANCH   6  10
ATOM      8  C   UNL     1       0.871  -1.809   1.232  0.00  0.00    +0.162 A 
ATOM      9  C   UNL     1       0.259  -2.659   0.329  0.00  0.00    +0.059 A 
ATOM     10  C   UNL     1       0.453  -4.039   0.432  0.00  0.00    -0.002 A 
ATOM     11  C   UNL     1       1.264  -4.553   1.447  0.00  0.00    +0.013 A 
ATOM     12  C   UNL     1       1.870  -3.699   2.344  0.00  0.00    +0.050 A 
ATOM     13  C   UNL     1       1.682  -2.329   2.238  0.00  0.00    +0.158 A 
BRANCH  13  14
ATOM     14  O   UNL     1       2.286  -1.491   3.122  0.00  0.00    -0.503 OA
ATOM     15  H   UNL     1       1.761  -1.307   3.912  0.00  0.00    +0.292 HD
ENDBRANCH  13  14
BRANCH   8  16
ATOM     16  O   UNL     1       0.685  -0.466   1.134  0.00  0.00    -0.489 OA
BRANCH  16  18
ATOM     17  C   UNL     1      -0.248   1.524   0.128  0.00  0.00    +0.048 C 
ATOM     18  C   UNL     1      -0.159  -0.003   0.078  0.00  0.00    +0.226 C 
ENDBRANCH  16  18
ENDBRANCH   8  16
ENDBRANCH   6  10
ENDBRANCH   2   7
ENDBRANCH   1   3
BRANCH   1  19
ATOM     19  C   UNL     1      -0.735 -10.804  -1.889  0.00  0.00    +0.020 C 
BRANCH  19  20
ATOM     20  C   UNL     1      -1.409 -11.750  -2.885  0.00  0.00    +0.078 C 
BRANCH  20  21
ATOM     21  S   UNL     1      -0.965 -13.463  -2.488  0.00  0.00    -0.084 S 
BRANCH  21  22
ATOM     22  C   UNL     1      -1.808 -14.416  -3.707  0.00  0.00    +0.209 A 
ATOM     23  N   UNL     1      -2.570 -13.949  -4.672  0.00  0.00    -0.121 NA
ATOM     24  N   UNL     1      -3.027 -14.918  -5.381  0.00  0.00    -0.127 NA
ATOM     25  C   UNL     1      -2.586 -16.063  -4.913  0.00  0.00    +0.183 A 
ATOM     26  N   UNL     1      -1.787 -15.776  -3.830  0.00  0.00    -0.224 N 
BRANCH  25  27
ATOM     27  C   UNL     1      -2.887 -17.406  -5.451  0.00  0.00    +0.035 A 
ATOM     28  C   UNL     1      -3.278 -18.434  -4.592  0.00  0.00    +0.013 A 
ATOM     29  C   UNL     1      -3.558 -19.686  -5.101  0.00  0.00    +0.001 A 
ATOM     30  C   UNL     1      -3.451 -19.924  -6.460  0.00  0.00    +0.001 A 
ATOM     31  C   UNL     1      -3.063 -18.910  -7.317  0.00  0.00    +0.016 A 
ATOM     32  C   UNL     1      -2.786 -17.651  -6.822  0.00  0.00    +0.029 A 
ATOM     33 BR   UNL     1      -2.263 -16.265  -7.997  0.00  0.00    -0.050 Br
ENDBRANCH  25  27
BRANCH  26  34
ATOM     34  N   UNL     1      -1.115 -16.666  -3.041  0.00  0.00    -0.295 N 
ATOM     35  H   UNL     1      -1.714 -17.028  -2.315  0.00  0.00    +0.163 HD
ATOM     36  H   UNL     1      -0.722 -17.413  -3.593  0.00  0.00    +0.163 HD
ENDBRANCH  26  34
ENDBRANCH  21  22
ENDBRANCH  20  21
ENDBRANCH  19  20
ENDBRANCH   1  19
TORSDOF 12
