REMARK  Name = ZINC54392537
REMARK  3 active torsions:
REMARK  status: ('A' for Active; 'I' for Inactive)
REMARK    1  A    between atoms: C_3  and  N_18
REMARK    2  A    between atoms: C_6  and  N_7
REMARK    3  A    between atoms: N_10  and  C_11
REMARK                            x       y       z     vdW  Elec       q    Type
REMARK                         _______ _______ _______ _____ _____    ______ ____
ROOT
ATOM      1  C   UNL     1       0.183   1.308   0.133  0.00  0.00    +0.025 A 
ATOM      2  C   UNL     1       1.441   1.859   0.270  0.00  0.00    +0.025 A 
ATOM      3  C   UNL     1       2.559   1.036   0.311  0.00  0.00    +0.038 A 
ATOM      4  C   UNL     1       2.410  -0.341   0.214  0.00  0.00    +0.025 A 
ATOM      5  C   UNL     1       1.152  -0.892   0.076  0.00  0.00    +0.025 A 
ATOM      6  C   UNL     1       0.035  -0.069   0.036  0.00  0.00    +0.035 A 
ENDROOT
BRANCH   3   7
ATOM      7  N   UNL     1       3.836   1.595   0.451  0.00  0.00    -0.254 N 
ATOM      8  C   UNL     1       5.085   0.837   0.614  0.00  0.00    +0.134 C 
ATOM      9  C   UNL     1       6.168   1.928   0.720  0.00  0.00    +0.125 C 
ATOM     10  N   UNL     1       5.415   3.185   0.605  0.00  0.00    -0.297 N 
ATOM     11  C   UNL     1       4.114   2.906   0.451  0.00  0.00    +0.307 C 
ATOM     12  O   UNL     1       3.261   3.764   0.327  0.00  0.00    -0.252 OA
ATOM     13  H   UNL     1       5.799   4.075   0.632  0.00  0.00    +0.150 HD
ENDBRANCH   3   7
BRANCH   6  14
ATOM     14  N   UNL     1      -1.243  -0.628  -0.103  0.00  0.00    -0.269 N 
ATOM     15  C   UNL     1      -2.190   0.022  -0.809  0.00  0.00    +0.308 C 
ATOM     16  O   UNL     1      -1.909   1.043  -1.407  0.00  0.00    -0.252 OA
ATOM     17  N   UNL     1      -3.448  -0.460  -0.851  0.00  0.00    -0.269 N 
ATOM     18  H   UNL     1      -1.445  -1.483   0.308  0.00  0.00    +0.156 HD
ATOM     19  H   UNL     1      -3.657  -1.308  -0.430  0.00  0.00    +0.156 HD
BRANCH  17  20
ATOM     20  C   UNL     1      -4.453   0.264  -1.504  0.00  0.00    +0.035 A 
ATOM     21  C   UNL     1      -4.155   0.990  -2.649  0.00  0.00    +0.025 A 
ATOM     22  C   UNL     1      -5.149   1.703  -3.291  0.00  0.00    +0.022 A 
ATOM     23  C   UNL     1      -6.439   1.695  -2.793  0.00  0.00    +0.041 A 
ATOM     24  C   UNL     1      -6.739   0.973  -1.651  0.00  0.00    +0.022 A 
ATOM     25  C   UNL     1      -5.750   0.253  -1.009  0.00  0.00    +0.025 A 
ATOM     26 CL   UNL     1      -7.686   2.594  -3.601  0.00  0.00    -0.084 Cl
ENDBRANCH  17  20
ENDBRANCH   6  14
TORSDOF 3
