REMARK  Name = ZINC03359232
REMARK  4 active torsions:
REMARK  status: ('A' for Active; 'I' for Inactive)
REMARK    1  A    between atoms: C_3  and  S_15
REMARK    2  A    between atoms: C_6  and  N_7
REMARK    3  A    between atoms: C_8  and  N_14
REMARK    4  A    between atoms: C_9  and  C_12
REMARK                            x       y       z     vdW  Elec       q    Type
REMARK                         _______ _______ _______ _____ _____    ______ ____
ROOT
ATOM      1  C   UNL     1      -2.560   1.408   3.119  0.00  0.00    +0.030 A 
ATOM      2  C   UNL     1      -1.846   1.032   1.999  0.00  0.00    +0.031 A 
ATOM      3  C   UNL     1      -0.927   1.900   1.439  0.00  0.00    +0.120 A 
ATOM      4  C   UNL     1      -0.716   3.145   2.003  0.00  0.00    +0.031 A 
ATOM      5  C   UNL     1      -1.431   3.529   3.120  0.00  0.00    +0.030 A 
ATOM      6  C   UNL     1      -2.355   2.659   3.684  0.00  0.00    +0.068 A 
ENDROOT
BRANCH   6   7
ATOM      7  N   UNL     1      -3.078   3.044   4.821  0.00  0.00    -0.218 N 
ATOM      8  C   UNL     1      -2.613   3.814   5.831  0.00  0.00    +0.137 A 
ATOM      9  C   UNL     1      -3.649   3.951   6.751  0.00  0.00    +0.111 A 
ATOM     10  C   UNL     1      -4.753   3.227   6.243  0.00  0.00    +0.155 A 
ATOM     11  N   UNL     1      -4.405   2.700   5.102  0.00  0.00    -0.172 NA
BRANCH   8  12
ATOM     12  N   UNL     1      -1.349   4.362   5.931  0.00  0.00    -0.342 N 
ATOM     13  H   UNL     1      -0.696   4.204   5.231  0.00  0.00    +0.144 HD
ATOM     14  H   UNL     1      -1.114   4.903   6.701  0.00  0.00    +0.144 HD
ENDBRANCH   8  12
BRANCH   9  15
ATOM     15  C   UNL     1      -3.606   4.686   7.979  0.00  0.00    +0.104 C 
ATOM     16  N   UNL     1      -3.571   5.269   8.954  0.00  0.00    -0.191 NA
ENDBRANCH   9  15
ENDBRANCH   6   7
BRANCH   3  17
ATOM     17  S   UNL     1      -0.017   1.417   0.010  0.00  0.00    +0.140 S 
ATOM     18  O   UNL     1       0.002  -0.004   0.002  0.00  0.00    -0.140 OA
ATOM     19  O   UNL     1       1.172   2.195   0.003  0.00  0.00    -0.140 OA
ATOM     20  O   UNL     1      -0.826   1.847  -1.205  0.00  0.00    -0.043 OA
ENDBRANCH   3  17
TORSDOF 4
