REMARK  Name = ZINC04236621
REMARK  16 active torsions:
REMARK  status: ('A' for Active; 'I' for Inactive)
REMARK    1  A    between atoms: C_1  and  C_2
REMARK    2  A    between atoms: C_2  and  C_3
REMARK    3  A    between atoms: C_2  and  N_4
REMARK    4  A    between atoms: C_5  and  O_7
REMARK    5  A    between atoms: O_7  and  C_8
REMARK    6  A    between atoms: C_12  and  C_39
REMARK    7  A    between atoms: C_15  and  C_16
REMARK    8  A    between atoms: C_15  and  C_17
REMARK    9  A    between atoms: C_17  and  O_18
REMARK   10  A    between atoms: C_21  and  O_38
REMARK   11  A    between atoms: C_23  and  C_25
REMARK   12  A    between atoms: C_25  and  C_26
REMARK   13  A    between atoms: N_28  and  C_29
REMARK   14  A    between atoms: C_29  and  C_30
REMARK   15  A    between atoms: C_35  and  O_36
REMARK   16  A    between atoms: O_36  and  C_37
REMARK                            x       y       z     vdW  Elec       q    Type
REMARK                         _______ _______ _______ _____ _____    ______ ____
ROOT
ATOM      1  C   UNL     1      -1.665  -0.677   2.239  0.00  0.00    +0.186 C 
ATOM      2  C   UNL     1      -2.097   0.171   1.041  0.00  0.00    +0.046 C 
ATOM      3  C   UNL     1      -1.732   1.635   1.294  0.00  0.00    +0.011 C 
ATOM      4  C   UNL     1      -0.219   1.758   1.487  0.00  0.00    -0.023 C 
ATOM      5  C   UNL     1       0.213   0.910   2.685  0.00  0.00    +0.007 C 
ATOM      6  C   UNL     1      -0.152  -0.554   2.432  0.00  0.00    +0.031 C 
ATOM      7  C   UNL     1       0.280  -1.402   3.630  0.00  0.00    +0.017 C 
ATOM      8  C   UNL     1       1.726   1.032   2.878  0.00  0.00    +0.007 C 
ATOM      9  C   UNL     1       2.090   2.497   3.131  0.00  0.00    +0.032 C 
ATOM     10  C   UNL     1       1.658   3.345   1.933  0.00  0.00    +0.119 C 
ATOM     11  C   UNL     1       0.145   3.222   1.740  0.00  0.00    +0.032 C 
ATOM     12  C   UNL     1       0.497   1.264   0.228  0.00  0.00    +0.012 C 
ENDROOT
BRANCH  10  13
ATOM     13  O   UNL     1       2.327   2.884   0.757  0.00  0.00    -0.391 OA
ATOM     14  H   UNL     1       3.292   2.933   0.809  0.00  0.00    +0.210 HD
ENDBRANCH  10  13
BRANCH   1  15
ATOM     15  O   UNL     1      -2.010  -2.067   1.998  0.00  0.00    -0.446 OA
BRANCH  15  17
ATOM     16  N   UNL     1      -3.610  -3.751   2.216  0.00  0.00    -0.279 N 
ATOM     17  C   UNL     1      -3.226  -2.474   2.409  0.00  0.00    +0.401 C 
ATOM     18  O   UNL     1      -3.978  -1.689   2.954  0.00  0.00    -0.226 OA
ATOM     19  H   UNL     1      -3.010  -4.378   1.782  0.00  0.00    +0.152 HD
BRANCH  16  21
ATOM     20  C   UNL     1      -5.969  -3.874   1.584  0.00  0.00    +0.027 C 
ATOM     21  C   UNL     1      -4.933  -4.194   2.663  0.00  0.00    +0.070 C 
ATOM     22  C   UNL     1      -4.908  -5.703   2.914  0.00  0.00    +0.027 C 
ENDBRANCH  16  21
ENDBRANCH  15  17
ENDBRANCH   1  15
BRANCH   6  23
ATOM     23  C   UNL     1       0.565  -1.048   1.173  0.00  0.00    +0.166 C 
BRANCH  23  24
ATOM     24  O   UNL     1       0.383  -2.459   1.044  0.00  0.00    -0.394 OA
ATOM     25  H   UNL     1       0.812  -2.842   0.266  0.00  0.00    +0.209 HD
ENDBRANCH  23  24
ENDBRANCH   6  23
BRANCH  11  26
ATOM     26  C   UNL     1      -0.287   4.070   0.542  0.00  0.00    +0.102 C 
BRANCH  26  27
ATOM     27  C   UNL     1      -0.040   5.526   0.842  0.00  0.00    +0.214 C 
ATOM     28  O   UNL     1       0.435   5.853   1.909  0.00  0.00    -0.276 OA
ATOM     29  N   UNL     1      -0.347   6.464  -0.075  0.00  0.00    -0.311 N 
ATOM     30  H   UNL     1      -0.726   6.202  -0.928  0.00  0.00    +0.149 HD
BRANCH  29  31
ATOM     31  C   UNL     1      -0.107   7.880   0.216  0.00  0.00    +0.143 C 
BRANCH  31  32
ATOM     32  C   UNL     1      -0.532   8.715  -0.964  0.00  0.00    +0.011 A 
ATOM     33  C   UNL     1       0.413   9.185  -1.855  0.00  0.00    +0.009 A 
ATOM     34  C   UNL     1       0.023   9.947  -2.940  0.00  0.00    +0.001 A 
ATOM     35  C   UNL     1      -1.313  10.250  -3.131  0.00  0.00    +0.004 A 
ATOM     36  C   UNL     1      -2.261   9.787  -2.240  0.00  0.00    +0.046 A 
ATOM     37  C   UNL     1      -1.873   9.017  -1.153  0.00  0.00    +0.125 A 
BRANCH  37  38
ATOM     38  O   UNL     1      -2.804   8.560  -0.275  0.00  0.00    -0.495 OA
ATOM     39  C   UNL     1      -4.165   8.910  -0.532  0.00  0.00    +0.277 C 
ENDBRANCH  37  38
ENDBRANCH  31  32
ENDBRANCH  29  31
ENDBRANCH  26  27
ENDBRANCH  11  26
TORSDOF 11
