REMARK  Name = ZINC33957368
REMARK  2 active torsions:
REMARK  status: ('A' for Active; 'I' for Inactive)
REMARK    1  A    between atoms: N_8  and  N_9
REMARK    2  A    between atoms: N_23  and  N_24
REMARK                            x       y       z     vdW  Elec       q    Type
REMARK                         _______ _______ _______ _____ _____    ______ ____
ROOT
ATOM      1  C   UNL     1      -0.019   1.557   0.011  0.00  0.00    +0.009 C 
ATOM      2  C   UNL     1       1.530   1.756  -0.003  0.00  0.00    +0.002 C 
ATOM      3  C   UNL     1       1.965   0.858  -1.210  0.00  0.00    +0.002 C 
ATOM      4  C   UNL     1       3.314   0.270  -0.754  0.00  0.00    +0.057 C 
ATOM      5  C   UNL     1       3.322   0.307   0.759  0.00  0.00    +0.041 C 
ATOM      6  N   UNL     1       4.283  -0.049   1.526  0.00  0.00    -0.188 NA
ATOM      7  C   UNL     1       1.967   0.867   1.207  0.00  0.00    +0.047 C 
ATOM      8  C   UNL     1       0.976  -0.337   1.175  0.00  0.00    +0.047 C 
ATOM      9  C   UNL     1       0.002  -0.004   0.002  0.00  0.00    +0.002 C 
ATOM     10  C   UNL     1       0.911  -0.274  -1.266  0.00  0.00    +0.002 C 
ATOM     11  C   UNL     1       1.586  -1.603  -0.867  0.00  0.00    +0.057 C 
ATOM     12  C   UNL     1       1.813  -1.520   0.708  0.00  0.00    +0.041 C 
ATOM     13  N   UNL     1       2.535  -2.277   1.446  0.00  0.00    -0.188 NA
ENDROOT
BRANCH   6  14
ATOM     14  N   UNL     1       5.477  -0.533   0.974  0.00  0.00    -0.191 N 
ATOM     15  C   UNL     1       6.489  -0.909   1.781  0.00  0.00    +0.317 C 
ATOM     16  O   UNL     1       7.525  -1.328   1.302  0.00  0.00    -0.251 OA
ATOM     17  N   UNL     1       6.353  -0.819   3.119  0.00  0.00    -0.312 N 
ATOM     18  H   UNL     1       5.575  -0.598   0.011  0.00  0.00    +0.179 HD
ATOM     19  H   UNL     1       5.526  -0.484   3.501  0.00  0.00    +0.147 HD
ATOM     20  H   UNL     1       7.081  -1.089   3.700  0.00  0.00    +0.147 HD
ENDBRANCH   6  14
BRANCH  13  21
ATOM     21  N   UNL     1       2.604  -2.049   2.827  0.00  0.00    -0.191 N 
ATOM     22  C   UNL     1       3.363  -2.846   3.604  0.00  0.00    +0.317 C 
ATOM     23  O   UNL     1       3.423  -2.648   4.802  0.00  0.00    -0.251 OA
ATOM     24  N   UNL     1       4.056  -3.863   3.053  0.00  0.00    -0.312 N 
ATOM     25  H   UNL     1       2.105  -1.318   3.223  0.00  0.00    +0.179 HD
ATOM     26  H   UNL     1       4.008  -4.021   2.098  0.00  0.00    +0.147 HD
ATOM     27  H   UNL     1       4.603  -4.436   3.613  0.00  0.00    +0.147 HD
ENDBRANCH  13  21
TORSDOF 2
