REMARK  Name = ZINC18055232
REMARK  5 active torsions:
REMARK  status: ('A' for Active; 'I' for Inactive)
REMARK    1  A    between atoms: C_4  and  O_27
REMARK    2  A    between atoms: C_5  and  C_7
REMARK    3  A    between atoms: N_9  and  N_10
REMARK    4  A    between atoms: C_11  and  C_13
REMARK    5  A    between atoms: C_13  and  C_14
REMARK                            x       y       z     vdW  Elec       q    Type
REMARK                         _______ _______ _______ _____ _____    ______ ____
ROOT
ATOM      1  N   UNL     1       2.366   1.218  -0.014  0.00  0.00    -0.234 N 
ATOM      2  C   UNL     1       3.524   1.907  -0.021  0.00  0.00    +0.230 C 
ATOM      3  O   UNL     1       3.508   3.120  -0.015  0.00  0.00    -0.274 OA
ATOM      4  H   UNL     1       2.381   0.118  -0.020  0.00  0.00    +0.173 HD
ENDROOT
BRANCH   1   7
ATOM      5  C   UNL     1      -0.014   1.212   0.009  0.00  0.00    +0.264 C 
ATOM      6  O   UNL     1       0.002  -0.004   0.002  0.00  0.00    -0.269 OA
ATOM      7  N   UNL     1       1.143   1.901   0.001  0.00  0.00    -0.230 N 
ATOM      8  H   UNL     1       1.129   3.001   0.007  0.00  0.00    +0.173 HD
BRANCH   5  13
ATOM      9  C   UNL     1      -2.531   3.995   0.037  0.00  0.00    +0.001 A 
ATOM     10  C   UNL     1      -3.722   3.287   0.038  0.00  0.00    +0.004 A 
ATOM     11  C   UNL     1      -3.713   1.906   0.030  0.00  0.00    +0.046 A 
ATOM     12  C   UNL     1      -2.508   1.219   0.021  0.00  0.00    +0.129 A 
ATOM     13  C   UNL     1      -1.302   1.932   0.019  0.00  0.00    +0.079 A 
ATOM     14  C   UNL     1      -1.326   3.329   0.032  0.00  0.00    +0.017 A 
BRANCH  12  15
ATOM     15  O   UNL     1      -2.498  -0.138   0.014  0.00  0.00    -0.506 OA
ATOM     16  H   UNL     1      -1.541  -0.680   0.006  0.00  0.00    +0.292 HD
ENDBRANCH  12  15
ENDBRANCH   5  13
ENDBRANCH   1   7
BRANCH   2  17
ATOM     17  C   UNL     1       4.839   1.171  -0.038  0.00  0.00    +0.104 C 
BRANCH  17  18
ATOM     18  C   UNL     1       5.988   2.182  -0.043  0.00  0.00    -0.019 C 
ATOM     19  C   UNL     1       5.883   3.067  -1.287  0.00  0.00    +0.011 C 
ATOM     20  C   UNL     1       7.033   4.077  -1.292  0.00  0.00    -0.009 C 
ATOM     21  C   UNL     1       6.952   4.948  -0.038  0.00  0.00    +0.007 C 
ATOM     22  C   UNL     1       7.057   4.063   1.206  0.00  0.00    -0.009 C 
ATOM     23  C   UNL     1       5.907   3.053   1.211  0.00  0.00    +0.011 C 
ATOM     24  C   UNL     1       8.392   3.316   1.189  0.00  0.00    +0.021 C 
ATOM     25  C   UNL     1       8.473   2.445  -0.066  0.00  0.00    +0.027 C 
ATOM     26  C   UNL     1       8.368   3.330  -1.309  0.00  0.00    +0.021 C 
ATOM     27  C   UNL     1       7.324   1.435  -0.060  0.00  0.00    +0.025 C 
ATOM     28 BR   UNL     1      10.189   1.485  -0.087  0.00  0.00    -0.084 Br
ENDBRANCH  17  18
ENDBRANCH   2  17
TORSDOF 5
