REMARK  Name = ZINC09244686
REMARK  3 active torsions:
REMARK  status: ('A' for Active; 'I' for Inactive)
REMARK    1  A    between atoms: C_10  and  C_18
REMARK    2  A    between atoms: C_12  and  C_16
REMARK    3  A    between atoms: C_13  and  N_15
REMARK                            x       y       z     vdW  Elec       q    Type
REMARK                         _______ _______ _______ _____ _____    ______ ____
ROOT
ATOM      1  C   UNL     1      -0.017   1.372   0.010  0.00  0.00    +0.002 A 
ATOM      2  C   UNL     1       1.170   2.091   0.002  0.00  0.00    +0.002 A 
ATOM      3  C   UNL     1       2.384   1.437  -0.014  0.00  0.00    +0.028 A 
ATOM      4  C   UNL     1       2.424   0.051  -0.022  0.00  0.00    +0.071 A 
ATOM      5  C   UNL     1       1.223  -0.683  -0.013  0.00  0.00    +0.091 A 
ATOM      6  C   UNL     1       0.002  -0.004   0.002  0.00  0.00    +0.030 A 
ATOM      7  N   UNL     1       1.556  -2.002  -0.022  0.00  0.00    -0.214 NA
ATOM      8  C   UNL     1       2.852  -2.125  -0.035  0.00  0.00    +0.203 A 
ATOM      9  N   UNL     1       3.437  -0.882  -0.039  0.00  0.00    -0.299 N 
ATOM     10  C   UNL     1       4.883  -0.670  -0.062  0.00  0.00    +0.164 C 
ATOM     11  C   UNL     1       5.589  -1.967   0.227  0.00  0.00    +0.092 C 
ATOM     12  C   UNL     1       4.960  -3.167   0.221  0.00  0.00    +0.104 C 
ATOM     13  N   UNL     1       3.611  -3.287  -0.042  0.00  0.00    -0.273 N 
ATOM     14  H   UNL     1       3.208  -4.150  -0.225  0.00  0.00    +0.156 HD
ENDROOT
BRANCH  10  15
ATOM     15  C   UNL     1       5.295  -0.168  -1.422  0.00  0.00    -0.019 A 
ATOM     16  C   UNL     1       5.046  -0.934  -2.545  0.00  0.00    +0.009 A 
ATOM     17  C   UNL     1       5.423  -0.475  -3.793  0.00  0.00    +0.039 A 
ATOM     18  C   UNL     1       6.050   0.753  -3.918  0.00  0.00    +0.123 A 
ATOM     19  C   UNL     1       6.298   1.520  -2.792  0.00  0.00    +0.039 A 
ATOM     20  C   UNL     1       5.916   1.061  -1.546  0.00  0.00    +0.009 A 
ATOM     21  F   UNL     1       6.419   1.203  -5.137  0.00  0.00    -0.205 F 
ENDBRANCH  10  15
BRANCH  12  22
ATOM     22  N   UNL     1       5.689  -4.302   0.486  0.00  0.00    -0.345 N 
ATOM     23  H   UNL     1       6.638  -4.235   0.673  0.00  0.00    +0.144 HD
ATOM     24  H   UNL     1       5.254  -5.169   0.485  0.00  0.00    +0.144 HD
ENDBRANCH  12  22
BRANCH  11  25
ATOM     25  C   UNL     1       6.990  -1.932   0.522  0.00  0.00    +0.100 C 
ATOM     26  N   UNL     1       8.101  -1.904   0.756  0.00  0.00    -0.191 NA
ENDBRANCH  11  25
TORSDOF 3
