REMARK  Name = ZINC49201595
REMARK  12 active torsions:
REMARK  status: ('A' for Active; 'I' for Inactive)
REMARK    1  A    between atoms: C_1  and  C_2
REMARK    2  A    between atoms: C_2  and  C_3
REMARK    3  A    between atoms: C_2  and  C_4
REMARK    4  A    between atoms: C_7  and  C_10
REMARK    5  A    between atoms: C_10  and  C_12
REMARK    6  A    between atoms: C_10  and  N_15
REMARK    7  A    between atoms: C_12  and  C_13
REMARK    8  A    between atoms: C_12  and  C_14
REMARK    9  A    between atoms: C_16  and  C_18
REMARK   10  A    between atoms: N_20  and  C_21
REMARK   11  A    between atoms: C_24  and  C_27
REMARK   12  A    between atoms: C_27  and  C_28
REMARK                            x       y       z     vdW  Elec       q    Type
REMARK                         _______ _______ _______ _____ _____    ______ ____
ROOT
ATOM      1  N   UNL     1      -5.972  -1.952  -1.312  0.00  0.00    -0.301 N 
ATOM      2  C   UNL     1      -7.306  -1.875  -1.494  0.00  0.00    +0.300 C 
ATOM      3  O   UNL     1      -8.049  -1.861  -0.534  0.00  0.00    -0.265 OA
ATOM      4  H   UNL     1      -5.378  -1.963  -2.079  0.00  0.00    +0.150 HD
ENDROOT
BRANCH   2   5
ATOM      5  C   UNL     1      -7.868  -1.808  -2.875  0.00  0.00    +0.303 C 
ATOM      6  O   UNL     1      -7.125  -1.822  -3.835  0.00  0.00    -0.265 OA
ATOM      7  N   UNL     1      -9.202  -1.731  -3.057  0.00  0.00    -0.278 N 
ATOM      8  H   UNL     1      -9.799  -1.788  -2.295  0.00  0.00    +0.155 HD
BRANCH   7   9
ATOM      9  C   UNL     1      -9.724  -1.571  -4.343  0.00  0.00    +0.034 A 
ATOM     10  C   UNL     1     -10.863  -0.801  -4.541  0.00  0.00    +0.023 A 
ATOM     11  C   UNL     1     -11.376  -0.644  -5.814  0.00  0.00    +0.006 A 
ATOM     12  C   UNL     1     -10.757  -1.254  -6.890  0.00  0.00    -0.039 A 
ATOM     13  C   UNL     1      -9.623  -2.022  -6.696  0.00  0.00    +0.006 A 
ATOM     14  C   UNL     1      -9.101  -2.177  -5.427  0.00  0.00    +0.023 A 
BRANCH  12  15
ATOM     15  C   UNL     1     -11.320  -1.081  -8.277  0.00  0.00    +0.130 C 
BRANCH  15  16
ATOM     16  C   UNL     1     -10.696   0.128  -8.925  0.00  0.00    +0.215 C 
ATOM     17  O   UNL     1      -9.876   0.785  -8.320  0.00  0.00    -0.276 OA
ATOM     18  N   UNL     1     -11.051   0.480 -10.177  0.00  0.00    -0.329 N 
ATOM     19  H   UNL     1     -11.707  -0.045 -10.661  0.00  0.00    +0.145 HD
ATOM     20  H   UNL     1     -10.649   1.258 -10.595  0.00  0.00    +0.145 HD
ENDBRANCH  15  16
ENDBRANCH  12  15
ENDBRANCH   7   9
ENDBRANCH   2   5
BRANCH   1  21
ATOM     21  C   UNL     1      -5.420  -2.018   0.043  0.00  0.00    +0.106 C 
BRANCH  21  25
ATOM     22  C   UNL     1      -1.416  -0.529   0.026  0.00  0.00    -0.045 A 
ATOM     23  C   UNL     1      -2.265  -0.217   1.071  0.00  0.00    +0.004 A 
ATOM     24  C   UNL     1      -3.561  -0.699   1.077  0.00  0.00    +0.006 A 
ATOM     25  C   UNL     1      -4.008  -1.492   0.037  0.00  0.00    -0.027 A 
ATOM     26  C   UNL     1      -3.159  -1.803  -1.009  0.00  0.00    +0.006 A 
ATOM     27  C   UNL     1      -1.865  -1.318  -1.017  0.00  0.00    +0.004 A 
BRANCH  22  29
ATOM     28  C   UNL     1      -0.028   1.526   0.039  0.00  0.00    +0.012 C 
ATOM     29  C   UNL     1      -0.004  -0.004   0.020  0.00  0.00    +0.013 C 
ATOM     30  C   UNL     1       0.737  -0.518   1.256  0.00  0.00    +0.012 C 
ENDBRANCH  22  29
ENDBRANCH  21  25
BRANCH  21  31
ATOM     31  C   UNL     1      -5.421  -3.470   0.524  0.00  0.00    +0.008 C 
ATOM     32  C   UNL     1      -6.855  -4.004   0.531  0.00  0.00    +0.009 C 
ATOM     33  C   UNL     1      -4.565  -4.320  -0.417  0.00  0.00    +0.009 C 
ENDBRANCH  21  31
ENDBRANCH   1  21
TORSDOF 8
