REMARK  Name = ZINC48760076
REMARK  3 active torsions:
REMARK  status: ('A' for Active; 'I' for Inactive)
REMARK    1  A    between atoms: C_10  and  O_12
REMARK    2  A    between atoms: O_12  and  C_13
REMARK    3  A    between atoms: C_14  and  N_20
REMARK                            x       y       z     vdW  Elec       q    Type
REMARK                         _______ _______ _______ _____ _____    ______ ____
ROOT
ATOM      1  O   UNL     1       4.609   0.011  -0.924  0.00  0.00    -0.467 OA
ENDROOT
BRANCH   1  11
ATOM      2  C   UNL     1      -0.017   1.375   0.010  0.00  0.00    +0.000 A 
ATOM      3  C   UNL     1       1.174   2.078   0.002  0.00  0.00    +0.000 A 
ATOM      4  C   UNL     1       2.372   1.395  -0.010  0.00  0.00    +0.007 A 
ATOM      5  C   UNL     1       2.393   0.006  -0.017  0.00  0.00    -0.004 A 
ATOM      6  C   UNL     1       1.208  -0.694  -0.015  0.00  0.00    -0.041 A 
ATOM      7  C   UNL     1       0.002  -0.004   0.002  0.00  0.00    +0.004 A 
ATOM      8  C   UNL     1       1.155  -2.199  -0.038  0.00  0.00    +0.035 C 
ATOM      9  C   UNL     1       2.501  -2.790   0.375  0.00  0.00    +0.009 C 
ATOM     10  C   UNL     1       3.599  -2.130  -0.467  0.00  0.00    +0.050 C 
ATOM     11  C   UNL     1       3.737  -0.675  -0.023  0.00  0.00    +0.206 C 
ENDBRANCH   1  11
BRANCH   1  12
ATOM     12  C   UNL     1       5.352   1.023  -0.410  0.00  0.00    +0.247 A 
ATOM     13  C   UNL     1       6.215   1.732  -1.237  0.00  0.00    +0.188 A 
ATOM     14  C   UNL     1       6.967   2.762  -0.701  0.00  0.00    +0.055 A 
ATOM     15  C   UNL     1       6.829   3.049   0.651  0.00  0.00    +0.038 A 
ATOM     16  C   UNL     1       5.952   2.303   1.414  0.00  0.00    +0.130 A 
ATOM     17  N   UNL     1       5.245   1.329   0.872  0.00  0.00    -0.218 NA
ATOM     18 BR   UNL     1       7.832   4.445   1.440  0.00  0.00    -0.049 Br
BRANCH  13  19
ATOM     19  N   UNL     1       6.328   1.389  -2.672  0.00  0.00    +0.062 N 
ATOM     20  O   UNL     1       7.081   2.011  -3.385  0.00  0.00    -0.126 OA
ATOM     21  O   UNL     1       5.667   0.487  -3.132  0.00  0.00    -0.126 OA
ENDBRANCH  13  19
ENDBRANCH   1  12
TORSDOF 3
