REMARK  Name = ZINC20580319
REMARK  8 active torsions:
REMARK  status: ('A' for Active; 'I' for Inactive)
REMARK    1  A    between atoms: C_1  and  C_2
REMARK    2  A    between atoms: C_5  and  N_8
REMARK    3  A    between atoms: N_8  and  C_9
REMARK    4  A    between atoms: N_8  and  S_10
REMARK    5  A    between atoms: S_10  and  C_13
REMARK    6  A    between atoms: C_15  and  C_20
REMARK    7  A    between atoms: C_18  and  C_19
REMARK    8  A    between atoms: C_22  and  C_25
REMARK                            x       y       z     vdW  Elec       q    Type
REMARK                         _______ _______ _______ _____ _____    ______ ____
ROOT
ATOM      1  C   UNL     1       2.196   0.083  -0.524  0.00  0.00    +0.112 A 
ATOM      2  C   UNL     1       0.994  -0.594  -0.567  0.00  0.00    +0.040 A 
ATOM      3  C   UNL     1      -0.206   0.119  -0.555  0.00  0.00    +0.022 A 
ATOM      4  C   UNL     1      -0.181   1.513  -0.499  0.00  0.00    +0.012 A 
ATOM      5  C   UNL     1       1.027   2.178  -0.456  0.00  0.00    +0.006 A 
ATOM      6  C   UNL     1       2.213   1.465  -0.468  0.00  0.00    -0.024 A 
ATOM      7  C   UNL     1       3.529   2.198  -0.420  0.00  0.00    +0.046 C 
ENDROOT
BRANCH   3   8
ATOM      8  C   UNL     1      -1.497  -0.600  -0.602  0.00  0.00    +0.168 A 
ATOM      9  C   UNL     1      -2.747  -0.045  -0.593  0.00  0.00    +0.075 A 
ATOM     10  C   UNL     1      -3.612  -1.157  -0.654  0.00  0.00    +0.081 A 
ATOM     11  N   UNL     1      -2.854  -2.216  -0.685  0.00  0.00    -0.083 NA
ATOM     12  O   UNL     1      -1.679  -1.931  -0.657  0.00  0.00    -0.354 OA
ATOM     13  C   UNL     1      -5.118  -1.127  -0.674  0.00  0.00    +0.069 C 
ENDBRANCH   3   8
BRANCH   1  14
ATOM     14  S   UNL     1       3.711  -0.815  -0.538  0.00  0.00    +0.075 S 
ATOM     15  O   UNL     1       4.510  -0.247  -1.567  0.00  0.00    -0.150 OA
ATOM     16  O   UNL     1       4.150  -0.894   0.811  0.00  0.00    -0.150 OA
BRANCH  14  17
ATOM     17  N   UNL     1       3.359  -2.362  -1.013  0.00  0.00    -0.206 N 
ATOM     18  C   UNL     1       3.150  -3.407  -0.008  0.00  0.00    +0.157 C 
BRANCH  17  23
ATOM     19  C   UNL     1       2.965  -3.615  -6.530  0.00  0.00    +0.044 C 
ATOM     20  C   UNL     1       3.070  -3.282  -5.064  0.00  0.00    -0.050 A 
ATOM     21  C   UNL     1       3.418  -4.266  -4.156  0.00  0.00    +0.005 A 
ATOM     22  C   UNL     1       3.515  -3.964  -2.812  0.00  0.00    +0.025 A 
ATOM     23  C   UNL     1       3.263  -2.671  -2.372  0.00  0.00    +0.051 A 
ATOM     24  C   UNL     1       2.908  -1.687  -3.286  0.00  0.00    +0.025 A 
ATOM     25  C   UNL     1       2.818  -1.994  -4.629  0.00  0.00    +0.005 A 
ENDBRANCH  17  23
ENDBRANCH  14  17
ENDBRANCH   1  14
TORSDOF 4
