REMARK  Name = ZINC05764476
REMARK  5 active torsions:
REMARK  status: ('A' for Active; 'I' for Inactive)
REMARK    1  A    between atoms: C_1  and  C_2
REMARK    2  A    between atoms: C_10  and  O_26
REMARK    3  A    between atoms: C_20  and  O_25
REMARK    4  A    between atoms: C_22  and  O_24
REMARK    5  A    between atoms: O_26  and  S_27
REMARK                            x       y       z     vdW  Elec       q    Type
REMARK                         _______ _______ _______ _____ _____    ______ ____
ROOT
ATOM      1  C   UNL     1       0.239   4.255   1.414  0.00  0.00    +0.014 C 
ATOM      2  C   UNL     1       0.378   2.834   1.966  0.00  0.00    -0.000 C 
ATOM      3  C   UNL     1       0.381   2.876   3.480  0.00  0.00    +0.010 C 
ATOM      4  C   UNL     1       1.511   3.826   3.920  0.00  0.00    +0.009 C 
ATOM      5  C   UNL     1       2.848   3.369   3.353  0.00  0.00    +0.023 C 
ATOM      6  C   UNL     1       3.969   4.280   3.762  0.00  0.00    -0.041 A 
ATOM      7  C   UNL     1       3.918   4.860   5.022  0.00  0.00    +0.008 A 
ATOM      8  C   UNL     1       4.925   5.698   5.451  0.00  0.00    +0.049 A 
ATOM      9  C   UNL     1       6.000   5.964   4.615  0.00  0.00    +0.159 A 
ATOM     10  C   UNL     1       6.049   5.388   3.357  0.00  0.00    +0.052 A 
ATOM     11  C   UNL     1       5.033   4.546   2.925  0.00  0.00    -0.040 A 
ATOM     12  C   UNL     1       5.151   3.963   1.542  0.00  0.00    +0.036 C 
ATOM     13  C   UNL     1       4.178   2.800   1.345  0.00  0.00    +0.009 C 
ATOM     14  C   UNL     1       2.797   3.246   1.825  0.00  0.00    +0.001 C 
ATOM     15  C   UNL     1       1.729   2.224   1.499  0.00  0.00    +0.004 C 
ATOM     16  C   UNL     1       1.458   1.984   0.009  0.00  0.00    +0.038 C 
ATOM     17  C   UNL     1       0.009   1.425   0.004  0.00  0.00    +0.144 C 
ATOM     18  C   UNL     1      -0.661   1.937   1.304  0.00  0.00    +0.149 C 
ENDROOT
BRANCH  18  19
ATOM     19  O   UNL     1      -1.837   2.687   0.993  0.00  0.00    -0.389 OA
ATOM     20  H   UNL     1      -2.518   2.178   0.533  0.00  0.00    +0.210 HD
ENDBRANCH  18  19
BRANCH  17  21
ATOM     21  O   UNL     1       0.034  -0.004  -0.005  0.00  0.00    -0.389 OA
ATOM     22  H   UNL     1       0.464  -0.384  -0.783  0.00  0.00    +0.210 HD
ENDBRANCH  17  21
BRANCH   9  23
ATOM     23  O   UNL     1       7.000   6.786   5.028  0.00  0.00    -0.323 OA
BRANCH  23  24
ATOM     24  S   UNL     1       6.775   8.253   4.690  0.00  0.00    +0.282 S 
ATOM     25  O   UNL     1       7.985   8.931   4.997  0.00  0.00    -0.105 OA
ATOM     26  O   UNL     1       6.191   8.286   3.394  0.00  0.00    -0.105 OA
ATOM     27  O   UNL     1       5.723   8.781   5.654  0.00  0.00    -0.012 OA
ENDBRANCH  23  24
ENDBRANCH   9  23
TORSDOF 4
