REMARK  Name = ZINC19597194
REMARK  4 active torsions:
REMARK  status: ('A' for Active; 'I' for Inactive)
REMARK    1  A    between atoms: C_3  and  C_19
REMARK    2  A    between atoms: C_4  and  O_18
REMARK    3  A    between atoms: C_6  and  N_7
REMARK    4  A    between atoms: N_7  and  C_8
REMARK                            x       y       z     vdW  Elec       q    Type
REMARK                         _______ _______ _______ _____ _____    ______ ____
ROOT
ATOM      1  N   UNL     1      -1.245   6.003  -0.055  0.00  0.00    -0.320 N 
ATOM      2  H   UNL     1      -2.192   5.443  -0.060  0.00  0.00    +0.152 HD
ENDROOT
BRANCH   1   3
ATOM      3  C   UNL     1      -0.071   5.344   0.045  0.00  0.00    +0.090 C 
ATOM      4  C   UNL     1      -0.050   3.963   0.028  0.00  0.00    +0.113 C 
ATOM      5  C   UNL     1       1.218   3.213  -0.003  0.00  0.00    +0.258 C 
ATOM      6  O   UNL     1       2.288   3.793  -0.013  0.00  0.00    -0.270 OA
ATOM      7  N   UNL     1       1.162   1.865  -0.019  0.00  0.00    -0.236 N 
ATOM      8  C   UNL     1      -0.009   1.212  -0.007  0.00  0.00    +0.313 C 
ATOM      9  O   UNL     1       0.009  -0.003  -0.022  0.00  0.00    -0.252 OA
ATOM     10  N   UNL     1      -1.199   1.829   0.015  0.00  0.00    -0.236 N 
ATOM     11  C   UNL     1      -1.296   3.174   0.038  0.00  0.00    +0.258 C 
ATOM     12  O   UNL     1      -2.382   3.722   0.063  0.00  0.00    -0.270 OA
ATOM     13  H   UNL     1       2.091   1.276  -0.042  0.00  0.00    +0.159 HD
ATOM     14  H   UNL     1      -2.125   1.236   0.014  0.00  0.00    +0.159 HD
ENDBRANCH   1   3
BRANCH   1  20
ATOM     15  C   UNL     1      -0.058   8.092  -0.259  0.00  0.00    +0.024 A 
ATOM     16  C   UNL     1      -0.060   9.454  -0.360  0.00  0.00    +0.020 A 
ATOM     17  C   UNL     1      -1.269  10.157  -0.346  0.00  0.00    +0.105 A 
ATOM     18  C   UNL     1      -2.481   9.457  -0.234  0.00  0.00    +0.133 A 
ATOM     19  C   UNL     1      -2.468   8.076  -0.137  0.00  0.00    +0.069 A 
ATOM     20  C   UNL     1      -1.258   7.393  -0.153  0.00  0.00    +0.034 A 
BRANCH  17  21
ATOM     21  C   UNL     1      -1.271  11.625  -0.450  0.00  0.00    +0.390 C 
ATOM     22  O   UNL     1      -2.323  12.234  -0.438  0.00  0.00    -0.240 OA
ATOM     23  O   UNL     1      -0.106  12.294  -0.558  0.00  0.00    -0.240 OA
ENDBRANCH  17  21
BRANCH  18  24
ATOM     24  O   UNL     1      -3.659  10.130  -0.220  0.00  0.00    -0.506 OA
ATOM     25  H   UNL     1      -4.606   9.579  -0.132  0.00  0.00    +0.292 HD
ENDBRANCH  18  24
ENDBRANCH   1  20
TORSDOF 4
