REMARK  Name = ZINC19075402
REMARK  8 active torsions:
REMARK  status: ('A' for Active; 'I' for Inactive)
REMARK    1  A    between atoms: C_3  and  S_32
REMARK    2  A    between atoms: C_6  and  N_7
REMARK    3  A    between atoms: N_10  and  C_11
REMARK    4  A    between atoms: C_11  and  C_12
REMARK    5  A    between atoms: C_17  and  C_20
REMARK    6  A    between atoms: C_20  and  N_21
REMARK    7  A    between atoms: N_24  and  C_25
REMARK    8  A    between atoms: C_28  and  S_31
REMARK                            x       y       z     vdW  Elec       q    Type
REMARK                         _______ _______ _______ _____ _____    ______ ____
ROOT
ATOM      1  C   UNL     1      -3.433  -4.761  -0.116  0.00  0.00    +0.006 C 
ATOM      2  C   UNL     1      -4.266  -4.292  -1.310  0.00  0.00    +0.005 C 
ATOM      3  C   UNL     1      -3.625  -4.789  -2.607  0.00  0.00    +0.001 C 
ATOM      4  C   UNL     1      -3.568  -6.318  -2.593  0.00  0.00    +0.005 C 
ATOM      5  C   UNL     1      -2.735  -6.787  -1.399  0.00  0.00    +0.006 C 
ATOM      6  C   UNL     1      -3.377  -6.290  -0.102  0.00  0.00    +0.010 C 
ENDROOT
BRANCH   1   7
ATOM      7  C   UNL     1      -2.015  -4.199  -0.231  0.00  0.00    +0.109 C 
BRANCH   7  11
ATOM      8  N   UNL     1      -0.958  -0.680  -0.100  0.00  0.00    -0.269 N 
ATOM      9  C   UNL     1      -0.918  -2.023  -0.199  0.00  0.00    +0.304 C 
ATOM     10  O   UNL     1       0.146  -2.590  -0.355  0.00  0.00    -0.253 OA
ATOM     11  N   UNL     1      -2.058  -2.738  -0.124  0.00  0.00    -0.299 N 
ATOM     12  H   UNL     1      -1.795  -0.233   0.100  0.00  0.00    +0.156 HD
ATOM     13  H   UNL     1      -2.907  -2.286   0.001  0.00  0.00    +0.150 HD
BRANCH   8  19
ATOM     14  C   UNL     1       1.181  -0.362  -1.180  0.00  0.00    +0.024 A 
ATOM     15  C   UNL     1       2.332   0.378  -1.364  0.00  0.00    +0.016 A 
ATOM     16  C   UNL     1       2.521   1.556  -0.653  0.00  0.00    +0.005 A 
ATOM     17  C   UNL     1       1.551   1.990   0.243  0.00  0.00    +0.016 A 
ATOM     18  C   UNL     1       0.400   1.249   0.425  0.00  0.00    +0.024 A 
ATOM     19  C   UNL     1       0.212   0.072  -0.285  0.00  0.00    +0.035 A 
BRANCH  16  20
ATOM     20  S   UNL     1       3.990   2.500  -0.886  0.00  0.00    -0.143 S 
ATOM     21  H   UNL     1       3.679   3.345  -1.885  0.00  0.00    +0.107 HD
ENDBRANCH  16  20
ENDBRANCH   8  19
ENDBRANCH   7  11
ENDBRANCH   1   7
BRANCH   5  22
ATOM     22  C   UNL     1      -2.678  -8.316  -1.386  0.00  0.00    +0.109 C 
BRANCH  22  23
ATOM     23  N   UNL     1      -1.958  -8.789  -2.571  0.00  0.00    -0.299 N 
ATOM     24  C   UNL     1      -1.783 -10.110  -2.771  0.00  0.00    +0.304 C 
ATOM     25  O   UNL     1      -2.224 -10.910  -1.969  0.00  0.00    -0.253 OA
ATOM     26  N   UNL     1      -1.120 -10.544  -3.861  0.00  0.00    -0.269 N 
ATOM     27  H   UNL     1      -1.606  -8.150  -3.211  0.00  0.00    +0.150 HD
ATOM     28  H   UNL     1      -0.704  -9.906  -4.462  0.00  0.00    +0.156 HD
BRANCH  26  29
ATOM     29  C   UNL     1      -1.033 -11.918  -4.127  0.00  0.00    +0.035 A 
ATOM     30  C   UNL     1       0.104 -12.436  -4.734  0.00  0.00    +0.024 A 
ATOM     31  C   UNL     1       0.191 -13.789  -4.996  0.00  0.00    +0.016 A 
ATOM     32  C   UNL     1      -0.859 -14.632  -4.652  0.00  0.00    +0.005 A 
ATOM     33  C   UNL     1      -1.996 -14.113  -4.045  0.00  0.00    +0.016 A 
ATOM     34  C   UNL     1      -2.080 -12.761  -3.779  0.00  0.00    +0.024 A 
BRANCH  32  35
ATOM     35  S   UNL     1      -0.749 -16.358  -4.987  0.00  0.00    -0.143 S 
ATOM     36  H   UNL     1      -0.190 -16.870  -3.876  0.00  0.00    +0.107 HD
ENDBRANCH  32  35
ENDBRANCH  26  29
ENDBRANCH  22  23
ENDBRANCH   5  22
TORSDOF 8
