REMARK  Name = ZINC20504249
REMARK  3 active torsions:
REMARK  status: ('A' for Active; 'I' for Inactive)
REMARK    1  A    between atoms: C_1  and  C_2
REMARK    2  A    between atoms: C_5  and  N_9
REMARK    3  A    between atoms: C_12  and  C_14
REMARK                            x       y       z     vdW  Elec       q    Type
REMARK                         _______ _______ _______ _____ _____    ______ ____
ROOT
ATOM      1  C   UNL     1       2.939   7.194   0.011  0.00  0.00    +0.044 C 
ATOM      2  C   UNL     1       2.498   5.754   0.008  0.00  0.00    -0.048 A 
ATOM      3  C   UNL     1       3.438   4.744   0.098  0.00  0.00    +0.020 A 
ATOM      4  C   UNL     1       3.037   3.421   0.096  0.00  0.00    +0.045 A 
ATOM      5  C   UNL     1       1.687   3.107   0.002  0.00  0.00    +0.093 A 
ATOM      6  C   UNL     1       0.745   4.124  -0.094  0.00  0.00    +0.045 A 
ATOM      7  C   UNL     1       1.153   5.444  -0.085  0.00  0.00    +0.020 A 
ATOM      8 BR   UNL     1      -1.093   3.702  -0.230  0.00  0.00    -0.048 Br
ATOM      9 BR   UNL     1       4.324   2.041   0.219  0.00  0.00    -0.048 Br
ENDROOT
BRANCH   5  10
ATOM     10  N   UNL     1       1.276   1.767  -0.001  0.00  0.00    -0.237 N 
ATOM     11  C   UNL     1       0.329   1.242   0.820  0.00  0.00    +0.115 A 
ATOM     12  C   UNL     1       0.219  -0.072   0.511  0.00  0.00    +0.056 A 
ATOM     13  C   UNL     1       1.148  -0.296  -0.533  0.00  0.00    +0.174 A 
ATOM     14  N   UNL     1       1.740   0.857  -0.779  0.00  0.00    -0.160 NA
BRANCH  13  15
ATOM     15  C   UNL     1       1.406  -1.577  -1.217  0.00  0.00    +0.406 C 
ATOM     16  O   UNL     1       0.789  -2.573  -0.894  0.00  0.00    -0.239 OA
ATOM     17  O   UNL     1       2.325  -1.644  -2.200  0.00  0.00    -0.239 OA
ENDBRANCH  13  15
ENDBRANCH   5  10
TORSDOF 2
