REMARK  Name = ZINC01080844
REMARK  7 active torsions:
REMARK  status: ('A' for Active; 'I' for Inactive)
REMARK    1  A    between atoms: C_1  and  O_2
REMARK    2  A    between atoms: O_2  and  C_3
REMARK    3  A    between atoms: C_6  and  C_9
REMARK    4  A    between atoms: C_9  and  C_22
REMARK    5  A    between atoms: C_11  and  C_17
REMARK    6  A    between atoms: C_25  and  O_29
REMARK    7  A    between atoms: C_27  and  O_28
REMARK                            x       y       z     vdW  Elec       q    Type
REMARK                         _______ _______ _______ _____ _____    ______ ____
ROOT
ATOM      1  C   UNL     1      -2.969  -1.988  -1.357  0.00  0.00    +0.089 C 
ATOM      2  C   UNL     1      -1.725  -1.095  -1.409  0.00  0.00    +0.063 C 
ATOM      3  C   UNL     1      -1.155  -0.969   0.008  0.00  0.00    +0.112 C 
ATOM      4  N   UNL     1      -2.201  -0.473   0.905  0.00  0.00    -0.319 N 
ATOM      5  C   UNL     1      -3.498  -0.728   0.672  0.00  0.00    +0.132 C 
ATOM      6  S   UNL     1      -4.663  -0.127   1.773  0.00  0.00    -0.019 S 
ATOM      7  N   UNL     1      -3.917  -1.436  -0.387  0.00  0.00    -0.313 N 
ATOM      8  H   UNL     1      -1.951   0.051   1.683  0.00  0.00    +0.148 HD
ATOM      9  H   UNL     1      -4.867  -1.585  -0.513  0.00  0.00    +0.149 HD
ENDROOT
BRANCH   1  13
ATOM     10  C   UNL     1      -4.792  -2.124  -5.220  0.00  0.00    +0.120 A 
ATOM     11  C   UNL     1      -5.570  -2.256  -4.079  0.00  0.00    +0.046 A 
ATOM     12  C   UNL     1      -4.979  -2.212  -2.832  0.00  0.00    +0.009 A 
ATOM     13  C   UNL     1      -3.612  -2.036  -2.719  0.00  0.00    -0.019 A 
ATOM     14  C   UNL     1      -2.834  -1.898  -3.854  0.00  0.00    +0.009 A 
ATOM     15  C   UNL     1      -3.420  -1.947  -5.104  0.00  0.00    +0.046 A 
BRANCH  10  17
ATOM     16  C   UNL     1      -4.508  -2.023  -7.578  0.00  0.00    +0.277 C 
ATOM     17  O   UNL     1      -5.371  -2.166  -6.448  0.00  0.00    -0.495 OA
ENDBRANCH  10  17
ENDBRANCH   1  13
BRANCH   1  18
ATOM     18  C   UNL     1      -2.573  -3.380  -0.938  0.00  0.00    +0.022 A 
ATOM     19  C   UNL     1      -3.102  -3.931   0.214  0.00  0.00    +0.013 A 
ATOM     20  C   UNL     1      -2.744  -5.209   0.598  0.00  0.00    +0.046 A 
ATOM     21  C   UNL     1      -1.844  -5.938  -0.166  0.00  0.00    +0.120 A 
ATOM     22  C   UNL     1      -1.307  -5.385  -1.318  0.00  0.00    +0.091 A 
ATOM     23  C   UNL     1      -1.672  -4.105  -1.705  0.00  0.00    +0.126 A 
BRANCH  23  24
ATOM     24  O   UNL     1      -1.147  -3.560  -2.834  0.00  0.00    -0.506 OA
ATOM     25  H   UNL     1      -0.327  -3.069  -2.689  0.00  0.00    +0.292 HD
ENDBRANCH  23  24
BRANCH  21  26
ATOM     26  O   UNL     1      -1.488  -7.193   0.215  0.00  0.00    -0.507 OA
ATOM     27  H   UNL     1      -0.716  -7.224   0.796  0.00  0.00    +0.292 HD
ENDBRANCH  21  26
ENDBRANCH   1  18
BRANCH   3  28
ATOM     28  C   UNL     1       0.002  -0.004   0.002  0.00  0.00    +0.010 A 
ATOM     29  C   UNL     1       1.332  -0.266  -0.012  0.00  0.00    +0.013 A 
ATOM     30  C   UNL     1       2.223   0.790  -0.015  0.00  0.00    +0.008 A 
ATOM     31  C   UNL     1       1.742   2.057  -0.004  0.00  0.00    +0.045 A 
ATOM     32  S   UNL     1      -0.022   1.781   0.012  0.00  0.00    -0.100 S 
ENDBRANCH   3  28
TORSDOF 6
