REMARK  Name = ZINC09915805
REMARK  12 active torsions:
REMARK  status: ('A' for Active; 'I' for Inactive)
REMARK    1  A    between atoms: C_1  and  C_2
REMARK    2  A    between atoms: C_2  and  C_26
REMARK    3  A    between atoms: C_3  and  C_24
REMARK    4  A    between atoms: C_3  and  O_25
REMARK    5  A    between atoms: C_4  and  C_22
REMARK    6  A    between atoms: C_4  and  O_23
REMARK    7  A    between atoms: C_5  and  C_20
REMARK    8  A    between atoms: C_5  and  O_21
REMARK    9  A    between atoms: C_6  and  C_8
REMARK   10  A    between atoms: C_6  and  O_9
REMARK   11  A    between atoms: O_9  and  C_10
REMARK   12  A    between atoms: C_26  and  O_27
REMARK                            x       y       z     vdW  Elec       q    Type
REMARK                         _______ _______ _______ _____ _____    ______ ____
ROOT
ATOM      1  C   UNL     1       0.013   1.206  -0.165  0.00  0.00    +0.047 C 
ATOM      2  C   UNL     1      -0.711   1.607   1.127  0.00  0.00    +0.125 C 
ATOM      3  C   UNL     1       0.036   1.043   2.331  0.00  0.00    +0.125 C 
ATOM      4  C   UNL     1       1.217   1.909   2.745  0.00  0.00    +0.129 C 
ATOM      5  C   UNL     1       0.850   3.381   2.865  0.00  0.00    +0.159 C 
ATOM      6  C   UNL     1       0.082   3.893   1.653  0.00  0.00    +0.242 C 
ATOM      7  O   UNL     1      -0.900   2.999   1.194  0.00  0.00    -0.326 OA
ATOM      8  C   UNL     1       1.063   4.268   0.536  0.00  0.00    +0.092 C 
ATOM      9  C   UNL     1       0.026   3.622   4.135  0.00  0.00    +0.051 C 
ATOM     10  C   UNL     1       1.720   1.420   4.118  0.00  0.00    +0.047 C 
ATOM     11  C   UNL     1       0.561  -0.358   1.964  0.00  0.00    +0.047 C 
ENDROOT
BRANCH   5  12
ATOM     12  O   UNL     1       2.067   4.144   2.982  0.00  0.00    -0.379 OA
ATOM     13  H   UNL     1       1.928   5.097   3.063  0.00  0.00    +0.211 HD
ENDBRANCH   5  12
BRANCH   4  14
ATOM     14  O   UNL     1       2.291   1.748   1.810  0.00  0.00    -0.383 OA
ATOM     15  H   UNL     1       3.075   2.275   2.018  0.00  0.00    +0.210 HD
ENDBRANCH   4  14
BRANCH   3  16
ATOM     16  O   UNL     1      -0.876   0.893   3.426  0.00  0.00    -0.383 OA
ATOM     17  H   UNL     1      -1.617   0.299   3.244  0.00  0.00    +0.210 HD
ENDBRANCH   3  16
BRANCH   6  18
ATOM     18  O   UNL     1      -0.584   5.115   2.051  0.00  0.00    -0.456 OA
BRANCH  18  19
ATOM     19  C   UNL     1      -1.381   5.713   1.128  0.00  0.00    +0.150 A 
ATOM     20  C   UNL     1      -1.603   5.113  -0.079  0.00  0.00    +0.048 A 
ATOM     21  C   UNL     1      -2.417   5.709  -1.037  0.00  0.00    +0.004 A 
ATOM     22  C   UNL     1      -3.017   6.908  -0.798  0.00  0.00    +0.010 A 
ATOM     23  C   UNL     1      -2.814   7.556   0.431  0.00  0.00    +0.004 A 
ATOM     24  C   UNL     1      -1.990   6.953   1.413  0.00  0.00    +0.113 A 
ATOM     25  N   UNL     1      -1.789   7.567   2.582  0.00  0.00    -0.251 NA
ATOM     26  C   UNL     1      -2.349   8.722   2.850  0.00  0.00    +0.111 A 
ATOM     27  C   UNL     1      -3.174   9.367   1.931  0.00  0.00    +0.020 A 
ATOM     28  C   UNL     1      -3.417   8.796   0.715  0.00  0.00    +0.011 A 
ENDBRANCH  18  19
ENDBRANCH   6  18
BRANCH   2  29
ATOM     29  C   UNL     1      -2.104   0.937   1.091  0.00  0.00    +0.193 C 
BRANCH  29  30
ATOM     30  O   UNL     1      -2.779   1.305  -0.114  0.00  0.00    -0.392 OA
ATOM     31  H   UNL     1      -3.661   0.920  -0.205  0.00  0.00    +0.210 HD
ENDBRANCH  29  30
ENDBRANCH   2  29
TORSDOF 7
