REMARK  Name = ZINC20220623
REMARK  11 active torsions:
REMARK  status: ('A' for Active; 'I' for Inactive)
REMARK    1  A    between atoms: C_1  and  O_2
REMARK    2  A    between atoms: O_2  and  C_3
REMARK    3  A    between atoms: C_3  and  C_5
REMARK    4  A    between atoms: C_9  and  N_10
REMARK    5  A    between atoms: C_11  and  C_13
REMARK    6  A    between atoms: C_13  and  C_14
REMARK    7  A    between atoms: C_14  and  S_15
REMARK    8  A    between atoms: S_15  and  C_16
REMARK    9  A    between atoms: C_19  and  C_22
REMARK   10  A    between atoms: N_20  and  N_21
REMARK   11  A    between atoms: C_27  and  O_28
REMARK                            x       y       z     vdW  Elec       q    Type
REMARK                         _______ _______ _______ _____ _____    ______ ____
ROOT
ATOM      1  C   UNL     1      -0.050  -1.739  -5.110  0.00  0.00    +0.107 C 
ENDROOT
BRANCH   1   3
ATOM      2  N   UNL     1      -0.061  -3.161  -7.134  0.00  0.00    -0.279 N 
ATOM      3  C   UNL     1      -0.042  -3.085  -5.789  0.00  0.00    +0.218 C 
ATOM      4  O   UNL     1      -0.019  -4.099  -5.124  0.00  0.00    -0.275 OA
ATOM      5  H   UNL     1      -0.082  -2.241  -7.737  0.00  0.00    +0.155 HD
BRANCH   2  10
ATOM      6  C   UNL     1      -0.076  -4.680  -9.118  0.00  0.00    +0.091 A 
ATOM      7  C   UNL     1      -0.057  -6.078  -9.514  0.00  0.00    -0.021 A 
ATOM      8  C   UNL     1      -0.031  -6.965  -8.496  0.00  0.00    -0.004 A 
ATOM      9  S   UNL     1      -0.023  -5.971  -7.030  0.00  0.00    -0.077 S 
ATOM     10  C   UNL     1      -0.054  -4.399  -7.758  0.00  0.00    +0.086 A 
ATOM     11  C   UNL     1      -0.014  -8.459  -8.599  0.00  0.00    +0.043 C 
ATOM     12  C   UNL     1      -0.408  -8.849 -10.031  0.00  0.00    +0.005 C 
ATOM     13  C   UNL     1       0.403  -8.002 -11.014  0.00  0.00    +0.005 C 
ATOM     14  C   UNL     1      -0.071  -6.548 -10.964  0.00  0.00    +0.037 C 
BRANCH   6  15
ATOM     15  C   UNL     1      -0.112  -3.608 -10.115  0.00  0.00    +0.342 C 
ATOM     16  O   UNL     1       0.926  -3.146 -10.549  0.00  0.00    -0.245 OA
BRANCH  15  18
ATOM     17  C   UNL     1      -1.257  -2.070 -11.539  0.00  0.00    +0.280 C 
ATOM     18  O   UNL     1      -1.297  -3.133 -10.551  0.00  0.00    -0.464 OA
ENDBRANCH  15  18
ENDBRANCH   6  15
ENDBRANCH   2  10
ENDBRANCH   1   3
BRANCH   1  19
ATOM     19  C   UNL     1      -0.025  -1.933  -3.593  0.00  0.00    +0.086 C 
BRANCH  19  20
ATOM     20  S   UNL     1      -0.035  -0.316  -2.778  0.00  0.00    -0.084 S 
BRANCH  20  21
ATOM     21  C   UNL     1      -0.003  -0.824  -1.091  0.00  0.00    +0.209 A 
ATOM     22  N   UNL     1       0.023  -2.061  -0.650  0.00  0.00    -0.121 NA
ATOM     23  N   UNL     1       0.035  -2.071   0.635  0.00  0.00    -0.127 NA
ATOM     24  C   UNL     1       0.024  -0.841   1.094  0.00  0.00    +0.185 A 
ATOM     25  N   UNL     1       0.002  -0.004   0.002  0.00  0.00    -0.224 N 
BRANCH  24  26
ATOM     26  C   UNL     1       0.032  -0.433   2.514  0.00  0.00    +0.062 A 
ATOM     27  C   UNL     1       0.017   0.920   2.854  0.00  0.00    +0.015 A 
ATOM     28  C   UNL     1       0.024   1.295   4.182  0.00  0.00    +0.001 A 
ATOM     29  C   UNL     1       0.045   0.334   5.178  0.00  0.00    +0.004 A 
ATOM     30  C   UNL     1       0.060  -1.009   4.853  0.00  0.00    +0.046 A 
ATOM     31  C   UNL     1       0.049  -1.402   3.525  0.00  0.00    +0.128 A 
BRANCH  31  32
ATOM     32  O   UNL     1       0.058  -2.722   3.204  0.00  0.00    -0.506 OA
ATOM     33  H   UNL     1       0.072  -3.481   3.999  0.00  0.00    +0.292 HD
ENDBRANCH  31  32
ENDBRANCH  24  26
BRANCH  25  34
ATOM     34  N   UNL     1      -0.016   1.362   0.009  0.00  0.00    -0.295 N 
ATOM     35  H   UNL     1      -0.009   1.907   0.965  0.00  0.00    +0.163 HD
ATOM     36  H   UNL     1      -0.038   1.917  -0.940  0.00  0.00    +0.163 HD
ENDBRANCH  25  34
ENDBRANCH  20  21
ENDBRANCH  19  20
ENDBRANCH   1  19
TORSDOF 10
