REMARK  Name = ZINC48597579
REMARK  3 active torsions:
REMARK  status: ('A' for Active; 'I' for Inactive)
REMARK    1  A    between atoms: C_5  and  N_8
REMARK    2  A    between atoms: C_9  and  C_11
REMARK    3  A    between atoms: C_11  and  N_12
REMARK                            x       y       z     vdW  Elec       q    Type
REMARK                         _______ _______ _______ _____ _____    ______ ____
ROOT
ATOM      1  N   UNL     1      -1.260  -2.104  -0.001  0.00  0.00    -0.280 N 
ATOM      2  C   UNL     1      -0.110  -2.798  -0.112  0.00  0.00    +0.237 C 
ATOM      3  O   UNL     1       0.954  -2.214  -0.115  0.00  0.00    -0.274 OA
ATOM      4  H   UNL     1      -2.105  -2.574   0.074  0.00  0.00    +0.155 HD
ENDROOT
BRANCH   1   9
ATOM      5  C   UNL     1      -0.672   1.425  -1.041  0.00  0.00    +0.070 A 
ATOM      6  C   UNL     1      -1.192   2.054   0.036  0.00  0.00    +0.086 A 
ATOM      7  N   UNL     1      -1.717   1.349   1.066  0.00  0.00    -0.365 N 
ATOM      8  C   UNL     1      -1.740  -0.009   1.056  0.00  0.00    +0.110 A 
ATOM      9  C   UNL     1      -1.234  -0.701   0.005  0.00  0.00    +0.097 A 
ATOM     10  C   UNL     1      -0.678   0.013  -1.088  0.00  0.00    +0.203 A 
ATOM     11  O   UNL     1      -0.219  -0.582  -2.053  0.00  0.00    -0.286 OA
ATOM     12  H   UNL     1      -2.084   1.823   1.828  0.00  0.00    +0.165 HD
ENDBRANCH   1   9
BRANCH   2  13
ATOM     13  C   UNL     1      -0.145  -4.300  -0.232  0.00  0.00    +0.222 C 
BRANCH  13  14
ATOM     14  N   UNL     1       1.223  -4.814  -0.339  0.00  0.00    -0.291 N 
ATOM     15  C   UNL     1       1.802  -4.950  -1.572  0.00  0.00    +0.111 A 
ATOM     16  C   UNL     1       3.063  -5.423  -1.670  0.00  0.00    +0.098 A 
ATOM     17  C   UNL     1       3.763  -5.770  -0.488  0.00  0.00    +0.268 A 
ATOM     18  O   UNL     1       4.901  -6.199  -0.551  0.00  0.00    -0.267 OA
ATOM     19  N   UNL     1       3.157  -5.621   0.707  0.00  0.00    -0.274 N 
ATOM     20  H   UNL     1       3.629  -5.856   1.521  0.00  0.00    +0.173 HD
ATOM     21  C   UNL     1       1.901  -5.141   0.776  0.00  0.00    +0.330 A 
ATOM     22  O   UNL     1       1.369  -5.008   1.862  0.00  0.00    -0.246 OA
ATOM     23 BR   UNL     1       3.884  -5.621  -3.362  0.00  0.00    -0.043 Br
ENDBRANCH  13  14
ENDBRANCH   2  13
TORSDOF 3
