REMARK  Name = ZINC25710597
REMARK  6 active torsions:
REMARK  status: ('A' for Active; 'I' for Inactive)
REMARK    1  A    between atoms: C_1  and  C_2
REMARK    2  A    between atoms: C_2  and  C_4
REMARK    3  A    between atoms: C_2  and  N_19
REMARK    4  A    between atoms: N_6  and  C_7
REMARK    5  A    between atoms: C_10  and  N_13
REMARK    6  A    between atoms: C_14  and  C_16
REMARK                            x       y       z     vdW  Elec       q    Type
REMARK                         _______ _______ _______ _____ _____    ______ ____
ROOT
ATOM      1  C   UNL     1       2.374   0.815   0.482  0.00  0.00    +0.237 C 
ATOM      2  O   UNL     1       2.176  -0.354   0.738  0.00  0.00    -0.273 OA
ATOM      3  N   UNL     1       3.586   1.359   0.710  0.00  0.00    -0.284 N 
ATOM      4  H   UNL     1       3.790   2.395   0.401  0.00  0.00    +0.155 HD
ENDROOT
BRANCH   3   5
ATOM      5  C   UNL     1       4.584   0.606   1.341  0.00  0.00    +0.034 A 
ATOM      6  C   UNL     1       4.242  -0.326   2.312  0.00  0.00    +0.025 A 
ATOM      7  C   UNL     1       5.225  -1.071   2.931  0.00  0.00    +0.025 A 
ATOM      8  C   UNL     1       6.558  -0.882   2.589  0.00  0.00    +0.034 A 
ATOM      9  C   UNL     1       6.901   0.054   1.622  0.00  0.00    +0.025 A 
ATOM     10  C   UNL     1       5.917   0.796   1.000  0.00  0.00    +0.025 A 
BRANCH   8  11
ATOM     11  N   UNL     1       7.557  -1.635   3.220  0.00  0.00    -0.285 N 
ATOM     12  C   UNL     1       7.320  -2.917   3.561  0.00  0.00    +0.220 C 
ATOM     13  O   UNL     1       6.216  -3.394   3.397  0.00  0.00    -0.275 OA
ATOM     14  H   UNL     1       8.534  -1.180   3.437  0.00  0.00    +0.155 HD
BRANCH  12  15
ATOM     15  C   UNL     1       8.425  -3.758   4.144  0.00  0.00    +0.075 C 
ATOM     16  C   UNL     1       8.966  -4.907   3.290  0.00  0.00    +0.013 C 
ATOM     17  C   UNL     1       8.093  -5.206   4.511  0.00  0.00    +0.013 C 
ENDBRANCH  12  15
ENDBRANCH   8  11
ENDBRANCH   3   5
BRANCH   1  19
ATOM     18  C   UNL     1       1.690   2.200  -1.458  0.00  0.00    +0.038 C 
ATOM     19  C   UNL     1       1.265   1.659  -0.091  0.00  0.00    +0.155 C 
BRANCH  19  20
ATOM     20  N   UNL     1       0.058   0.842  -0.244  0.00  0.00    -0.312 N 
ATOM     21  C   UNL     1      -1.185   1.441  -0.252  0.00  0.00    +0.160 A 
ATOM     22  N   UNL     1      -1.487   2.713  -0.127  0.00  0.00    -0.225 NA
ATOM     23  C   UNL     1      -2.760   3.163  -0.158  0.00  0.00    +0.080 A 
ATOM     24  C   UNL     1      -3.219   4.495  -0.041  0.00  0.00    +0.029 A 
ATOM     25  C   UNL     1      -4.558   4.782  -0.088  0.00  0.00    +0.002 A 
ATOM     26  C   UNL     1      -5.508   3.784  -0.251  0.00  0.00    +0.001 A 
ATOM     27  C   UNL     1      -5.095   2.469  -0.369  0.00  0.00    +0.017 A 
ATOM     28  C   UNL     1      -3.755   2.173  -0.323  0.00  0.00    +0.041 A 
ATOM     29  S   UNL     1      -2.793   0.683  -0.428  0.00  0.00    -0.052 S 
ATOM     30  H   UNL     1       0.143  -0.250  -0.352  0.00  0.00    +0.149 HD
ENDBRANCH  19  20
ENDBRANCH   1  19
TORSDOF 5
