REMARK  Name = ZINC25578728
REMARK  2 active torsions:
REMARK  status: ('A' for Active; 'I' for Inactive)
REMARK    1  A    between atoms: C_1  and  C_2
REMARK    2  A    between atoms: C_1  and  C_12
REMARK                            x       y       z     vdW  Elec       q    Type
REMARK                         _______ _______ _______ _____ _____    ______ ____
ROOT
ATOM      1  C   UNL     1       0.002  -0.004   0.002  0.00  0.00    +0.092 A 
ATOM      2  C   UNL     1       0.110  -0.706  -1.194  0.00  0.00    +0.260 A 
ATOM      3  O   UNL     1       0.198  -0.050  -2.360  0.00  0.00    -0.267 OA
ATOM      4  N   UNL     1       0.126  -2.054  -1.168  0.00  0.00    -0.296 N 
ATOM      5  H   UNL     1       0.202  -2.549  -1.998  0.00  0.00    +0.172 HD
ATOM      6  C   UNL     1       0.040  -2.712  -0.013  0.00  0.00    +0.173 A 
ATOM      7  N   UNL     1      -0.065  -2.069   1.149  0.00  0.00    -0.296 N 
ATOM      8  C   UNL     1      -0.081  -0.722   1.191  0.00  0.00    +0.260 A 
ATOM      9  O   UNL     1      -0.181  -0.081   2.364  0.00  0.00    -0.267 OA
ATOM     10  N   UNL     1       0.058  -4.080  -0.020  0.00  0.00    -0.330 N 
ATOM     11  H   UNL     1       0.134  -4.559  -0.860  0.00  0.00    +0.145 HD
ATOM     12  H   UNL     1      -0.004  -4.570   0.814  0.00  0.00    +0.145 HD
ATOM     13  H   UNL     1      -0.126  -2.575   1.974  0.00  0.00    +0.172 HD
ENDROOT
BRANCH   1  14
ATOM     14  C   UNL     1      -0.018   1.503   0.010  0.00  0.00    +0.171 C 
BRANCH  14  15
ATOM     15  C   UNL     1       1.395   2.024  -0.000  0.00  0.00    +0.361 C 
ATOM     16  O   UNL     1       2.333   1.245  -0.013  0.00  0.00    -0.246 OA
ATOM     17  O   UNL     1       1.602   3.226   0.004  0.00  0.00    -0.246 OA
ENDBRANCH  14  15
ENDBRANCH   1  14
TORSDOF 2
