REMARK  Name = ZINC44592330
REMARK  3 active torsions:
REMARK  status: ('A' for Active; 'I' for Inactive)
REMARK    1  A    between atoms: C_5  and  C_6
REMARK    2  A    between atoms: C_6  and  N_7
REMARK    3  A    between atoms: C_15  and  C_17
REMARK                            x       y       z     vdW  Elec       q    Type
REMARK                         _______ _______ _______ _____ _____    ______ ____
ROOT
ATOM      1  N   UNL     1      -1.546  -1.275  -1.374  0.00  0.00    -0.281 NA
ATOM      2  C   UNL     1      -2.056  -0.076  -2.055  0.00  0.00    +0.091 C 
ATOM      3  C   UNL     1      -2.059  -0.331  -3.572  0.00  0.00    +0.058 C 
ATOM      4  C   UNL     1      -2.664  -1.676  -3.806  0.00  0.00    -0.004 A 
ATOM      5  C   UNL     1      -2.892  -2.640  -2.870  0.00  0.00    -0.009 A 
ATOM      6  C   UNL     1      -3.474  -3.822  -3.323  0.00  0.00    +0.013 A 
ATOM      7  C   UNL     1      -3.781  -3.966  -4.634  0.00  0.00    +0.046 A 
ATOM      8  S   UNL     1      -3.250  -2.401  -5.312  0.00  0.00    -0.101 S 
ATOM      9  C   UNL     1      -2.507  -2.385  -1.417  0.00  0.00    +0.202 C 
ENDROOT
BRANCH   9  10
ATOM     10  C   UNL     1      -1.875  -3.623  -0.835  0.00  0.00    +0.377 C 
ATOM     11  O   UNL     1      -2.558  -4.607  -0.609  0.00  0.00    -0.244 OA
ATOM     12  O   UNL     1      -0.680  -3.641  -0.592  0.00  0.00    -0.244 OA
ENDBRANCH   9  10
BRANCH   1  13
ATOM     13  C   UNL     1      -1.156  -0.969   0.009  0.00  0.00    +0.128 C 
BRANCH  13  18
ATOM     14  C   UNL     1      -0.016   1.351   0.009  0.00  0.00    +0.013 A 
ATOM     15  C   UNL     1       1.183   2.038   0.002  0.00  0.00    +0.023 A 
ATOM     16  C   UNL     1       2.343   1.335  -0.013  0.00  0.00    +0.055 A 
ATOM     17  S   UNL     1       1.753  -0.350  -0.017  0.00  0.00    -0.085 S 
ATOM     18  C   UNL     1       0.002  -0.004   0.002  0.00  0.00    +0.005 A 
ATOM     19 BR   UNL     1       4.123   1.974  -0.027  0.00  0.00    -0.043 Br
ENDBRANCH  13  18
ENDBRANCH   1  13
TORSDOF 3
