REMARK  Name = ZINC12226881
REMARK  7 active torsions:
REMARK  status: ('A' for Active; 'I' for Inactive)
REMARK    1  A    between atoms: C_1  and  O_2
REMARK    2  A    between atoms: O_2  and  C_3
REMARK    3  A    between atoms: C_5  and  C_15
REMARK    4  A    between atoms: C_8  and  O_9
REMARK    5  A    between atoms: O_9  and  C_10
REMARK    6  A    between atoms: C_10  and  C_11
REMARK    7  A    between atoms: N_17  and  C_18
REMARK                            x       y       z     vdW  Elec       q    Type
REMARK                         _______ _______ _______ _____ _____    ______ ____
ROOT
ATOM      1  C   UNL     1      -2.772   9.307  -1.976  0.00  0.00    +0.164 A 
ATOM      2  C   UNL     1      -2.756   7.925  -1.987  0.00  0.00    +0.062 A 
ATOM      3  C   UNL     1      -2.132   7.228  -0.950  0.00  0.00    +0.042 A 
ATOM      4  C   UNL     1      -1.532   7.930   0.098  0.00  0.00    +0.037 A 
ATOM      5  C   UNL     1      -1.546   9.309   0.101  0.00  0.00    +0.087 A 
ATOM      6  C   UNL     1      -2.167  10.002  -0.930  0.00  0.00    +0.181 A 
ATOM      7 CL   UNL     1      -0.793  10.181   1.400  0.00  0.00    -0.080 Cl
ENDROOT
BRANCH   3   8
ATOM      8  C   UNL     1      -2.112   5.752  -0.958  0.00  0.00    +0.245 C 
ATOM      9  O   UNL     1      -2.639   5.142  -1.868  0.00  0.00    -0.270 OA
ATOM     10  N   UNL     1      -1.510   5.081   0.044  0.00  0.00    -0.306 N 
ATOM     11  H   UNL     1      -1.089   5.567   0.770  0.00  0.00    +0.150 HD
BRANCH  10  12
ATOM     12  C   UNL     1      -1.490   3.616   0.036  0.00  0.00    +0.036 C 
ATOM     13  C   UNL     1      -0.773   3.123  -1.223  0.00  0.00    +0.029 C 
ATOM     14  C   UNL     1      -0.753   1.593  -1.232  0.00  0.00    -0.008 C 
ATOM     15  C   UNL     1      -0.013   1.086   0.008  0.00  0.00    +0.007 C 
ATOM     16  C   UNL     1      -0.729   1.579   1.267  0.00  0.00    -0.008 C 
ATOM     17  C   UNL     1      -0.750   3.109   1.275  0.00  0.00    +0.029 C 
ATOM     18  C   UNL     1      -2.164   1.050   1.278  0.00  0.00    +0.007 C 
ATOM     19  C   UNL     1      -2.904   1.556   0.038  0.00  0.00    -0.008 C 
ATOM     20  C   UNL     1      -2.188   1.063  -1.221  0.00  0.00    +0.007 C 
ATOM     21  C   UNL     1      -2.925   3.086   0.047  0.00  0.00    +0.029 C 
ENDBRANCH  10  12
ENDBRANCH   3   8
BRANCH   1  23
ATOM     22  C   UNL     1      -3.979   9.211  -4.022  0.00  0.00    +0.277 C 
ATOM     23  O   UNL     1      -3.379   9.988  -2.984  0.00  0.00    -0.491 OA
ENDBRANCH   1  23
BRANCH   6  24
ATOM     24  O   UNL     1      -2.184  11.360  -0.921  0.00  0.00    -0.478 OA
BRANCH  24  25
ATOM     25  C   UNL     1      -3.288  11.991  -0.269  0.00  0.00    +0.324 C 
BRANCH  25  26
ATOM     26  C   UNL     1      -3.137  13.487  -0.358  0.00  0.00    +0.248 C 
ATOM     27  O   UNL     1      -2.178  13.967  -0.924  0.00  0.00    -0.272 OA
ATOM     28  N   UNL     1      -4.068  14.293   0.191  0.00  0.00    -0.327 N 
ATOM     29  H   UNL     1      -4.835  13.909   0.644  0.00  0.00    +0.145 HD
ATOM     30  H   UNL     1      -3.970  15.256   0.133  0.00  0.00    +0.145 HD
ENDBRANCH  25  26
ENDBRANCH  24  25
ENDBRANCH   6  24
TORSDOF 6
