REMARK  Name = ZINC18116574
REMARK  7 active torsions:
REMARK  status: ('A' for Active; 'I' for Inactive)
REMARK    1  A    between atoms: C_1  and  C_2
REMARK    2  A    between atoms: C_2  and  O_3
REMARK    3  A    between atoms: O_3  and  C_4
REMARK    4  A    between atoms: C_7  and  N_10
REMARK    5  A    between atoms: N_10  and  C_11
REMARK    6  A    between atoms: C_11  and  N_13
REMARK    7  A    between atoms: N_13  and  N_14
REMARK                            x       y       z     vdW  Elec       q    Type
REMARK                         _______ _______ _______ _____ _____    ______ ____
ROOT
ATOM      1  N   UNL     1      -0.564  -2.985  -0.203  0.00  0.00    -0.217 N 
ATOM      2  H   UNL     1      -0.953  -1.982  -0.432  0.00  0.00    +0.176 HD
ENDROOT
BRANCH   1   3
ATOM      3  N   UNL     1       0.813  -3.180  -0.033  0.00  0.00    -0.175 NA
ATOM      4  C   UNL     1       1.648  -2.194  -0.258  0.00  0.00    +0.153 C 
ATOM      5  C   UNL     1       1.340  -0.865  -0.836  0.00  0.00    +0.031 A 
ATOM      6  C   UNL     1       0.166  -0.274  -1.291  0.00  0.00    +0.032 A 
ATOM      7  C   UNL     1       0.195   1.015  -1.788  0.00  0.00    +0.043 A 
ATOM      8  C   UNL     1       1.390   1.715  -1.831  0.00  0.00    +0.042 A 
ATOM      9  C   UNL     1       2.560   1.136  -1.380  0.00  0.00    +0.064 A 
ATOM     10  C   UNL     1       2.549  -0.161  -0.877  0.00  0.00    +0.062 A 
ATOM     11  N   UNL     1       3.566  -0.964  -0.368  0.00  0.00    -0.278 N 
ATOM     12  C   UNL     1       3.099  -2.166   0.011  0.00  0.00    +0.269 C 
ATOM     13  O   UNL     1       3.756  -3.071   0.490  0.00  0.00    -0.268 OA
ATOM     14 CL   UNL     1       4.048   2.029  -1.441  0.00  0.00    -0.082 Cl
ATOM     15 CL   UNL     1      -1.265   1.755  -2.365  0.00  0.00    -0.083 Cl
ATOM     16  H   UNL     1       4.596  -0.582  -0.318  0.00  0.00    +0.155 HD
ENDBRANCH   1   3
BRANCH   1  17
ATOM     17  C   UNL     1      -1.411  -4.026  -0.087  0.00  0.00    +0.154 C 
ATOM     18  S   UNL     1      -3.094  -3.788  -0.295  0.00  0.00    -0.017 S 
BRANCH  17  19
ATOM     19  N   UNL     1      -0.935  -5.255   0.194  0.00  0.00    -0.296 N 
ATOM     20  H   UNL     1       0.133  -5.393   0.420  0.00  0.00    +0.154 HD
BRANCH  19  24
ATOM     21  C   UNL     1      -3.506  -8.538   0.202  0.00  0.00    +0.121 A 
ATOM     22  C   UNL     1      -3.631  -7.562  -0.776  0.00  0.00    +0.047 A 
ATOM     23  C   UNL     1      -2.780  -6.474  -0.779  0.00  0.00    +0.027 A 
ATOM     24  C   UNL     1      -1.798  -6.358   0.197  0.00  0.00    +0.033 A 
ATOM     25  C   UNL     1      -1.671  -7.338   1.172  0.00  0.00    +0.027 A 
ATOM     26  C   UNL     1      -2.526  -8.422   1.178  0.00  0.00    +0.047 A 
BRANCH  21  27
ATOM     27  O   UNL     1      -4.344  -9.608   0.205  0.00  0.00    -0.492 OA
BRANCH  27  29
ATOM     28  C   UNL     1      -5.186 -11.697   1.081  0.00  0.00    +0.048 C 
ATOM     29  C   UNL     1      -4.159 -10.575   1.241  0.00  0.00    +0.225 C 
ENDBRANCH  27  29
ENDBRANCH  21  27
ENDBRANCH  19  24
ENDBRANCH  17  19
ENDBRANCH   1  17
TORSDOF 6
