REMARK  Name = ZINC49124428
REMARK  6 active torsions:
REMARK  status: ('A' for Active; 'I' for Inactive)
REMARK    1  A    between atoms: C_1  and  C_2
REMARK    2  A    between atoms: C_2  and  C_3
REMARK    3  A    between atoms: C_9  and  N_11
REMARK    4  A    between atoms: C_12  and  C_14
REMARK    5  A    between atoms: C_15  and  C_21
REMARK    6  A    between atoms: C_19  and  N_20
REMARK                            x       y       z     vdW  Elec       q    Type
REMARK                         _______ _______ _______ _____ _____    ______ ____
ROOT
ATOM      1  N   UNL     1      -0.692  -2.627  -1.011  0.00  0.00    -0.308 N 
ATOM      2  C   UNL     1      -0.107  -3.837  -0.905  0.00  0.00    +0.249 C 
ATOM      3  O   UNL     1      -0.179  -4.457   0.140  0.00  0.00    -0.270 OA
ATOM      4  H   UNL     1      -0.635  -2.133  -1.844  0.00  0.00    +0.149 HD
ENDROOT
BRANCH   2   5
ATOM      5  C   UNL     1       0.616  -4.406  -2.048  0.00  0.00    +0.098 A 
ATOM      6  C   UNL     1       1.990  -4.243  -2.341  0.00  0.00    +0.074 A 
ATOM      7  N   UNL     1       2.253  -4.899  -3.435  0.00  0.00    -0.177 NA
ATOM      8  N   UNL     1       1.084  -5.511  -3.898  0.00  0.00    -0.264 N 
ATOM      9  H   UNL     1       1.008  -6.060  -4.695  0.00  0.00    +0.190 HD
ATOM     10  C   UNL     1       0.080  -5.215  -3.048  0.00  0.00    +0.124 A 
ATOM     11  C   UNL     1       2.978  -3.446  -1.529  0.00  0.00    +0.068 C 
BRANCH  10  12
ATOM     12  N   UNL     1      -1.232  -5.632  -3.150  0.00  0.00    -0.343 N 
ATOM     13  H   UNL     1      -1.881  -5.360  -2.483  0.00  0.00    +0.144 HD
ATOM     14  H   UNL     1      -1.504  -6.198  -3.890  0.00  0.00    +0.144 HD
ENDBRANCH  10  12
ENDBRANCH   2   5
BRANCH   1  20
ATOM     15  C   UNL     1      -1.433  -0.534   0.013  0.00  0.00    +0.009 C 
ATOM     16  C   UNL     1      -2.135  -0.131  -1.286  0.00  0.00    +0.005 C 
ATOM     17  C   UNL     1      -3.571  -0.661  -1.275  0.00  0.00    +0.000 C 
ATOM     18  C   UNL     1      -3.551  -2.186  -1.157  0.00  0.00    +0.002 C 
ATOM     19  C   UNL     1      -2.849  -2.589   0.141  0.00  0.00    +0.022 C 
ATOM     20  C   UNL     1      -1.413  -2.059   0.130  0.00  0.00    +0.076 C 
BRANCH  15  22
ATOM     21  C   UNL     1      -0.019   1.526   0.010  0.00  0.00    +0.004 C 
ATOM     22  C   UNL     1       0.002  -0.004   0.002  0.00  0.00    +0.002 C 
ENDBRANCH  15  22
ENDBRANCH   1  20
TORSDOF 4
