REMARK  Name = ZINC08831321
REMARK  8 active torsions:
REMARK  status: ('A' for Active; 'I' for Inactive)
REMARK    1  A    between atoms: C_1  and  C_2
REMARK    2  A    between atoms: C_5  and  C_9
REMARK    3  A    between atoms: C_12  and  C_14
REMARK    4  A    between atoms: N_16  and  C_17
REMARK    5  A    between atoms: C_17  and  N_19
REMARK    6  A    between atoms: N_19  and  C_20
REMARK    7  A    between atoms: C_23  and  S_26
REMARK    8  A    between atoms: S_26  and  N_29
REMARK                            x       y       z     vdW  Elec       q    Type
REMARK                         _______ _______ _______ _____ _____    ______ ____
ROOT
ATOM      1  C   UNL     1      -3.159   5.712   7.182  0.00  0.00    +0.285 C 
ATOM      2  O   UNL     1      -2.350   6.478   6.692  0.00  0.00    -0.266 OA
ATOM      3  N   UNL     1      -3.430   4.540   6.575  0.00  0.00    -0.261 N 
ATOM      4  H   UNL     1      -4.075   3.929   6.966  0.00  0.00    +0.157 HD
ENDROOT
BRANCH   1   8
ATOM      5  C   UNL     1      -5.156   5.952  10.185  0.00  0.00    +0.136 A 
ATOM      6  C   UNL     1      -4.497   7.145  10.265  0.00  0.00    +0.050 A 
ATOM      7  C   UNL     1      -3.654   7.225   9.152  0.00  0.00    +0.055 A 
ATOM      8  C   UNL     1      -3.837   6.065   8.431  0.00  0.00    +0.190 A 
ATOM      9  O   UNL     1      -4.755   5.312   9.074  0.00  0.00    -0.450 OA
BRANCH   5  14
ATOM     10  C   UNL     1      -9.030   3.998  13.964  0.00  0.00    +0.045 C 
ATOM     11  C   UNL     1      -8.016   4.510  12.975  0.00  0.00    -0.032 A 
ATOM     12  C   UNL     1      -7.685   3.746  11.869  0.00  0.00    +0.005 A 
ATOM     13  C   UNL     1      -6.758   4.209  10.960  0.00  0.00    +0.012 A 
ATOM     14  C   UNL     1      -6.151   5.451  11.155  0.00  0.00    +0.019 A 
ATOM     15  C   UNL     1      -6.484   6.215  12.275  0.00  0.00    +0.031 A 
ATOM     16  C   UNL     1      -7.418   5.743  13.176  0.00  0.00    +0.045 A 
ATOM     17 CL   UNL     1      -7.839   6.693  14.566  0.00  0.00    -0.083 Cl
ENDBRANCH   5  14
ENDBRANCH   1   8
BRANCH   3  18
ATOM     18  C   UNL     1      -2.806   4.216   5.426  0.00  0.00    +0.141 C 
ATOM     19  S   UNL     1      -1.668   5.293   4.737  0.00  0.00    -0.018 S 
BRANCH  18  20
ATOM     20  N   UNL     1      -3.077   3.043   4.819  0.00  0.00    -0.297 N 
ATOM     21  H   UNL     1      -3.779   2.469   5.165  0.00  0.00    +0.154 HD
BRANCH  20  22
ATOM     22  C   UNL     1      -2.347   2.654   3.691  0.00  0.00    +0.033 A 
ATOM     23  C   UNL     1      -0.972   2.847   3.651  0.00  0.00    +0.025 A 
ATOM     24  C   UNL     1      -0.255   2.462   2.536  0.00  0.00    +0.030 A 
ATOM     25  C   UNL     1      -0.903   1.883   1.461  0.00  0.00    +0.105 A 
ATOM     26  C   UNL     1      -2.272   1.694   1.495  0.00  0.00    +0.030 A 
ATOM     27  C   UNL     1      -2.995   2.073   2.609  0.00  0.00    +0.025 A 
BRANCH  25  28
ATOM     28  S   UNL     1       0.017   1.392   0.040  0.00  0.00    +0.056 S 
ATOM     29  O   UNL     1       1.200   2.179   0.030  0.00  0.00    -0.153 OA
ATOM     30  O   UNL     1      -0.896   1.376  -1.049  0.00  0.00    -0.153 OA
BRANCH  28  31
ATOM     31  N   UNL     1       0.492  -0.175   0.282  0.00  0.00    -0.204 NA
ATOM     32  H   UNL     1       1.436  -0.399   0.295  0.00  0.00    +0.144 HD
ATOM     33  H   UNL     1      -0.172  -0.870   0.411  0.00  0.00    +0.144 HD
ENDBRANCH  28  31
ENDBRANCH  25  28
ENDBRANCH  20  22
ENDBRANCH  18  20
ENDBRANCH   3  18
TORSDOF 7
