REMARK  Name = ZINC42097559
REMARK  9 active torsions:
REMARK  status: ('A' for Active; 'I' for Inactive)
REMARK    1  A    between atoms: C_1  and  C_2
REMARK    2  A    between atoms: C_3  and  C_12
REMARK    3  A    between atoms: C_5  and  C_7
REMARK    4  A    between atoms: C_12  and  C_13
REMARK    5  A    between atoms: N_15  and  N_16
REMARK    6  A    between atoms: N_16  and  C_17
REMARK    7  A    between atoms: C_17  and  N_19
REMARK    8  A    between atoms: N_19  and  C_20
REMARK    9  A    between atoms: C_26  and  C_28
REMARK                            x       y       z     vdW  Elec       q    Type
REMARK                         _______ _______ _______ _____ _____    ______ ____
ROOT
ATOM      1  C   UNL     1      -3.000  -0.226  -1.406  0.00  0.00    +0.235 C 
ATOM      2  O   UNL     1      -2.250  -0.449  -2.333  0.00  0.00    -0.274 OA
ATOM      3  N   UNL     1      -4.269   0.159  -1.645  0.00  0.00    -0.235 N 
ATOM      4  H   UNL     1      -4.869   0.338  -0.904  0.00  0.00    +0.173 HD
ENDROOT
BRANCH   3   5
ATOM      5  N   UNL     1      -4.722   0.302  -2.963  0.00  0.00    -0.246 N 
ATOM      6  H   UNL     1      -4.122   0.123  -3.704  0.00  0.00    +0.172 HD
BRANCH   5   7
ATOM      7  C   UNL     1      -5.992   0.687  -3.201  0.00  0.00    +0.147 C 
ATOM      8  S   UNL     1      -6.545   0.861  -4.812  0.00  0.00    -0.017 S 
BRANCH   7   9
ATOM      9  N   UNL     1      -6.825   0.935  -2.172  0.00  0.00    -0.322 N 
ATOM     10  H   UNL     1      -6.512   0.836  -1.259  0.00  0.00    +0.148 HD
BRANCH   9  11
ATOM     11  C   UNL     1      -8.205   1.353  -2.431  0.00  0.00    +0.075 C 
ATOM     12  C   UNL     1      -9.080   0.118  -2.650  0.00  0.00    +0.022 C 
ATOM     13  C   UNL     1     -10.521   0.555  -2.921  0.00  0.00    +0.002 C 
ATOM     14  C   UNL     1     -11.048   1.347  -1.722  0.00  0.00    +0.000 C 
ATOM     15  C   UNL     1     -10.173   2.582  -1.502  0.00  0.00    +0.005 C 
ATOM     16  C   UNL     1      -8.732   2.145  -1.232  0.00  0.00    +0.006 C 
ATOM     17  C   UNL     1      -7.856   3.381  -1.012  0.00  0.00    +0.009 C 
ENDBRANCH   9  11
ENDBRANCH   7   9
ENDBRANCH   5   7
ENDBRANCH   3   5
BRANCH   1  18
ATOM     18  C   UNL     1      -2.513  -0.379   0.011  0.00  0.00    +0.156 C 
BRANCH  18  21
ATOM     19  C   UNL     1      -0.018   1.503   0.010  0.00  0.00    +0.088 C 
ATOM     20  C   UNL     1       0.002  -0.004   0.002  0.00  0.00    +0.126 A 
ATOM     21  C   UNL     1      -1.070  -0.815   0.003  0.00  0.00    +0.092 A 
ATOM     22  N   UNL     1      -0.628  -2.083  -0.006  0.00  0.00    -0.213 NA
ATOM     23  C   UNL     1       0.687  -2.069  -0.012  0.00  0.00    +0.234 A 
ATOM     24  O   UNL     1       1.099  -0.788  -0.013  0.00  0.00    -0.440 OA
BRANCH  23  25
ATOM     25  C   UNL     1       1.558  -3.253  -0.023  0.00  0.00    +0.074 A 
ATOM     26  C   UNL     1       2.939  -3.318  -0.024  0.00  0.00    +0.021 A 
ATOM     27  C   UNL     1       3.535  -4.558  -0.035  0.00  0.00    +0.008 A 
ATOM     28  C   UNL     1       2.756  -5.671  -0.044  0.00  0.00    +0.046 A 
ATOM     29  S   UNL     1       1.110  -4.981  -0.029  0.00  0.00    -0.092 S 
ENDBRANCH  23  25
ENDBRANCH  18  21
ENDBRANCH   1  18
TORSDOF 7
