REMARK  Name = ZINC40266412
REMARK  6 active torsions:
REMARK  status: ('A' for Active; 'I' for Inactive)
REMARK    1  A    between atoms: C_1  and  O_2
REMARK    2  A    between atoms: O_2  and  C_3
REMARK    3  A    between atoms: C_5  and  C_10
REMARK    4  A    between atoms: C_8  and  O_9
REMARK    5  A    between atoms: C_13  and  O_28
REMARK    6  A    between atoms: N_19  and  C_20
REMARK                            x       y       z     vdW  Elec       q    Type
REMARK                         _______ _______ _______ _____ _____    ______ ____
ROOT
ATOM      1  C   UNL     1       2.462   0.334   4.204  0.00  0.00    +0.080 C 
ATOM      2  C   UNL     1       1.823  -0.024   5.551  0.00  0.00    +0.110 C 
ATOM      3  C   UNL     1       2.358  -1.320   6.086  0.00  0.00    +0.190 C 
ATOM      4  N   UNL     1       3.575  -1.729   5.883  0.00  0.00    -0.197 NA
ATOM      5  C   UNL     1       4.409  -0.967   5.118  0.00  0.00    +0.165 A 
ATOM      6  C   UNL     1       3.936   0.026   4.296  0.00  0.00    +0.094 A 
ATOM      7  N   UNL     1       4.970   0.583   3.679  0.00  0.00    -0.237 NA
ATOM      8  C   UNL     1       6.076  -0.002   4.067  0.00  0.00    +0.206 A 
ATOM      9  N   UNL     1       5.765  -0.980   4.975  0.00  0.00    -0.283 N 
ENDROOT
BRANCH   9  10
ATOM     10  C   UNL     1       6.667  -1.831   5.629  0.00  0.00    +0.055 A 
ATOM     11  C   UNL     1       6.600  -1.986   7.007  0.00  0.00    +0.064 A 
ATOM     12  C   UNL     1       7.491  -2.827   7.651  0.00  0.00    +0.128 A 
ATOM     13  C   UNL     1       8.448  -3.513   6.923  0.00  0.00    +0.076 A 
ATOM     14  C   UNL     1       8.516  -3.358   5.548  0.00  0.00    +0.128 A 
ATOM     15  C   UNL     1       7.624  -2.523   4.900  0.00  0.00    +0.064 A 
ATOM     16  F   UNL     1       9.451  -4.028   4.839  0.00  0.00    -0.205 F 
ATOM     17  F   UNL     1       7.427  -2.978   8.992  0.00  0.00    -0.205 F 
ENDBRANCH   9  10
BRANCH   1  20
ATOM     18  C   UNL     1       0.626  -0.619   1.042  0.00  0.00    +0.162 A 
ATOM     19  C   UNL     1       1.202   0.137   2.051  0.00  0.00    +0.053 A 
ATOM     20  C   UNL     1       1.836  -0.490   3.108  0.00  0.00    -0.034 A 
ATOM     21  C   UNL     1       1.897  -1.870   3.161  0.00  0.00    +0.008 A 
ATOM     22  C   UNL     1       1.325  -2.630   2.158  0.00  0.00    +0.049 A 
ATOM     23  C   UNL     1       0.683  -2.008   1.099  0.00  0.00    +0.158 A 
BRANCH  18  25
ATOM     24  C   UNL     1      -0.017   1.425   0.010  0.00  0.00    +0.277 C 
ATOM     25  O   UNL     1       0.002  -0.004   0.002  0.00  0.00    -0.491 OA
ENDBRANCH  18  25
BRANCH  23  26
ATOM     26  O   UNL     1       0.115  -2.754   0.114  0.00  0.00    -0.503 OA
ATOM     27  H   UNL     1       0.711  -2.957  -0.620  0.00  0.00    +0.292 HD
ENDBRANCH  23  26
ENDBRANCH   1  20
BRANCH   3  28
ATOM     28  O   UNL     1       1.534  -2.100   6.817  0.00  0.00    -0.495 OA
ATOM     29  H   UNL     1       1.942  -2.919   7.130  0.00  0.00    +0.293 HD
ENDBRANCH   3  28
TORSDOF 5
