REMARK  Name = ZINC63409028
REMARK  10 active torsions:
REMARK  status: ('A' for Active; 'I' for Inactive)
REMARK    1  A    between atoms: C_1  and  C_2
REMARK    2  A    between atoms: C_6  and  C_8
REMARK    3  A    between atoms: C_8  and  C_9
REMARK    4  A    between atoms: C_8  and  C_10
REMARK    5  A    between atoms: C_8  and  C_11
REMARK    6  A    between atoms: C_11  and  N_12
REMARK    7  A    between atoms: N_15  and  N_16
REMARK    8  A    between atoms: C_17  and  C_19
REMARK    9  A    between atoms: C_19  and  O_20
REMARK   10  A    between atoms: O_20  and  C_21
REMARK                            x       y       z     vdW  Elec       q    Type
REMARK                         _______ _______ _______ _____ _____    ______ ____
ROOT
ATOM      1  N   UNL     1       0.088  -5.086   3.465  0.00  0.00    -0.297 N 
ATOM      2  C   UNL     1       0.105  -6.434   3.458  0.00  0.00    +0.316 C 
ATOM      3  O   UNL     1       0.108  -7.036   2.402  0.00  0.00    -0.251 OA
ATOM      4  N   UNL     1       0.120  -7.114   4.621  0.00  0.00    -0.218 N 
ATOM      5  H   UNL     1       0.086  -4.606   4.308  0.00  0.00    +0.150 HD
ATOM      6  H   UNL     1       0.133  -8.084   4.616  0.00  0.00    +0.174 HD
ENDROOT
BRANCH   4   7
ATOM      7  N   UNL     1       0.117  -6.420   5.838  0.00  0.00    -0.230 N 
ATOM      8  C   UNL     1       0.132  -7.101   7.002  0.00  0.00    +0.267 C 
ATOM      9  O   UNL     1       0.148  -8.313   6.995  0.00  0.00    -0.271 OA
ATOM     10  H   UNL     1       0.105  -5.450   5.844  0.00  0.00    +0.173 HD
BRANCH   8  11
ATOM     11  C   UNL     1       0.129  -6.354   8.311  0.00  0.00    +0.326 C 
BRANCH  11  12
ATOM     12  O   UNL     1       0.146  -7.289   9.392  0.00  0.00    -0.480 OA
BRANCH  12  13
ATOM     13  C   UNL     1       0.146  -6.776  10.651  0.00  0.00    +0.156 A 
ATOM     14  C   UNL     1       0.124  -5.403  10.842  0.00  0.00    +0.048 A 
ATOM     15  C   UNL     1       0.124  -4.883  12.123  0.00  0.00    +0.004 A 
ATOM     16  C   UNL     1       0.146  -5.731  13.214  0.00  0.00    +0.003 A 
ATOM     17  C   UNL     1       0.169  -7.101  13.029  0.00  0.00    +0.042 A 
ATOM     18  C   UNL     1       0.163  -7.627  11.749  0.00  0.00    +0.165 A 
ATOM     19  F   UNL     1       0.179  -8.965  11.567  0.00  0.00    -0.202 F 
ENDBRANCH  12  13
ENDBRANCH  11  12
ENDBRANCH   8  11
ENDBRANCH   4   7
BRANCH   1  20
ATOM     20  C   UNL     1       0.072  -4.347   2.201  0.00  0.00    +0.116 C 
BRANCH  20  21
ATOM     21  C   UNL     1       0.054  -2.845   2.489  0.00  0.00    +0.006 C 
ATOM     22  C   UNL     1       1.302  -2.463   3.286  0.00  0.00    +0.017 C 
ATOM     23  C   UNL     1      -1.196  -2.495   3.299  0.00  0.00    +0.017 C 
BRANCH  21  29
ATOM     24  C   UNL     1      -0.018   1.503   0.010  0.00  0.00    +0.044 C 
ATOM     25  C   UNL     1       0.002  -0.004   0.002  0.00  0.00    -0.050 A 
ATOM     26  C   UNL     1       0.006  -0.689  -1.199  0.00  0.00    +0.003 A 
ATOM     27  C   UNL     1       0.025  -2.071  -1.207  0.00  0.00    +0.001 A 
ATOM     28  C   UNL     1       0.040  -2.768  -0.013  0.00  0.00    +0.004 A 
ATOM     29  C   UNL     1       0.037  -2.084   1.188  0.00  0.00    -0.040 A 
ATOM     30  C   UNL     1       0.023  -0.702   1.195  0.00  0.00    +0.007 A 
ENDBRANCH  21  29
ENDBRANCH  20  21
ENDBRANCH   1  20
TORSDOF 7
