REMARK  Name = ZINC36546782
REMARK  11 active torsions:
REMARK  status: ('A' for Active; 'I' for Inactive)
REMARK    1  A    between atoms: C_1  and  C_2
REMARK    2  A    between atoms: C_2  and  C_34
REMARK    3  A    between atoms: C_3  and  C_4
REMARK    4  A    between atoms: N_6  and  C_7
REMARK    5  A    between atoms: N_6  and  C_14
REMARK    6  A    between atoms: C_14  and  C_16
REMARK    7  A    between atoms: C_14  and  C_25
REMARK    8  A    between atoms: C_17  and  O_24
REMARK    9  A    between atoms: C_19  and  O_23
REMARK   10  A    between atoms: C_21  and  O_22
REMARK   11  A    between atoms: N_27  and  C_28
REMARK                            x       y       z     vdW  Elec       q    Type
REMARK                         _______ _______ _______ _____ _____    ______ ____
ROOT
ATOM      1  C   UNL     1       0.244  -0.076   5.125  0.00  0.00    +0.204 C 
ENDROOT
BRANCH   1   2
ATOM      2  C   UNL     1       1.679  -0.521   5.001  0.00  0.00    +0.065 A 
ATOM      3  C   UNL     1       1.983  -1.707   4.348  0.00  0.00    +0.129 A 
ATOM      4  C   UNL     1       3.303  -2.116   4.234  0.00  0.00    +0.091 A 
ATOM      5  C   UNL     1       4.318  -1.340   4.771  0.00  0.00    +0.124 A 
ATOM      6  C   UNL     1       4.014  -0.154   5.423  0.00  0.00    +0.091 A 
ATOM      7  C   UNL     1       2.695   0.257   5.534  0.00  0.00    +0.129 A 
BRANCH   7   8
ATOM      8  O   UNL     1       2.397   1.421   6.168  0.00  0.00    -0.506 OA
ATOM      9  H   UNL     1       2.243   1.324   7.117  0.00  0.00    +0.292 HD
ENDBRANCH   7   8
BRANCH   5  10
ATOM     10  O   UNL     1       5.612  -1.742   4.660  0.00  0.00    -0.507 OA
ATOM     11  H   UNL     1       6.056  -1.421   3.863  0.00  0.00    +0.292 HD
ENDBRANCH   5  10
BRANCH   3  12
ATOM     12  O   UNL     1       0.987  -2.467   3.822  0.00  0.00    -0.506 OA
ATOM     13  H   UNL     1       0.828  -2.310   2.881  0.00  0.00    +0.292 HD
ENDBRANCH   3  12
ENDBRANCH   1   2
BRANCH   1  14
ATOM     14  C   UNL     1      -0.480  -0.979   6.090  0.00  0.00    +0.239 C 
ATOM     15  O   UNL     1      -0.917  -2.045   5.712  0.00  0.00    -0.273 OA
ATOM     16  N   UNL     1      -0.642  -0.602   7.374  0.00  0.00    -0.311 N 
ATOM     17  H   UNL     1      -0.292   0.250   7.677  0.00  0.00    +0.149 HD
BRANCH  16  18
ATOM     18  C   UNL     1      -1.345  -1.480   8.312  0.00  0.00    +0.073 C 
ATOM     19  C   UNL     1      -2.852  -1.238   8.205  0.00  0.00    +0.022 C 
ATOM     20  C   UNL     1      -3.587  -2.154   9.185  0.00  0.00    +0.002 C 
ATOM     21  C   UNL     1      -3.123  -1.853  10.611  0.00  0.00    +0.000 C 
ATOM     22  C   UNL     1      -1.616  -2.096  10.719  0.00  0.00    +0.002 C 
ATOM     23  C   UNL     1      -0.881  -1.179   9.739  0.00  0.00    +0.022 C 
ENDBRANCH  16  18
ENDBRANCH   1  14
BRANCH   1  26
ATOM     24  C   UNL     1       0.242   0.304   2.718  0.00  0.00    +0.245 C 
ATOM     25  O   UNL     1       1.363   0.765   2.820  0.00  0.00    -0.270 OA
ATOM     26  N   UNL     1      -0.404  -0.144   3.813  0.00  0.00    -0.250 N 
BRANCH  26  27
ATOM     27  C   UNL     1      -1.693  -0.675   3.696  0.00  0.00    +0.056 A 
ATOM     28  C   UNL     1      -1.870  -1.993   3.297  0.00  0.00    +0.025 A 
ATOM     29  C   UNL     1      -3.144  -2.514   3.183  0.00  0.00    +0.002 A 
ATOM     30  C   UNL     1      -4.244  -1.724   3.465  0.00  0.00    +0.002 A 
ATOM     31  C   UNL     1      -4.072  -0.410   3.861  0.00  0.00    +0.022 A 
ATOM     32  C   UNL     1      -2.800   0.115   3.984  0.00  0.00    +0.062 A 
ATOM     33 CL   UNL     1      -2.584   1.762   4.490  0.00  0.00    -0.082 Cl
ENDBRANCH  26  27
BRANCH  24  36
ATOM     34  C   UNL     1       1.381   1.676   0.525  0.00  0.00    +0.039 C 
ATOM     35  C   UNL     1       0.172   0.795   0.343  0.00  0.00    -0.071 C 
ATOM     36  C   UNL     1      -0.408   0.236   1.401  0.00  0.00    +0.066 C 
ATOM     37  C   UNL     1      -0.379   0.547  -1.038  0.00  0.00    +0.039 C 
ENDBRANCH  24  36
ENDBRANCH   1  26
TORSDOF 9
