REMARK  Name = ZINC66123347
REMARK  12 active torsions:
REMARK  status: ('A' for Active; 'I' for Inactive)
REMARK    1  A    between atoms: C_1  and  C_2
REMARK    2  A    between atoms: C_2  and  C_4
REMARK    3  A    between atoms: C_2  and  N_21
REMARK    4  A    between atoms: C_4  and  C_5
REMARK    5  A    between atoms: N_7  and  N_8
REMARK    6  A    between atoms: N_8  and  C_9
REMARK    7  A    between atoms: C_9  and  N_11
REMARK    8  A    between atoms: N_11  and  C_12
REMARK    9  A    between atoms: C_17  and  C_18
REMARK   10  A    between atoms: C_18  and  C_19
REMARK   11  A    between atoms: C_18  and  C_20
REMARK   12  A    between atoms: C_22  and  C_24
REMARK                            x       y       z     vdW  Elec       q    Type
REMARK                         _______ _______ _______ _____ _____    ______ ____
ROOT
ATOM      1  C   UNL     1       1.218  -1.860  -1.114  0.00  0.00    +0.231 C 
ATOM      2  O   UNL     1       0.424  -2.382  -0.360  0.00  0.00    -0.274 OA
ATOM      3  N   UNL     1       1.670  -2.535  -2.190  0.00  0.00    -0.235 N 
ATOM      4  H   UNL     1       2.305  -2.117  -2.793  0.00  0.00    +0.173 HD
ENDROOT
BRANCH   3   5
ATOM      5  N   UNL     1       1.223  -3.839  -2.437  0.00  0.00    -0.246 N 
ATOM      6  H   UNL     1       0.588  -4.257  -1.834  0.00  0.00    +0.172 HD
BRANCH   5   7
ATOM      7  C   UNL     1       1.675  -4.514  -3.512  0.00  0.00    +0.151 C 
ATOM      8  S   UNL     1       1.129  -6.109  -3.814  0.00  0.00    -0.017 S 
BRANCH   7   9
ATOM      9  N   UNL     1       2.557  -3.934  -4.350  0.00  0.00    -0.296 N 
ATOM     10  H   UNL     1       2.806  -3.005  -4.225  0.00  0.00    +0.154 HD
BRANCH   9  11
ATOM     11  C   UNL     1       3.114  -4.672  -5.400  0.00  0.00    +0.036 A 
ATOM     12  C   UNL     1       3.577  -5.963  -5.175  0.00  0.00    +0.023 A 
ATOM     13  C   UNL     1       4.126  -6.688  -6.213  0.00  0.00    +0.002 A 
ATOM     14  C   UNL     1       4.216  -6.132  -7.476  0.00  0.00    +0.000 A 
ATOM     15  C   UNL     1       3.757  -4.848  -7.703  0.00  0.00    +0.006 A 
ATOM     16  C   UNL     1       3.200  -4.119  -6.670  0.00  0.00    -0.024 A 
BRANCH  16  17
ATOM     17  C   UNL     1       2.694  -2.721  -6.920  0.00  0.00    +0.015 C 
ATOM     18  C   UNL     1       3.850  -1.837  -7.391  0.00  0.00    +0.012 C 
ATOM     19  C   UNL     1       1.608  -2.758  -7.998  0.00  0.00    +0.012 C 
ENDBRANCH  16  17
ENDBRANCH   9  11
ENDBRANCH   7   9
ENDBRANCH   5   7
ENDBRANCH   3   5
BRANCH   1  20
ATOM     20  C   UNL     1       1.699  -0.457  -0.849  0.00  0.00    +0.119 C 
BRANCH  20  22
ATOM     21  C   UNL     1       1.427   1.542   0.625  0.00  0.00    +0.028 C 
ATOM     22  C   UNL     1       1.037   0.077   0.424  0.00  0.00    +0.079 C 
BRANCH  22  23
ATOM     23  N   UNL     1       1.485  -0.711   1.575  0.00  0.00    -0.312 N 
ATOM     24  C   UNL     1       0.714  -0.792   2.677  0.00  0.00    +0.216 C 
ATOM     25  O   UNL     1      -0.350  -0.212   2.716  0.00  0.00    -0.276 OA
ATOM     26  H   UNL     1       2.337  -1.174   1.543  0.00  0.00    +0.149 HD
BRANCH  24  27
ATOM     27  C   UNL     1       1.175  -1.602   3.861  0.00  0.00    +0.075 C 
ATOM     28  C   UNL     1       1.306  -3.088   3.466  0.00  0.00    +0.013 C 
ATOM     29  C   UNL     1       0.829  -3.858   4.722  0.00  0.00    +0.001 C 
ATOM     30  C   UNL     1      -0.344  -2.985   5.234  0.00  0.00    +0.001 C 
ATOM     31  C   UNL     1       0.127  -1.537   4.985  0.00  0.00    +0.013 C 
ENDBRANCH  24  27
ENDBRANCH  22  23
ENDBRANCH  20  22
ENDBRANCH   1  20
TORSDOF 9
