REMARK  Name = ZINC07366585
REMARK  11 active torsions:
REMARK  status: ('A' for Active; 'I' for Inactive)
REMARK    1  A    between atoms: C_1  and  C_2
REMARK    2  A    between atoms: C_2  and  C_3
REMARK    3  A    between atoms: C_3  and  C_4
REMARK    4  A    between atoms: C_4  and  O_5
REMARK    5  A    between atoms: O_5  and  C_6
REMARK    6  A    between atoms: C_11  and  C_12
REMARK    7  A    between atoms: N_14  and  C_15
REMARK    8  A    between atoms: C_15  and  N_17
REMARK    9  A    between atoms: N_17  and  C_18
REMARK   10  A    between atoms: C_21  and  S_24
REMARK   11  A    between atoms: S_24  and  N_27
REMARK                            x       y       z     vdW  Elec       q    Type
REMARK                         _______ _______ _______ _____ _____    ______ ____
ROOT
ATOM      1  C   UNL     1      -0.070   1.734   0.404  0.00  0.00    +0.141 C 
ATOM      2  S   UNL     1      -0.128   0.086   0.867  0.00  0.00    -0.018 S 
ENDROOT
BRANCH   1   5
ATOM      3  C   UNL     1       2.231   1.763   0.794  0.00  0.00    +0.253 C 
ATOM      4  O   UNL     1       2.190   0.593   1.123  0.00  0.00    -0.270 OA
ATOM      5  N   UNL     1       1.103   2.396   0.416  0.00  0.00    -0.263 N 
ATOM      6  H   UNL     1       1.136   3.330   0.153  0.00  0.00    +0.157 HD
BRANCH   3  12
ATOM      7  C   UNL     1       4.691   1.833   1.200  0.00  0.00    +0.133 A 
ATOM      8  C   UNL     1       5.893   2.525   1.208  0.00  0.00    +0.046 A 
ATOM      9  C   UNL     1       5.929   3.853   0.832  0.00  0.00    +0.004 A 
ATOM     10  C   UNL     1       4.769   4.504   0.444  0.00  0.00    +0.001 A 
ATOM     11  C   UNL     1       3.568   3.831   0.424  0.00  0.00    +0.017 A 
ATOM     12  C   UNL     1       3.515   2.488   0.807  0.00  0.00    +0.079 A 
BRANCH   7  13
ATOM     13  O   UNL     1       4.653   0.528   1.568  0.00  0.00    -0.491 OA
BRANCH  13  14
ATOM     14  C   UNL     1       5.890  -0.073   1.955  0.00  0.00    +0.229 C 
BRANCH  14  15
ATOM     15  C   UNL     1       5.651  -1.535   2.334  0.00  0.00    +0.041 C 
BRANCH  15  17
ATOM     16  C   UNL     1       6.736  -3.641   3.128  0.00  0.00    +0.004 C 
ATOM     17  C   UNL     1       6.976  -2.179   2.749  0.00  0.00    -0.000 C 
ENDBRANCH  15  17
ENDBRANCH  14  15
ENDBRANCH  13  14
ENDBRANCH   7  13
ENDBRANCH   3  12
ENDBRANCH   1   5
BRANCH   1  18
ATOM     18  N   UNL     1      -1.197   2.366   0.021  0.00  0.00    -0.297 N 
ATOM     19  H   UNL     1      -1.176   3.314  -0.183  0.00  0.00    +0.154 HD
BRANCH  18  20
ATOM     20  C   UNL     1      -2.397   1.655  -0.083  0.00  0.00    +0.033 A 
ATOM     21  C   UNL     1      -3.216   1.829  -1.191  0.00  0.00    +0.025 A 
ATOM     22  C   UNL     1      -4.398   1.121  -1.293  0.00  0.00    +0.030 A 
ATOM     23  C   UNL     1      -4.771   0.248  -0.288  0.00  0.00    +0.105 A 
ATOM     24  C   UNL     1      -3.961   0.076   0.819  0.00  0.00    +0.030 A 
ATOM     25  C   UNL     1      -2.775   0.776   0.924  0.00  0.00    +0.025 A 
BRANCH  23  26
ATOM     26  S   UNL     1      -6.282  -0.649  -0.419  0.00  0.00    +0.056 S 
ATOM     27  O   UNL     1      -6.593  -0.721  -1.804  0.00  0.00    -0.153 OA
ATOM     28  O   UNL     1      -6.139  -1.807   0.391  0.00  0.00    -0.153 OA
BRANCH  26  29
ATOM     29  N   UNL     1      -7.463   0.276   0.283  0.00  0.00    -0.204 NA
ATOM     30  H   UNL     1      -7.239   1.140   0.664  0.00  0.00    +0.144 HD
ATOM     31  H   UNL     1      -8.377  -0.045   0.313  0.00  0.00    +0.144 HD
ENDBRANCH  26  29
ENDBRANCH  23  26
ENDBRANCH  18  20
ENDBRANCH   1  18
TORSDOF 10
