REMARK  Name = ZINC19929121
REMARK  10 active torsions:
REMARK  status: ('A' for Active; 'I' for Inactive)
REMARK    1  A    between atoms: C_1  and  O_2
REMARK    2  A    between atoms: O_2  and  C_3
REMARK    3  A    between atoms: C_6  and  C_11
REMARK    4  A    between atoms: C_8  and  O_9
REMARK    5  A    between atoms: O_9  and  C_10
REMARK    6  A    between atoms: C_12  and  C_30
REMARK    7  A    between atoms: C_13  and  N_29
REMARK    8  A    between atoms: C_17  and  N_28
REMARK    9  A    between atoms: C_18  and  C_20
REMARK   10  A    between atoms: C_20  and  C_22
REMARK                            x       y       z     vdW  Elec       q    Type
REMARK                         _______ _______ _______ _____ _____    ______ ____
ROOT
ATOM      1  C   UNL     1      -2.971  -3.801   0.047  0.00  0.00    +0.014 A 
ATOM      2  C   UNL     1      -4.336  -4.094  -0.081  0.00  0.00    +0.100 A 
ATOM      3  C   UNL     1      -5.280  -3.049  -0.066  0.00  0.00    +0.136 A 
ATOM      4  N   UNL     1      -4.881  -1.794   0.068  0.00  0.00    -0.224 NA
ATOM      5  C   UNL     1      -3.609  -1.476   0.192  0.00  0.00    +0.113 A 
ATOM      6  C   UNL     1      -2.572  -2.438   0.191  0.00  0.00    +0.038 A 
ATOM      7  C   UNL     1      -1.231  -1.904   0.337  0.00  0.00    +0.053 A 
ATOM      8  C   UNL     1      -1.082  -0.533   0.463  0.00  0.00    +0.083 A 
ATOM      9  S   UNL     1      -2.757   0.070   0.393  0.00  0.00    -0.063 S 
ENDROOT
BRANCH   1  13
ATOM     10  C   UNL     1      -0.071  -6.910   0.002  0.00  0.00    +0.162 A 
ATOM     11  C   UNL     1      -0.202  -6.067  -1.092  0.00  0.00    +0.050 A 
ATOM     12  C   UNL     1      -1.141  -5.058  -1.081  0.00  0.00    +0.012 A 
ATOM     13  C   UNL     1      -1.964  -4.883   0.033  0.00  0.00    -0.012 A 
ATOM     14  C   UNL     1      -1.830  -5.728   1.137  0.00  0.00    +0.058 A 
ATOM     15  C   UNL     1      -0.890  -6.741   1.117  0.00  0.00    +0.162 A 
BRANCH  10  17
ATOM     16  C   UNL     1       1.662  -8.020  -1.188  0.00  0.00    +0.277 C 
ATOM     17  O   UNL     1       0.856  -7.903  -0.013  0.00  0.00    -0.491 OA
ENDBRANCH  10  17
BRANCH  15  18
ATOM     18  O   UNL     1      -0.760  -7.569   2.188  0.00  0.00    -0.491 OA
ATOM     19  C   UNL     1      -1.632  -7.337   3.297  0.00  0.00    +0.277 C 
ENDBRANCH  15  18
ENDBRANCH   1  13
BRANCH   7  20
ATOM     20  N   UNL     1      -0.129  -2.743   0.351  0.00  0.00    -0.356 N 
ATOM     21  H   UNL     1       0.881  -2.322   0.463  0.00  0.00    +0.142 HD
ATOM     22  H   UNL     1      -0.264  -3.830   0.250  0.00  0.00    +0.142 HD
ENDBRANCH   7  20
BRANCH   3  23
ATOM     23  N   UNL     1      -6.627  -3.334  -0.192  0.00  0.00    -0.342 N 
ATOM     24  H   UNL     1      -7.365  -2.519  -0.181  0.00  0.00    +0.144 HD
ATOM     25  H   UNL     1      -6.960  -4.376  -0.304  0.00  0.00    +0.144 HD
ENDBRANCH   3  23
BRANCH   8  26
ATOM     26  C   UNL     1       0.110   0.207   0.616  0.00  0.00    +0.202 C 
ATOM     27  O   UNL     1       1.168  -0.371   0.793  0.00  0.00    -0.286 OA
BRANCH  26  28
ATOM     28  C   UNL     1       0.075   1.685   0.562  0.00  0.00    +0.023 A 
ATOM     29  C   UNL     1      -0.953   2.337  -0.121  0.00  0.00    +0.012 A 
ATOM     30  C   UNL     1      -0.983   3.716  -0.164  0.00  0.00    +0.001 A 
ATOM     31  C   UNL     1       0.009   4.452   0.460  0.00  0.00    +0.000 A 
ATOM     32  C   UNL     1       1.034   3.812   1.133  0.00  0.00    +0.001 A 
ATOM     33  C   UNL     1       1.073   2.434   1.188  0.00  0.00    +0.012 A 
ENDBRANCH  26  28
ENDBRANCH   8  26
BRANCH   2  34
ATOM     34  C   UNL     1      -4.769  -5.451  -0.227  0.00  0.00    +0.103 C 
ATOM     35  N   UNL     1      -5.112  -6.528  -0.342  0.00  0.00    -0.191 NA
ENDBRANCH   2  34
TORSDOF 8
