REMARK  Name = ZINC12419488
REMARK  6 active torsions:
REMARK  status: ('A' for Active; 'I' for Inactive)
REMARK    1  A    between atoms: C_1  and  O_2
REMARK    2  A    between atoms: O_2  and  C_3
REMARK    3  A    between atoms: C_5  and  C_17
REMARK    4  A    between atoms: C_8  and  O_9
REMARK    5  A    between atoms: O_9  and  C_10
REMARK    6  A    between atoms: C_10  and  C_11
REMARK                            x       y       z     vdW  Elec       q    Type
REMARK                         _______ _______ _______ _____ _____    ______ ____
ROOT
ATOM      1  C   UNL     1       5.738  -1.847  -2.877  0.00  0.00    +0.162 A 
ATOM      2  C   UNL     1       6.938  -2.512  -3.070  0.00  0.00    +0.053 A 
ATOM      3  C   UNL     1       7.681  -2.927  -1.980  0.00  0.00    -0.035 A 
ATOM      4  C   UNL     1       7.231  -2.676  -0.697  0.00  0.00    +0.008 A 
ATOM      5  C   UNL     1       6.037  -2.008  -0.498  0.00  0.00    +0.050 A 
ATOM      6  C   UNL     1       5.288  -1.589  -1.586  0.00  0.00    +0.162 A 
ENDROOT
BRANCH   3   7
ATOM      7  C   UNL     1       8.982  -3.656  -2.191  0.00  0.00    +0.068 C 
ATOM      8  C   UNL     1      10.125  -2.880  -1.520  0.00  0.00    +0.109 C 
ATOM      9  C   UNL     1      10.125  -3.115  -0.037  0.00  0.00    +0.219 C 
ATOM     10  O   UNL     1      10.399  -2.186   0.694  0.00  0.00    -0.275 OA
ATOM     11  N   UNL     1       9.836  -4.303   0.521  0.00  0.00    -0.270 N 
ATOM     12  C   UNL     1       9.293  -5.330  -0.297  0.00  0.00    +0.138 A 
ATOM     13  C   UNL     1       8.909  -5.006  -1.567  0.00  0.00    +0.041 A 
ATOM     14  S   UNL     1       8.338  -6.553  -2.206  0.00  0.00    -0.055 S 
ATOM     15  C   UNL     1       8.633  -7.498  -0.775  0.00  0.00    +0.158 A 
ATOM     16  N   UNL     1       9.129  -6.601   0.056  0.00  0.00    -0.210 NA
ATOM     17  N   UNL     1       8.405  -8.848  -0.563  0.00  0.00    -0.337 N 
ATOM     18  H   UNL     1       9.995  -4.457   1.465  0.00  0.00    +0.156 HD
ATOM     19  H   UNL     1       8.031  -9.394  -1.272  0.00  0.00    +0.144 HD
ATOM     20  H   UNL     1       8.619  -9.247   0.295  0.00  0.00    +0.144 HD
ENDBRANCH   3   7
BRANCH   1  22
ATOM     21  C   UNL     1       5.527  -1.742  -5.244  0.00  0.00    +0.277 C 
ATOM     22  O   UNL     1       5.003  -1.443  -3.948  0.00  0.00    -0.491 OA
ENDBRANCH   1  22
BRANCH   6  23
ATOM     23  O   UNL     1       4.113  -0.932  -1.392  0.00  0.00    -0.484 OA
BRANCH  23  24
ATOM     24  C   UNL     1       3.711  -0.707  -0.039  0.00  0.00    +0.264 C 
BRANCH  24  25
ATOM     25  C   UNL     1       2.396   0.029  -0.022  0.00  0.00    -0.010 A 
ATOM     26  C   UNL     1       1.208  -0.679  -0.014  0.00  0.00    +0.007 A 
ATOM     27  C   UNL     1       0.002  -0.004   0.002  0.00  0.00    +0.000 A 
ATOM     28  C   UNL     1      -0.017   1.378   0.010  0.00  0.00    +0.000 A 
ATOM     29  C   UNL     1       1.171   2.086   0.002  0.00  0.00    +0.000 A 
ATOM     30  C   UNL     1       2.377   1.411  -0.014  0.00  0.00    +0.007 A 
ENDBRANCH  24  25
ENDBRANCH  23  24
ENDBRANCH   6  23
TORSDOF 5
