REMARK  Name = ZINC09404616
REMARK  5 active torsions:
REMARK  status: ('A' for Active; 'I' for Inactive)
REMARK    1  A    between atoms: C_8  and  C_10
REMARK    2  A    between atoms: N_12  and  C_13
REMARK    3  A    between atoms: C_13  and  N_15
REMARK    4  A    between atoms: N_15  and  C_16
REMARK    5  A    between atoms: C_17  and  C_25
REMARK                            x       y       z     vdW  Elec       q    Type
REMARK                         _______ _______ _______ _____ _____    ______ ____
ROOT
ATOM      1  C   UNL     1       3.699   8.701   0.015  0.00  0.00    +0.141 C 
ATOM      2  S   UNL     1       5.361   8.290  -0.002  0.00  0.00    -0.018 S 
ENDROOT
BRANCH   1   5
ATOM      3  C   UNL     1       3.139   6.435   0.007  0.00  0.00    +0.258 C 
ATOM      4  O   UNL     1       4.320   6.143  -0.004  0.00  0.00    -0.269 OA
ATOM      5  N   UNL     1       2.765   7.730   0.018  0.00  0.00    -0.263 N 
ATOM      6  H   UNL     1       1.823   7.963   0.027  0.00  0.00    +0.157 HD
BRANCH   3  14
ATOM      7  C   UNL     1      -0.013   1.076   0.008  0.00  0.00    +0.001 A 
ATOM      8  C   UNL     1      -1.235   1.737   0.017  0.00  0.00    +0.001 A 
ATOM      9  C   UNL     1      -1.261   3.117   0.030  0.00  0.00    +0.016 A 
ATOM     10  C   UNL     1      -0.075   3.819   0.022  0.00  0.00    +0.021 A 
ATOM     11  C   UNL     1       1.183   3.173   0.007  0.00  0.00    +0.008 A 
ATOM     12  C   UNL     1       1.164   1.754   0.000  0.00  0.00    +0.010 A 
ATOM     13  C   UNL     1       2.301   4.028   0.002  0.00  0.00    +0.068 A 
ATOM     14  C   UNL     1       2.122   5.378   0.011  0.00  0.00    +0.094 A 
ATOM     15  S   UNL     1       0.345   5.544   0.028  0.00  0.00    -0.082 S 
ATOM     16 CL   UNL     1       3.905   3.364  -0.017  0.00  0.00    -0.082 Cl
ENDBRANCH   3  14
ENDBRANCH   1   5
BRANCH   1  17
ATOM     17  N   UNL     1       3.325   9.996   0.025  0.00  0.00    -0.291 N 
ATOM     18  H   UNL     1       2.384  10.229   0.035  0.00  0.00    +0.154 HD
BRANCH  17  19
ATOM     19  C   UNL     1       4.286  10.995   0.022  0.00  0.00    +0.084 A 
ATOM     20  C   UNL     1       4.100  12.370   0.026  0.00  0.00    +0.068 A 
ATOM     21  C   UNL     1       5.287  13.208   0.026  0.00  0.00    -0.023 A 
ATOM     22  C   UNL     1       6.462  12.541   0.012  0.00  0.00    -0.004 A 
ATOM     23  S   UNL     1       6.011  10.830   0.006  0.00  0.00    -0.077 S 
ATOM     24  C   UNL     1       7.837  13.134   0.002  0.00  0.00    +0.043 C 
ATOM     25  C   UNL     1       7.720  14.621  -0.367  0.00  0.00    +0.005 C 
ATOM     26  C   UNL     1       6.616  15.255   0.483  0.00  0.00    +0.005 C 
ATOM     27  C   UNL     1       5.250  14.731   0.036  0.00  0.00    +0.037 C 
BRANCH  20  28
ATOM     28  C   UNL     1       2.756  12.956   0.033  0.00  0.00    +0.244 C 
ATOM     29  O   UNL     1       2.204  13.197   1.091  0.00  0.00    -0.270 OA
ATOM     30  N   UNL     1       2.133  13.227  -1.130  0.00  0.00    -0.325 N 
ATOM     31  H   UNL     1       2.573  13.034  -1.973  0.00  0.00    +0.145 HD
ATOM     32  H   UNL     1       1.244  13.614  -1.125  0.00  0.00    +0.145 HD
ENDBRANCH  20  28
ENDBRANCH  17  19
ENDBRANCH   1  17
TORSDOF 5
