REMARK  Name = ZINC40133614
REMARK  3 active torsions:
REMARK  status: ('A' for Active; 'I' for Inactive)
REMARK    1  A    between atoms: C_1  and  C_2
REMARK    2  A    between atoms: C_6  and  C_7
REMARK    3  A    between atoms: N_9  and  C_10
REMARK                            x       y       z     vdW  Elec       q    Type
REMARK                         _______ _______ _______ _____ _____    ______ ____
ROOT
ATOM      1  C   UNL     1       0.036  -0.395   2.490  0.00  0.00    +0.284 C 
ATOM      2  O   UNL     1       0.016   0.792   2.759  0.00  0.00    -0.266 OA
ATOM      3  N   UNL     1       0.054  -1.309   3.480  0.00  0.00    -0.277 N 
ATOM      4  H   UNL     1      -0.011  -2.254   3.269  0.00  0.00    +0.155 HD
ENDROOT
BRANCH   3   5
ATOM      5  C   UNL     1       0.168  -0.896   4.812  0.00  0.00    +0.071 A 
ATOM      6  C   UNL     1       0.760   0.321   5.114  0.00  0.00    +0.049 A 
ATOM      7  C   UNL     1       0.870   0.727   6.436  0.00  0.00    +0.039 A 
ATOM      8  C   UNL     1       0.388  -0.086   7.454  0.00  0.00    -0.023 A 
ATOM      9  C   UNL     1      -0.201  -1.299   7.153  0.00  0.00    +0.045 A 
ATOM     10  C   UNL     1      -0.318  -1.704   5.835  0.00  0.00    +0.145 A 
ATOM     11  F   UNL     1      -0.900  -2.888   5.543  0.00  0.00    -0.204 F 
ATOM     12  C   UNL     1       0.509   0.359   8.889  0.00  0.00    +0.046 C 
ATOM     13  C   UNL     1       1.801   1.157   9.070  0.00  0.00    +0.101 C 
ATOM     14  C   UNL     1       1.914   2.200   7.991  0.00  0.00    +0.218 C 
ATOM     15  O   UNL     1       2.416   3.275   8.247  0.00  0.00    -0.275 OA
ATOM     16  N   UNL     1       1.466   1.955   6.746  0.00  0.00    -0.285 N 
ATOM     17  H   UNL     1       1.558   2.633   6.059  0.00  0.00    +0.155 HD
ENDBRANCH   3   5
BRANCH   1  23
ATOM     18  C   UNL     1      -0.005   1.502   0.010  0.00  0.00    +0.048 C 
ATOM     19  C   UNL     1       0.022  -0.005   0.002  0.00  0.00    +0.011 A 
ATOM     20  C   UNL     1       0.040  -0.841  -1.125  0.00  0.00    +0.062 A 
ATOM     21  C   UNL     1       0.059  -2.152  -0.662  0.00  0.00    +0.117 A 
ATOM     22  O   UNL     1       0.058  -2.114   0.664  0.00  0.00    -0.454 OA
ATOM     23  C   UNL     1       0.039  -0.830   1.089  0.00  0.00    +0.193 A 
ATOM     24  C   UNL     1       0.075  -3.344  -1.584  0.00  0.00    +0.075 C 
ATOM     25  C   UNL     1      -0.437  -2.922  -2.965  0.00  0.00    +0.016 C 
ATOM     26  C   UNL     1       0.336  -1.704  -3.480  0.00  0.00    +0.080 C 
ATOM     27  C   UNL     1       0.042  -0.526  -2.562  0.00  0.00    +0.167 C 
ATOM     28  O   UNL     1      -0.175   0.590  -2.984  0.00  0.00    -0.292 OA
ENDBRANCH   1  23
TORSDOF 2
