REMARK  Name = ZINC06166573
REMARK  7 active torsions:
REMARK  status: ('A' for Active; 'I' for Inactive)
REMARK    1  A    between atoms: C_1  and  C_2
REMARK    2  A    between atoms: C_3  and  C_26
REMARK    3  A    between atoms: N_9  and  C_12
REMARK    4  A    between atoms: C_12  and  C_13
REMARK    5  A    between atoms: N_15  and  N_16
REMARK    6  A    between atoms: C_17  and  C_18
REMARK    7  A    between atoms: C_23  and  O_24
REMARK                            x       y       z     vdW  Elec       q    Type
REMARK                         _______ _______ _______ _____ _____    ______ ____
ROOT
ATOM      1  C   UNL     1      -3.329   1.985  -1.114  0.00  0.00    +0.252 C 
ATOM      2  O   UNL     1      -3.367   3.198  -1.112  0.00  0.00    -0.272 OA
ATOM      3  N   UNL     1      -2.193   1.347  -0.770  0.00  0.00    -0.206 N 
ATOM      4  H   UNL     1      -2.162   0.377  -0.771  0.00  0.00    +0.177 HD
ENDROOT
BRANCH   3   5
ATOM      5  N   UNL     1      -1.057   2.083  -0.410  0.00  0.00    -0.188 NA
ATOM      6  C   UNL     1       0.000   1.472   0.032  0.00  0.00    +0.142 C 
BRANCH   6   7
ATOM      7  C   UNL     1      -0.063   0.037   0.363  0.00  0.00    +0.037 A 
ATOM      8  C   UNL     1      -1.271  -0.539   0.759  0.00  0.00    +0.028 A 
ATOM      9  C   UNL     1      -1.324  -1.884   1.063  0.00  0.00    +0.019 A 
ATOM     10  C   UNL     1      -0.181  -2.663   0.987  0.00  0.00    +0.019 A 
ATOM     11  C   UNL     1       1.022  -2.102   0.600  0.00  0.00    +0.047 A 
ATOM     12  C   UNL     1       1.091  -0.754   0.287  0.00  0.00    +0.126 A 
ATOM     13 BR   UNL     1      -2.962  -2.666   1.593  0.00  0.00    -0.050 Br
BRANCH  12  14
ATOM     14  O   UNL     1       2.273  -0.203  -0.093  0.00  0.00    -0.506 OA
ATOM     15  H   UNL     1       2.833   0.075   0.644  0.00  0.00    +0.292 HD
ENDBRANCH  12  14
ENDBRANCH   6   7
ENDBRANCH   3   5
BRANCH   1  16
ATOM     16  C   UNL     1      -4.551   1.193  -1.501  0.00  0.00    +0.223 C 
BRANCH  16  25
ATOM     17  C   UNL     1      -6.423   3.724  -5.922  0.00  0.00    +0.045 C 
ATOM     18  C   UNL     1      -7.225   4.028  -4.683  0.00  0.00    -0.026 A 
ATOM     19  C   UNL     1      -8.284   4.852  -4.744  0.00  0.00    -0.008 A 
ATOM     20  S   UNL     1      -8.876   4.888  -3.063  0.00  0.00    -0.073 S 
ATOM     21  C   UNL     1      -7.686   3.796  -2.328  0.00  0.00    +0.116 A 
ATOM     22  C   UNL     1      -6.862   3.435  -3.410  0.00  0.00    +0.075 A 
ATOM     23  C   UNL     1      -5.789   2.537  -3.098  0.00  0.00    +0.263 A 
ATOM     24  O   UNL     1      -5.021   2.165  -3.968  0.00  0.00    -0.267 OA
ATOM     25  N   UNL     1      -5.644   2.111  -1.829  0.00  0.00    -0.290 N 
ATOM     26  C   UNL     1      -6.494   2.510  -0.849  0.00  0.00    +0.203 A 
ATOM     27  N   UNL     1      -7.478   3.332  -1.100  0.00  0.00    -0.230 NA
ATOM     28  C   UNL     1      -8.838   5.573  -5.946  0.00  0.00    +0.052 C 
ENDBRANCH  16  25
ENDBRANCH   1  16
TORSDOF 5
