REMARK  Name = ZINC16778549
REMARK  4 active torsions:
REMARK  status: ('A' for Active; 'I' for Inactive)
REMARK    1  A    between atoms: C_1  and  C_2
REMARK    2  A    between atoms: C_2  and  C_3
REMARK    3  A    between atoms: C_13  and  C_15
REMARK    4  A    between atoms: C_15  and  C_16
REMARK                            x       y       z     vdW  Elec       q    Type
REMARK                         _______ _______ _______ _____ _____    ______ ____
ROOT
ATOM      1  C   UNL     1       0.718  -0.497  -1.257  0.00  0.00    +0.107 C 
ATOM      2  C   UNL     1       0.652  -2.022  -1.326  0.00  0.00    -0.017 A 
ATOM      3  C   UNL     1      -0.510  -2.722  -1.645  0.00  0.00    +0.013 A 
ATOM      4  C   UNL     1      -0.496  -4.074  -1.683  0.00  0.00    +0.046 A 
ATOM      5  S   UNL     1       1.201  -4.437  -1.260  0.00  0.00    -0.101 S 
ATOM      6  C   UNL     1       1.762  -2.766  -1.069  0.00  0.00    -0.004 A 
ATOM      7  C   UNL     1       3.130  -2.281  -0.713  0.00  0.00    +0.061 C 
ATOM      8  C   UNL     1       3.034  -0.811  -0.277  0.00  0.00    +0.113 C 
ATOM      9  N   UNL     1       2.135  -0.110  -1.208  0.00  0.00    -0.294 N 
ATOM     10  C   UNL     1       2.603   0.871  -2.004  0.00  0.00    +0.218 C 
ATOM     11  O   UNL     1       1.853   1.441  -2.768  0.00  0.00    -0.276 OA
ENDROOT
BRANCH   1  13
ATOM     12  C   UNL     1      -0.019   1.526   0.010  0.00  0.00    +0.006 C 
ATOM     13  C   UNL     1       0.002  -0.004   0.002  0.00  0.00    +0.024 C 
ENDBRANCH   1  13
BRANCH  10  14
ATOM     14  C   UNL     1       4.058   1.260  -1.945  0.00  0.00    +0.120 C 
BRANCH  14  15
ATOM     15  C   UNL     1       4.324   2.389  -2.942  0.00  0.00    +0.146 C 
ATOM     16  C   UNL     1       5.798   2.705  -2.968  0.00  0.00    +0.231 C 
ATOM     17  O   UNL     1       6.475   2.225  -3.853  0.00  0.00    -0.274 OA
ATOM     18  N   UNL     1       6.391   3.482  -2.068  0.00  0.00    -0.284 N 
ATOM     19  C   UNL     1       5.768   4.209  -1.058  0.00  0.00    +0.047 A 
ATOM     20  C   UNL     1       6.530   4.691   0.001  0.00  0.00    +0.024 A 
ATOM     21  C   UNL     1       5.934   5.407   1.020  0.00  0.00    +0.002 A 
ATOM     22  C   UNL     1       4.573   5.653   1.000  0.00  0.00    +0.001 A 
ATOM     23  C   UNL     1       3.803   5.183  -0.048  0.00  0.00    +0.016 A 
ATOM     24  C   UNL     1       4.397   4.469  -1.075  0.00  0.00    +0.030 A 
ATOM     25  S   UNL     1       3.420   3.882  -2.431  0.00  0.00    -0.110 S 
ATOM     26  H   UNL     1       7.357   3.550  -2.121  0.00  0.00    +0.155 HD
ENDBRANCH  14  15
ENDBRANCH  10  14
TORSDOF 3
