REMARK  Name = ZINC61089041
REMARK  6 active torsions:
REMARK  status: ('A' for Active; 'I' for Inactive)
REMARK    1  A    between atoms: C_1  and  C_2
REMARK    2  A    between atoms: C_2  and  N_3
REMARK    3  A    between atoms: C_6  and  C_9
REMARK    4  A    between atoms: C_9  and  N_10
REMARK    5  A    between atoms: C_11  and  C_13
REMARK    6  A    between atoms: C_15  and  N_21
REMARK                            x       y       z     vdW  Elec       q    Type
REMARK                         _______ _______ _______ _____ _____    ______ ____
ROOT
ATOM      1  N   UNL     1      -5.066  -4.019  -0.900  0.00  0.00    -0.311 N 
ATOM      2  C   UNL     1      -6.253  -4.650  -0.798  0.00  0.00    +0.245 C 
ATOM      3  O   UNL     1      -7.280  -4.003  -0.723  0.00  0.00    -0.270 OA
ATOM      4  H   UNL     1      -4.247  -4.535  -0.959  0.00  0.00    +0.149 HD
ENDROOT
BRANCH   2   5
ATOM      5  C   UNL     1      -6.306  -6.125  -0.777  0.00  0.00    +0.053 A 
ATOM      6  C   UNL     1      -5.127  -6.870  -0.856  0.00  0.00    +0.039 A 
ATOM      7  C   UNL     1      -5.184  -8.252  -0.836  0.00  0.00    +0.061 A 
ATOM      8  C   UNL     1      -6.414  -8.898  -0.736  0.00  0.00    +0.145 A 
ATOM      9  C   UNL     1      -7.583  -8.161  -0.657  0.00  0.00    +0.056 A 
ATOM     10  C   UNL     1      -7.535  -6.781  -0.671  0.00  0.00    +0.033 A 
ATOM     11 BR   UNL     1      -9.135  -5.779  -0.555  0.00  0.00    -0.049 Br
ATOM     12  F   UNL     1      -6.466 -10.248  -0.716  0.00  0.00    -0.204 F 
BRANCH   7  13
ATOM     13  N   UNL     1      -4.005  -9.002  -0.916  0.00  0.00    -0.356 N 
ATOM     14  H   UNL     1      -3.148  -8.552  -0.986  0.00  0.00    +0.142 HD
ATOM     15  H   UNL     1      -4.044  -9.971  -0.901  0.00  0.00    +0.142 HD
ENDBRANCH   7  13
ENDBRANCH   2   5
BRANCH   1  16
ATOM     16  C   UNL     1      -5.014  -2.555  -0.920  0.00  0.00    +0.108 C 
BRANCH  16  20
ATOM     17  N   UNL     1      -1.376  -0.512   0.012  0.00  0.00    +0.380 N 
ATOM     18  C   UNL     1      -2.051  -0.118  -1.230  0.00  0.00    -0.079 C 
ATOM     19  C   UNL     1      -3.511  -0.575  -1.189  0.00  0.00    -0.014 C 
ATOM     20  C   UNL     1      -3.559  -2.099  -1.042  0.00  0.00    +0.003 C 
ATOM     21  C   UNL     1      -2.788  -2.505   0.218  0.00  0.00    -0.014 C 
ATOM     22  C   UNL     1      -1.355  -1.976   0.125  0.00  0.00    -0.079 C 
ATOM     23  H   UNL     1      -1.871  -0.123   0.800  0.00  0.00    -0.082 HD
BRANCH  17  25
ATOM     24  C   UNL     1      -0.019   1.526   0.010  0.00  0.00    -0.017 C 
ATOM     25  C   UNL     1       0.002  -0.004   0.002  0.00  0.00    -0.082 C 
ENDBRANCH  17  25
ENDBRANCH  16  20
ENDBRANCH   1  16
TORSDOF 5
