REMARK  Name = ZINC67066048
REMARK  6 active torsions:
REMARK  status: ('A' for Active; 'I' for Inactive)
REMARK    1  A    between atoms: C_6  and  N_7
REMARK    2  A    between atoms: C_10  and  C_13
REMARK    3  A    between atoms: C_13  and  N_14
REMARK    4  A    between atoms: N_17  and  N_18
REMARK    5  A    between atoms: C_19  and  C_21
REMARK    6  A    between atoms: C_21  and  C_22
REMARK                            x       y       z     vdW  Elec       q    Type
REMARK                         _______ _______ _______ _____ _____    ______ ____
ROOT
ATOM      1  N   UNL     1      -4.549  -4.004  -0.911  0.00  0.00    -0.298 N 
ATOM      2  C   UNL     1      -5.035  -5.024  -1.646  0.00  0.00    +0.316 C 
ATOM      3  O   UNL     1      -4.281  -5.704  -2.315  0.00  0.00    -0.251 OA
ATOM      4  N   UNL     1      -6.356  -5.290  -1.639  0.00  0.00    -0.218 N 
ATOM      5  H   UNL     1      -5.151  -3.462  -0.377  0.00  0.00    +0.150 HD
ATOM      6  H   UNL     1      -6.706  -6.024  -2.168  0.00  0.00    +0.174 HD
ENDROOT
BRANCH   4   7
ATOM      7  N   UNL     1      -7.225  -4.507  -0.868  0.00  0.00    -0.233 N 
ATOM      8  C   UNL     1      -8.546  -4.773  -0.861  0.00  0.00    +0.229 C 
ATOM      9  O   UNL     1      -8.983  -5.691  -1.522  0.00  0.00    -0.274 OA
ATOM     10  H   UNL     1      -6.875  -3.773  -0.339  0.00  0.00    +0.173 HD
BRANCH   8  11
ATOM     11  C   UNL     1      -9.480  -3.930  -0.031  0.00  0.00    +0.101 C 
BRANCH  11  12
ATOM     12  C   UNL     1     -10.913  -4.440  -0.201  0.00  0.00    -0.002 C 
ATOM     13  C   UNL     1     -11.360  -4.233  -1.649  0.00  0.00    +0.004 C 
ATOM     14  C   UNL     1     -12.792  -4.743  -1.818  0.00  0.00    +0.000 C 
ATOM     15  C   UNL     1     -13.723  -3.969  -0.882  0.00  0.00    +0.000 C 
ATOM     16  C   UNL     1     -13.276  -4.176   0.566  0.00  0.00    +0.000 C 
ATOM     17  C   UNL     1     -11.843  -3.666   0.736  0.00  0.00    +0.004 C 
ENDBRANCH  11  12
ENDBRANCH   8  11
ENDBRANCH   4   7
BRANCH   1  18
ATOM     18  C   UNL     1      -3.113  -3.715  -0.918  0.00  0.00    +0.111 C 
BRANCH  18  22
ATOM     19  N   UNL     1      -1.199  -0.720   0.010  0.00  0.00    -0.329 N 
ATOM     20  C   UNL     1      -2.550  -0.132   0.020  0.00  0.00    +0.105 C 
ATOM     21  C   UNL     1      -3.464  -1.226  -0.587  0.00  0.00    +0.025 C 
ATOM     22  C   UNL     1      -2.829  -2.518  -0.008  0.00  0.00    +0.025 C 
ATOM     23  C   UNL     1      -1.322  -2.185   0.004  0.00  0.00    +0.110 C 
BRANCH  19  29
ATOM     24  C   UNL     1      -0.017   1.384   0.010  0.00  0.00    +0.026 A 
ATOM     25  C   UNL     1       1.171   2.091   0.002  0.00  0.00    +0.043 A 
ATOM     26  C   UNL     1       2.379   1.417  -0.013  0.00  0.00    +0.159 A 
ATOM     27  C   UNL     1       2.401   0.030  -0.021  0.00  0.00    +0.160 A 
ATOM     28  C   UNL     1       1.215  -0.680  -0.014  0.00  0.00    +0.064 A 
ATOM     29  C   UNL     1       0.002  -0.004   0.002  0.00  0.00    +0.033 A 
ATOM     30  F   UNL     1       3.582  -0.626  -0.037  0.00  0.00    -0.202 F 
ATOM     31  F   UNL     1       3.538   2.111  -0.020  0.00  0.00    -0.202 F 
ENDBRANCH  19  29
ENDBRANCH  18  22
ENDBRANCH   1  18
TORSDOF 6
