REMARK  Name = ZINC58988693
REMARK  9 active torsions:
REMARK  status: ('A' for Active; 'I' for Inactive)
REMARK    1  A    between atoms: C_1  and  C_2
REMARK    2  A    between atoms: N_8  and  C_9
REMARK    3  A    between atoms: C_9  and  C_10
REMARK    4  A    between atoms: N_12  and  C_13
REMARK    5  A    between atoms: C_17  and  N_19
REMARK    6  A    between atoms: C_20  and  C_22
REMARK    7  A    between atoms: C_23  and  C_24
REMARK    8  A    between atoms: C_27  and  C_30
REMARK    9  A    between atoms: N_32  and  C_33
REMARK                            x       y       z     vdW  Elec       q    Type
REMARK                         _______ _______ _______ _____ _____    ______ ____
ROOT
ATOM      1  C   UNL     1       1.114  -0.354   6.003  0.00  0.00    +0.035 A 
ATOM      2  C   UNL     1       2.281  -1.102   5.910  0.00  0.00    +0.026 A 
ATOM      3  C   UNL     1       2.930  -1.518   7.057  0.00  0.00    +0.042 A 
ATOM      4  C   UNL     1       2.420  -1.192   8.301  0.00  0.00    +0.145 A 
ATOM      5  C   UNL     1       1.252  -0.443   8.400  0.00  0.00    +0.071 A 
ATOM      6  C   UNL     1       0.602  -0.020   7.249  0.00  0.00    +0.049 A 
ATOM      7  F   UNL     1       3.057  -1.601   9.420  0.00  0.00    -0.204 F 
ENDROOT
BRANCH   1  10
ATOM      8  C   UNL     1       0.443  -0.725   3.751  0.00  0.00    +0.201 C 
ATOM      9  O   UNL     1       1.067  -1.765   3.748  0.00  0.00    -0.278 OA
ATOM     10  N   UNL     1       0.457   0.067   4.841  0.00  0.00    -0.287 N 
ATOM     11  H   UNL     1       0.013   0.929   4.820  0.00  0.00    +0.155 HD
BRANCH   8  12
ATOM     12  C   UNL     1      -0.349  -0.319   2.534  0.00  0.00    +0.019 C 
BRANCH  12  19
ATOM     13  C   UNL     1      -0.298   0.460  -0.163  0.00  0.00    -0.013 C 
ATOM     14  C   UNL     1      -0.876  -0.890   0.267  0.00  0.00    -0.071 C 
ATOM     15  C   UNL     1      -0.658  -1.916  -0.847  0.00  0.00    -0.016 C 
ATOM     16  C   UNL     1      -1.239  -3.265  -0.413  0.00  0.00    -0.003 C 
ATOM     17  C   UNL     1      -0.584  -3.691   0.904  0.00  0.00    -0.019 C 
ATOM     18  C   UNL     1      -0.805  -2.599   1.954  0.00  0.00    -0.078 C 
ATOM     19  N   UNL     1      -0.204  -1.342   1.491  0.00  0.00    +0.387 N 
ATOM     20  H   UNL     1       0.776  -1.489   1.300  0.00  0.00    -0.081 HD
ENDBRANCH  12  19
ENDBRANCH   8  12
ENDBRANCH   1  10
BRANCH   5  21
ATOM     21  N   UNL     1       0.736  -0.113   9.658  0.00  0.00    -0.280 N 
ATOM     22  C   UNL     1      -0.597  -0.043   9.842  0.00  0.00    +0.241 C 
ATOM     23  O   UNL     1      -1.350  -0.186   8.897  0.00  0.00    -0.270 OA
ATOM     24  H   UNL     1       1.338   0.066  10.397  0.00  0.00    +0.155 HD
BRANCH  22  25
ATOM     25  C   UNL     1      -1.140   0.204  11.181  0.00  0.00    +0.068 C 
ATOM     26  C   UNL     1      -2.473   0.274  11.365  0.00  0.00    +0.013 C 
BRANCH  26  27
ATOM     27  C   UNL     1      -3.018   0.522  12.710  0.00  0.00    -0.025 A 
ATOM     28  C   UNL     1      -2.152   0.693  13.796  0.00  0.00    +0.008 A 
ATOM     29  C   UNL     1      -2.663   0.925  15.053  0.00  0.00    +0.013 A 
ATOM     30  C   UNL     1      -4.045   0.992  15.244  0.00  0.00    +0.037 A 
ATOM     31  C   UNL     1      -4.910   0.822  14.161  0.00  0.00    +0.013 A 
ATOM     32  C   UNL     1      -4.402   0.595  12.902  0.00  0.00    +0.008 A 
BRANCH  30  33
ATOM     33  C   UNL     1      -4.593   1.242  16.595  0.00  0.00    +0.244 C 
ATOM     34  O   UNL     1      -3.840   1.390  17.538  0.00  0.00    -0.270 OA
ATOM     35  N   UNL     1      -5.926   1.307  16.780  0.00  0.00    -0.308 N 
ATOM     36  H   UNL     1      -6.526   1.189  16.028  0.00  0.00    +0.149 HD
BRANCH  35  37
ATOM     37  C   UNL     1      -6.468   1.555  18.119  0.00  0.00    +0.073 C 
ATOM     38  C   UNL     1      -7.664   0.711  18.564  0.00  0.00    +0.024 C 
ATOM     39  C   UNL     1      -7.859   2.187  18.211  0.00  0.00    +0.024 C 
ENDBRANCH  35  37
ENDBRANCH  30  33
ENDBRANCH  26  27
ENDBRANCH  22  25
ENDBRANCH   5  21
TORSDOF 8
