REMARK  Name = ZINC39016238
REMARK  8 active torsions:
REMARK  status: ('A' for Active; 'I' for Inactive)
REMARK    1  A    between atoms: C_1  and  C_2
REMARK    2  A    between atoms: C_5  and  C_8
REMARK    3  A    between atoms: C_8  and  S_9
REMARK    4  A    between atoms: S_9  and  C_10
REMARK    5  A    between atoms: C_14  and  C_18
REMARK    6  A    between atoms: N_16  and  N_17
REMARK    7  A    between atoms: C_21  and  C_24
REMARK    8  A    between atoms: C_27  and  C_30
REMARK                            x       y       z     vdW  Elec       q    Type
REMARK                         _______ _______ _______ _____ _____    ______ ____
ROOT
ATOM      1  C   UNL     1       1.628  -6.666  -0.043  0.00  0.00    +0.214 C 
ATOM      2  N   UNL     1       0.842  -7.104  -1.219  0.00  0.00    -0.228 NA
ATOM      3  N   UNL     1       0.044  -8.237  -0.726  0.00  0.00    -0.234 NA
ATOM      4  C   UNL     1      -0.323  -7.816   0.651  0.00  0.00    +0.185 C 
ATOM      5  N   UNL     1       0.886  -7.118   1.152  0.00  0.00    -0.197 NA
ATOM      6  H   UNL     1       1.449  -7.390  -1.973  0.00  0.00    +0.143 HD
ATOM      7  H   UNL     1       0.590  -9.085  -0.712  0.00  0.00    +0.143 HD
ENDROOT
BRANCH   4   8
ATOM      8  C   UNL     1      -0.637  -9.036   1.519  0.00  0.00    +0.187 C 
ATOM      9  C   UNL     1      -1.777  -9.840   0.920  0.00  0.00    +0.034 C 
ATOM     10  C   UNL     1      -2.736  -9.795   1.865  0.00  0.00    +0.091 C 
ATOM     11  N   UNL     1      -2.312  -9.073   2.936  0.00  0.00    -0.154 NA
ATOM     12  N   UNL     1      -1.166  -8.621   2.828  0.00  0.00    -0.176 NA
BRANCH  10  13
ATOM     13  C   UNL     1      -4.067 -10.440   1.752  0.00  0.00    +0.002 A 
ATOM     14  C   UNL     1      -4.399 -11.163   0.609  0.00  0.00    +0.010 A 
ATOM     15  C   UNL     1      -5.639 -11.762   0.510  0.00  0.00    +0.004 A 
ATOM     16  C   UNL     1      -6.551 -11.645   1.543  0.00  0.00    -0.050 A 
ATOM     17  C   UNL     1      -6.226 -10.928   2.681  0.00  0.00    +0.004 A 
ATOM     18  C   UNL     1      -4.988 -10.330   2.793  0.00  0.00    +0.010 A 
ATOM     19  C   UNL     1      -7.903 -12.301   1.429  0.00  0.00    +0.044 C 
ENDBRANCH  10  13
ENDBRANCH   4   8
BRANCH   5  20
ATOM     20  N   UNL     1       1.701  -8.005   1.966  0.00  0.00    -0.264 NA
ATOM     21  H   UNL     1       2.540  -7.540   2.278  0.00  0.00    +0.137 HD
ATOM     22  H   UNL     1       1.174  -8.364   2.749  0.00  0.00    +0.137 HD
ENDBRANCH   5  20
BRANCH   1  23
ATOM     23  S   UNL     1       1.777  -4.858  -0.034  0.00  0.00    -0.119 S 
BRANCH  23  24
ATOM     24  C   UNL     1       0.059  -4.275  -0.021  0.00  0.00    +0.107 C 
BRANCH  24  29
ATOM     25  C   UNL     1      -0.018   1.503   0.010  0.00  0.00    +0.044 C 
ATOM     26  C   UNL     1       0.002  -0.004   0.002  0.00  0.00    -0.050 A 
ATOM     27  C   UNL     1       0.006  -0.689  -1.199  0.00  0.00    +0.003 A 
ATOM     28  C   UNL     1       0.025  -2.071  -1.206  0.00  0.00    +0.005 A 
ATOM     29  C   UNL     1       0.040  -2.768  -0.013  0.00  0.00    -0.037 A 
ATOM     30  C   UNL     1       0.037  -2.084   1.188  0.00  0.00    +0.005 A 
ATOM     31  C   UNL     1       0.023  -0.702   1.195  0.00  0.00    +0.003 A 
ENDBRANCH  24  29
ENDBRANCH  23  24
ENDBRANCH   1  23
TORSDOF 6
