REMARK  Name = ZINC15999232
REMARK  3 active torsions:
REMARK  status: ('A' for Active; 'I' for Inactive)
REMARK    1  A    between atoms: C_1  and  C_2
REMARK    2  A    between atoms: C_4  and  C_33
REMARK    3  A    between atoms: N_20  and  C_23
REMARK                            x       y       z     vdW  Elec       q    Type
REMARK                         _______ _______ _______ _____ _____    ______ ____
ROOT
ATOM      1  C   UNL     1      -3.352   5.471   3.516  0.00  0.00    +0.044 C 
ATOM      2  C   UNL     1      -2.990   5.737   2.077  0.00  0.00    -0.050 A 
ATOM      3  C   UNL     1      -3.066   7.021   1.570  0.00  0.00    +0.008 A 
ATOM      4  C   UNL     1      -2.736   7.270   0.254  0.00  0.00    -0.029 A 
ATOM      5  C   UNL     1      -2.323   6.228  -0.574  0.00  0.00    +0.039 A 
ATOM      6  C   UNL     1      -2.250   4.940  -0.053  0.00  0.00    -0.027 A 
ATOM      7  C   UNL     1      -2.582   4.697   1.261  0.00  0.00    +0.008 A 
ATOM      8  C   UNL     1      -1.779   4.063  -1.181  0.00  0.00    +0.053 C 
ATOM      9  C   UNL     1      -0.604   3.239  -0.880  0.00  0.00    +0.089 C 
ATOM     10  C   UNL     1      -1.225   2.100   0.018  0.00  0.00    +0.074 C 
ATOM     11  C   UNL     1      -2.430   1.763  -0.847  0.00  0.00    -0.054 C 
ATOM     12  C   UNL     1      -2.847   2.831  -2.965  0.00  0.00    -0.076 C 
ATOM     13  C   UNL     1      -2.901   1.298  -3.167  0.00  0.00    -0.020 C 
ATOM     14  C   UNL     1      -2.041   0.792  -1.977  0.00  0.00    -0.016 C 
ATOM     15  C   UNL     1      -0.014   1.208   0.009  0.00  0.00    +0.228 C 
ATOM     16  O   UNL     1       0.002  -0.004   0.002  0.00  0.00    -0.275 OA
ATOM     17  N   UNL     1       1.063   2.048   0.003  0.00  0.00    -0.209 N 
ATOM     18  C   UNL     1       0.732   3.335  -0.343  0.00  0.00    +0.229 C 
ATOM     19  O   UNL     1       1.411   4.332  -0.224  0.00  0.00    -0.275 OA
ATOM     20  C   UNL     1      -1.607   5.000  -2.350  0.00  0.00    +0.212 C 
ATOM     21  O   UNL     1      -1.237   4.702  -3.466  0.00  0.00    -0.277 OA
ATOM     22  N   UNL     1      -1.942   6.229  -1.917  0.00  0.00    -0.286 N 
ATOM     23  C   UNL     1      -2.822   8.673  -0.290  0.00  0.00    +0.045 C 
ATOM     24  H   UNL     1      -1.922   7.023  -2.474  0.00  0.00    +0.155 HD
ATOM     25  N   UNL     1      -2.804   3.037  -1.509  0.00  0.00    +0.395 N 
ATOM     26  H   UNL     1      -3.725   3.346  -1.176  0.00  0.00    -0.079 HD
ENDROOT
BRANCH  17  27
ATOM     27  C   UNL     1       2.368   1.640   0.317  0.00  0.00    +0.062 A 
ATOM     28  C   UNL     1       3.212   1.177  -0.683  0.00  0.00    +0.025 A 
ATOM     29  C   UNL     1       4.496   0.776  -0.371  0.00  0.00    +0.002 A 
ATOM     30  C   UNL     1       4.942   0.835   0.937  0.00  0.00    +0.002 A 
ATOM     31  C   UNL     1       4.105   1.295   1.936  0.00  0.00    +0.022 A 
ATOM     32  C   UNL     1       2.820   1.703   1.629  0.00  0.00    +0.063 A 
ATOM     33 CL   UNL     1       1.771   2.288   2.883  0.00  0.00    -0.082 Cl
ENDBRANCH  17  27
TORSDOF 1
