REMARK  Name = ZINC20884192
REMARK  5 active torsions:
REMARK  status: ('A' for Active; 'I' for Inactive)
REMARK    1  A    between atoms: C_1  and  C_2
REMARK    2  A    between atoms: C_5  and  C_8
REMARK    3  A    between atoms: C_13  and  C_19
REMARK    4  A    between atoms: C_24  and  O_25
REMARK    5  A    between atoms: O_25  and  C_26
REMARK                            x       y       z     vdW  Elec       q    Type
REMARK                         _______ _______ _______ _____ _____    ______ ____
ROOT
ATOM      1  C   UNL     1      -4.540   5.915   3.270  0.00  0.00    +0.032 C 
ATOM      2  C   UNL     1      -4.617   5.124   4.578  0.00  0.00    +0.059 C 
ATOM      3  C   UNL     1      -3.852   3.832   4.434  0.00  0.00    +0.018 C 
ATOM      4  C   UNL     1      -2.779   3.749   3.620  0.00  0.00    +0.020 C 
ATOM      5  C   UNL     1      -2.022   2.447   3.501  0.00  0.00    +0.066 C 
ATOM      6  C   UNL     1      -2.027   1.731   4.853  0.00  0.00    +0.109 C 
ATOM      7  C   UNL     1      -3.434   1.710   5.394  0.00  0.00    +0.218 C 
ATOM      8  O   UNL     1      -3.816   0.765   6.050  0.00  0.00    -0.275 OA
ATOM      9  N   UNL     1      -4.266   2.738   5.152  0.00  0.00    -0.289 N 
ATOM     10  C   UNL     1      -2.342   4.855   2.872  0.00  0.00    +0.162 C 
ATOM     11  O   UNL     1      -1.366   4.745   2.157  0.00  0.00    -0.292 OA
ATOM     12  C   UNL     1      -3.066   6.173   2.941  0.00  0.00    +0.088 C 
ATOM     13  H   UNL     1      -5.294   2.691   5.539  0.00  0.00    +0.155 HD
ENDROOT
BRANCH   1  18
ATOM     14  C   UNL     1      -7.303  10.952   3.885  0.00  0.00    +0.044 C 
ATOM     15  C   UNL     1      -6.582   9.639   3.724  0.00  0.00    -0.050 A 
ATOM     16  C   UNL     1      -6.998   8.735   2.764  0.00  0.00    +0.003 A 
ATOM     17  C   UNL     1      -6.337   7.530   2.618  0.00  0.00    +0.004 A 
ATOM     18  C   UNL     1      -5.260   7.229   3.430  0.00  0.00    -0.043 A 
ATOM     19  C   UNL     1      -4.848   8.130   4.393  0.00  0.00    +0.004 A 
ATOM     20  C   UNL     1      -5.505   9.338   4.536  0.00  0.00    +0.003 A 
ENDBRANCH   1  18
BRANCH   5  21
ATOM     21  C   UNL     1      -2.684   1.574   2.467  0.00  0.00    +0.002 A 
ATOM     22  C   UNL     1      -3.999   1.183   2.632  0.00  0.00    +0.008 A 
ATOM     23  C   UNL     1      -4.608   0.382   1.683  0.00  0.00    +0.001 A 
ATOM     24  C   UNL     1      -3.902  -0.030   0.567  0.00  0.00    +0.004 A 
ATOM     25  C   UNL     1      -2.589   0.364   0.395  0.00  0.00    +0.046 A 
ATOM     26  C   UNL     1      -1.975   1.163   1.348  0.00  0.00    +0.124 A 
BRANCH  26  27
ATOM     27  O   UNL     1      -0.682   1.547   1.184  0.00  0.00    -0.495 OA
ATOM     28  C   UNL     1      -0.013   1.086   0.008  0.00  0.00    +0.277 C 
ENDBRANCH  26  27
ENDBRANCH   5  21
TORSDOF 3
