REMARK  Name = ZINC25454719
REMARK  16 active torsions:
REMARK  status: ('A' for Active; 'I' for Inactive)
REMARK    1  A    between atoms: C_1  and  C_2
REMARK    2  A    between atoms: C_2  and  C_3
REMARK    3  A    between atoms: C_2  and  C_4
REMARK    4  A    between atoms: C_4  and  C_5
REMARK    5  A    between atoms: C_5  and  N_6
REMARK    6  A    between atoms: N_6  and  C_7
REMARK    7  A    between atoms: N_6  and  C_22
REMARK    8  A    between atoms: C_7  and  C_8
REMARK    9  A    between atoms: N_10  and  C_11
REMARK   10  A    between atoms: C_11  and  C_13
REMARK   11  A    between atoms: C_11  and  C_19
REMARK   12  A    between atoms: C_19  and  C_20
REMARK   13  A    between atoms: C_19  and  C_21
REMARK   14  A    between atoms: C_23  and  N_38
REMARK   15  A    between atoms: N_24  and  C_31
REMARK   16  A    between atoms: C_31  and  C_32
REMARK                            x       y       z     vdW  Elec       q    Type
REMARK                         _______ _______ _______ _____ _____    ______ ____
ROOT
ATOM      1  N   UNL     1       2.347   3.784   0.010  0.00  0.00    -0.314 N 
ENDROOT
BRANCH   1   2
ATOM      2  C   UNL     1       1.034   3.275  -0.121  0.00  0.00    +0.134 A 
ATOM      3  C   UNL     1      -0.045   4.114  -0.068  0.00  0.00    +0.127 A 
ATOM      4  N   UNL     1      -1.312   3.594  -0.198  0.00  0.00    -0.276 N 
ATOM      5  C   UNL     1      -1.489   2.272  -0.382  0.00  0.00    +0.331 A 
ATOM      6  O   UNL     1      -2.616   1.830  -0.501  0.00  0.00    -0.246 OA
ATOM      7  N   UNL     1      -0.440   1.432  -0.431  0.00  0.00    -0.273 N 
ATOM      8  H   UNL     1      -0.605   0.354  -0.572  0.00  0.00    +0.173 HD
ATOM      9  C   UNL     1       0.819   1.898  -0.308  0.00  0.00    +0.277 A 
ATOM     10  O   UNL     1       1.765   1.130  -0.358  0.00  0.00    -0.266 OA
BRANCH   3  11
ATOM     11  N   UNL     1       0.135   5.467   0.115  0.00  0.00    -0.343 N 
ATOM     12  H   UNL     1      -0.737   6.137   0.157  0.00  0.00    +0.144 HD
ATOM     13  H   UNL     1       1.150   5.877   0.219  0.00  0.00    +0.144 HD
ENDBRANCH   3  11
BRANCH   4  14
ATOM     14  C   UNL     1      -2.475   4.483  -0.143  0.00  0.00    +0.163 C 
BRANCH  14  15
ATOM     15  C   UNL     1      -2.803   4.968  -1.532  0.00  0.00    -0.028 A 
ATOM     16  C   UNL     1      -2.231   6.133  -2.010  0.00  0.00    +0.005 A 
ATOM     17  C   UNL     1      -2.528   6.575  -3.285  0.00  0.00    +0.000 A 
ATOM     18  C   UNL     1      -3.404   5.859  -4.079  0.00  0.00    +0.000 A 
ATOM     19  C   UNL     1      -3.980   4.697  -3.599  0.00  0.00    +0.000 A 
ATOM     20  C   UNL     1      -3.679   4.252  -2.325  0.00  0.00    +0.005 A 
ENDBRANCH  14  15
ENDBRANCH   4  14
ENDBRANCH   1   2
BRANCH   1  21
ATOM     21  C   UNL     1       3.029   3.190   1.167  0.00  0.00    +0.106 C 
BRANCH  21  22
ATOM     22  C   UNL     1       2.495   3.821   2.454  0.00  0.00    +0.022 C 
BRANCH  22  24
ATOM     23  C   UNL     1       2.845   4.022   4.920  0.00  0.00    +0.007 C 
ATOM     24  C   UNL     1       3.296   3.299   3.649  0.00  0.00    -0.016 C 
ATOM     25  C   UNL     1       3.056   1.796   3.806  0.00  0.00    +0.007 C 
ENDBRANCH  22  24
ENDBRANCH  21  22
ENDBRANCH   1  21
BRANCH   1  26
ATOM     26  C   UNL     1       3.119   3.574  -1.222  0.00  0.00    +0.201 C 
BRANCH  26  27
ATOM     27  C   UNL     1       4.338   4.460  -1.208  0.00  0.00    +0.231 C 
ATOM     28  O   UNL     1       4.488   5.271  -0.320  0.00  0.00    -0.274 OA
ATOM     29  N   UNL     1       5.261   4.349  -2.183  0.00  0.00    -0.307 N 
ATOM     30  H   UNL     1       5.125   3.613  -2.989  0.00  0.00    +0.149 HD
BRANCH  29  31
ATOM     31  C   UNL     1       6.447   5.210  -2.170  0.00  0.00    +0.106 C 
BRANCH  31  32
ATOM     32  C   UNL     1       7.565   4.537  -2.924  0.00  0.00    -0.027 A 
ATOM     33  C   UNL     1       7.294   3.843  -4.088  0.00  0.00    +0.005 A 
ATOM     34  C   UNL     1       8.320   3.229  -4.781  0.00  0.00    +0.000 A 
ATOM     35  C   UNL     1       9.616   3.301  -4.305  0.00  0.00    +0.000 A 
ATOM     36  C   UNL     1       9.886   3.992  -3.138  0.00  0.00    +0.000 A 
ATOM     37  C   UNL     1       8.861   4.609  -2.447  0.00  0.00    +0.005 A 
ENDBRANCH  31  32
BRANCH  31  38
ATOM     38  C   UNL     1       6.114   6.546  -2.838  0.00  0.00    +0.008 C 
ATOM     39  C   UNL     1       5.561   6.292  -4.241  0.00  0.00    +0.009 C 
ATOM     40  C   UNL     1       5.067   7.287  -2.003  0.00  0.00    +0.009 C 
ENDBRANCH  31  38
ENDBRANCH  29  31
ENDBRANCH  26  27
ENDBRANCH   1  26
TORSDOF 12
