REMARK  Name = ZINC35464558
REMARK  16 active torsions:
REMARK  status: ('A' for Active; 'I' for Inactive)
REMARK    1  A    between atoms: C_1  and  C_2
REMARK    2  A    between atoms: C_2  and  C_3
REMARK    3  A    between atoms: C_3  and  C_4
REMARK    4  A    between atoms: C_4  and  C_5
REMARK    5  A    between atoms: C_5  and  C_6
REMARK    6  A    between atoms: C_6  and  O_8
REMARK    7  A    between atoms: O_8  and  C_9
REMARK    8  A    between atoms: C_12  and  C_29
REMARK    9  A    between atoms: C_13  and  C_26
REMARK   10  A    between atoms: C_13  and  O_28
REMARK   11  A    between atoms: C_14  and  C_25
REMARK   12  A    between atoms: C_17  and  C_23
REMARK   13  A    between atoms: C_17  and  C_24
REMARK   14  A    between atoms: C_20  and  O_22
REMARK   15  A    between atoms: C_26  and  O_27
REMARK   16  A    between atoms: C_29  and  O_30
REMARK                            x       y       z     vdW  Elec       q    Type
REMARK                         _______ _______ _______ _____ _____    ______ ____
ROOT
ATOM      1  C   UNL     1      -4.108  -6.327  -0.351  0.00  0.00    +0.204 C 
ATOM      2  C   UNL     1      -4.283  -6.817  -1.784  0.00  0.00    +0.021 C 
ATOM      3  C   UNL     1      -5.255  -7.654  -2.143  0.00  0.00    -0.011 C 
ATOM      4  C   UNL     1      -6.271  -8.149  -1.208  0.00  0.00    +0.120 C 
ATOM      5  C   UNL     1      -6.464  -7.211  -0.035  0.00  0.00    +0.036 C 
ATOM      6  C   UNL     1      -5.082  -6.894   0.642  0.00  0.00    +0.051 C 
ATOM      7  C   UNL     1      -5.144  -6.170   1.897  0.00  0.00    -0.028 C 
ATOM      8  C   UNL     1      -6.167  -6.806   2.803  0.00  0.00    +0.009 C 
ATOM      9  C   UNL     1      -7.507  -6.798   2.195  0.00  0.00    +0.032 C 
ATOM     10  C   UNL     1      -7.430  -7.726   0.980  0.00  0.00    +0.124 C 
ATOM     11  C   UNL     1      -3.816  -6.220   2.616  0.00  0.00    +0.011 C 
ATOM     12  C   UNL     1      -5.477  -4.625   1.739  0.00  0.00    +0.011 C 
ATOM     13  C   UNL     1      -6.998  -5.930  -0.620  0.00  0.00    +0.017 C 
ENDROOT
BRANCH  10  14
ATOM     14  O   UNL     1      -7.105  -9.052   1.413  0.00  0.00    -0.391 OA
ATOM     15  H   UNL     1      -7.716  -9.411   2.071  0.00  0.00    +0.210 HD
ENDBRANCH  10  14
BRANCH   4  16
ATOM     16  O   UNL     1      -7.484  -8.257  -1.941  0.00  0.00    -0.381 OA
ATOM     17  H   UNL     1      -7.436  -8.861  -2.695  0.00  0.00    +0.211 HD
ENDBRANCH   4  16
BRANCH   1  18
ATOM     18  O   UNL     1      -4.079  -4.939  -0.418  0.00  0.00    -0.457 OA
BRANCH  18  19
ATOM     19  C   UNL     1      -2.934  -4.372  -0.829  0.00  0.00    +0.308 C 
ATOM     20  O   UNL     1      -1.988  -5.064  -1.122  0.00  0.00    -0.251 OA
BRANCH  19  21
ATOM     21  C   UNL     1      -2.829  -2.872  -0.926  0.00  0.00    +0.120 C 
BRANCH  21  22
ATOM     22  C   UNL     1      -1.430  -2.490  -1.416  0.00  0.00    +0.011 C 
BRANCH  22  23
ATOM     23  C   UNL     1      -1.323  -0.967  -1.514  0.00  0.00    +0.000 C 
BRANCH  23  25
ATOM     24  C   UNL     1       0.182   0.939  -2.103  0.00  0.00    +0.004 C 
ATOM     25  C   UNL     1       0.075  -0.584  -2.005  0.00  0.00    -0.003 C 
ENDBRANCH  23  25
ENDBRANCH  22  23
ENDBRANCH  21  22
ENDBRANCH  19  21
ENDBRANCH  18  19
ENDBRANCH   1  18
BRANCH   4  26
ATOM     26  C   UNL     1      -5.745  -9.545  -0.779  0.00  0.00    +0.195 C 
BRANCH  26  27
ATOM     27  O   UNL     1      -5.511 -10.344  -1.941  0.00  0.00    -0.392 OA
ATOM     28  H   UNL     1      -5.180 -11.232  -1.747  0.00  0.00    +0.210 HD
ENDBRANCH  26  27
ENDBRANCH   4  26
BRANCH   3  29
ATOM     29  C   UNL     1      -5.329  -8.029  -3.658  0.00  0.00    +0.189 C 
BRANCH  29  30
ATOM     30  O   UNL     1      -4.285  -7.358  -4.367  0.00  0.00    -0.391 OA
ATOM     31  H   UNL     1      -4.271  -7.545  -5.315  0.00  0.00    +0.210 HD
ENDBRANCH  29  30
ENDBRANCH   3  29
TORSDOF 12
