REMARK  Name = ZINC39335213
REMARK  9 active torsions:
REMARK  status: ('A' for Active; 'I' for Inactive)
REMARK    1  A    between atoms: C_1  and  C_2
REMARK    2  A    between atoms: C_2  and  C_4
REMARK    3  A    between atoms: C_2  and  N_14
REMARK    4  A    between atoms: C_15  and  C_17
REMARK    5  A    between atoms: C_17  and  S_18
REMARK    6  A    between atoms: S_18  and  C_19
REMARK    7  A    between atoms: C_20  and  C_33
REMARK    8  A    between atoms: C_27  and  C_31
REMARK    9  A    between atoms: C_28  and  N_30
REMARK                            x       y       z     vdW  Elec       q    Type
REMARK                         _______ _______ _______ _____ _____    ______ ____
ROOT
ATOM      1  C   UNL     1       0.619  -1.809   6.307  0.00  0.00    +0.081 C 
ATOM      2  C   UNL     1       0.057  -1.998   7.530  0.00  0.00    +0.068 C 
ATOM      3  C   UNL     1       0.857  -2.512   8.694  0.00  0.00    +0.045 C 
ATOM      4  C   UNL     1       0.505  -1.703   9.947  0.00  0.00    +0.018 C 
ATOM      5  C   UNL     1       1.316  -2.224  11.134  0.00  0.00    +0.001 C 
ATOM      6  C   UNL     1       0.980  -3.698  11.374  0.00  0.00    +0.000 C 
ATOM      7  C   UNL     1       1.323  -4.509  10.123  0.00  0.00    +0.001 C 
ATOM      8  C   UNL     1       0.511  -3.985   8.936  0.00  0.00    +0.018 C 
ATOM      9  C   UNL     1       2.331  -2.386   8.422  0.00  0.00    +0.076 C 
ATOM     10  C   UNL     1       2.809  -2.183   7.168  0.00  0.00    +0.100 C 
ATOM     11  N   UNL     1       1.952  -2.081   6.096  0.00  0.00    -0.296 N 
ATOM     12  H   UNL     1       2.286  -2.197   5.193  0.00  0.00    +0.154 HD
ENDROOT
BRANCH  10  13
ATOM     13  N   UNL     1       4.165  -2.084   6.966  0.00  0.00    -0.346 N 
ATOM     14  H   UNL     1       4.774  -2.159   7.718  0.00  0.00    +0.143 HD
ATOM     15  H   UNL     1       4.513  -1.939   6.073  0.00  0.00    +0.143 HD
ENDBRANCH  10  13
BRANCH   9  16
ATOM     16  C   UNL     1       3.253  -2.483   9.514  0.00  0.00    +0.099 C 
ATOM     17  N   UNL     1       3.985  -2.560  10.379  0.00  0.00    -0.191 NA
ENDBRANCH   9  16
BRANCH   2  18
ATOM     18  C   UNL     1      -1.331  -1.700   7.714  0.00  0.00    +0.098 C 
ATOM     19  N   UNL     1      -2.433  -1.464   7.860  0.00  0.00    -0.191 NA
ENDBRANCH   2  18
BRANCH   1  20
ATOM     20  S   UNL     1      -0.371  -1.217   4.976  0.00  0.00    -0.100 S 
BRANCH  20  21
ATOM     21  C   UNL     1       0.780  -1.133   3.576  0.00  0.00    +0.171 C 
BRANCH  21  23
ATOM     22  N   UNL     1       0.711  -0.489   1.189  0.00  0.00    -0.312 N 
ATOM     23  C   UNL     1       0.051  -0.633   2.355  0.00  0.00    +0.223 C 
ATOM     24  O   UNL     1      -1.129  -0.361   2.423  0.00  0.00    -0.275 OA
ATOM     25  H   UNL     1       1.654  -0.707   1.135  0.00  0.00    +0.149 HD
BRANCH  22  27
ATOM     26  C   UNL     1      -0.019   1.526   0.010  0.00  0.00    +0.028 C 
ATOM     27  C   UNL     1       0.002  -0.004   0.002  0.00  0.00    +0.076 C 
BRANCH  27  28
ATOM     28  C   UNL     1       0.718  -0.497  -1.257  0.00  0.00    -0.010 C 
ATOM     29  C   UNL     1       2.154   0.032  -1.268  0.00  0.00    +0.012 C 
ATOM     30  C   UNL     1       2.870  -0.461  -2.526  0.00  0.00    -0.010 C 
ATOM     31  C   UNL     1       2.130   0.045  -3.766  0.00  0.00    +0.007 C 
ATOM     32  C   UNL     1       0.694  -0.484  -3.755  0.00  0.00    -0.010 C 
ATOM     33  C   UNL     1      -0.022   0.009  -2.496  0.00  0.00    +0.012 C 
ATOM     34  C   UNL     1       0.715  -2.014  -3.764  0.00  0.00    +0.007 C 
ATOM     35  C   UNL     1       1.455  -2.521  -2.524  0.00  0.00    -0.010 C 
ATOM     36  C   UNL     1       2.890  -1.991  -2.535  0.00  0.00    +0.007 C 
ATOM     37  C   UNL     1       0.739  -2.027  -1.265  0.00  0.00    +0.012 C 
ENDBRANCH  27  28
ENDBRANCH  22  27
ENDBRANCH  21  23
ENDBRANCH  20  21
ENDBRANCH   1  20
TORSDOF 8
