REMARK  Name = ZINC66639258
REMARK  7 active torsions:
REMARK  status: ('A' for Active; 'I' for Inactive)
REMARK    1  A    between atoms: C_1  and  C_2
REMARK    2  A    between atoms: C_2  and  C_3
REMARK    3  A    between atoms: C_2  and  N_4
REMARK    4  A    between atoms: C_5  and  C_10
REMARK    5  A    between atoms: C_10  and  N_11
REMARK    6  A    between atoms: C_12  and  C_14
REMARK    7  A    between atoms: C_19  and  O_20
REMARK                            x       y       z     vdW  Elec       q    Type
REMARK                         _______ _______ _______ _____ _____    ______ ____
ROOT
ATOM      1  N   UNL     1      -1.409  -2.660   3.389  0.00  0.00    -0.304 N 
ATOM      2  C   UNL     1      -2.598  -3.249   3.626  0.00  0.00    +0.248 C 
ATOM      3  O   UNL     1      -3.518  -3.097   2.844  0.00  0.00    -0.270 OA
ATOM      4  H   UNL     1      -0.675  -2.782   4.013  0.00  0.00    +0.149 HD
ENDROOT
BRANCH   2   5
ATOM      5  C   UNL     1      -2.784  -4.078   4.831  0.00  0.00    +0.080 A 
ATOM      6  C   UNL     1      -1.732  -4.250   5.734  0.00  0.00    +0.018 A 
ATOM      7  C   UNL     1      -1.911  -5.025   6.859  0.00  0.00    +0.022 A 
ATOM      8  C   UNL     1      -3.132  -5.637   7.100  0.00  0.00    +0.063 A 
ATOM      9  C   UNL     1      -4.182  -5.474   6.214  0.00  0.00    +0.101 A 
ATOM     10  C   UNL     1      -4.019  -4.691   5.080  0.00  0.00    +0.149 A 
ATOM     11 CL   UNL     1      -5.707  -6.244   6.526  0.00  0.00    -0.078 Cl
ATOM     12 CL   UNL     1      -3.344  -6.612   8.520  0.00  0.00    -0.082 Cl
BRANCH  10  13
ATOM     13  O   UNL     1      -5.050  -4.526   4.213  0.00  0.00    -0.504 OA
ATOM     14  H   UNL     1      -5.085  -5.191   3.512  0.00  0.00    +0.292 HD
ENDBRANCH  10  13
ENDBRANCH   2   5
BRANCH   1  15
ATOM     15  C   UNL     1      -1.224  -1.837   2.192  0.00  0.00    +0.181 C 
BRANCH  15  17
ATOM     16  N   UNL     1       0.711  -0.489   1.189  0.00  0.00    -0.303 N 
ATOM     17  C   UNL     1       0.184  -1.299   2.165  0.00  0.00    +0.149 A 
ATOM     18  N   UNL     1       1.093  -1.524   3.057  0.00  0.00    -0.157 NA
ATOM     19  N   UNL     1       2.260  -0.850   2.671  0.00  0.00    -0.254 N 
ATOM     20  C   UNL     1       1.993  -0.222   1.507  0.00  0.00    +0.176 A 
ATOM     21  S   UNL     1       3.082   0.741   0.602  0.00  0.00    -0.011 S 
ATOM     22  H   UNL     1       3.103  -0.839   3.150  0.00  0.00    +0.191 HD
BRANCH  16  24
ATOM     23  C   UNL     1      -0.019   1.526   0.010  0.00  0.00    +0.030 C 
ATOM     24  C   UNL     1       0.002  -0.004   0.002  0.00  0.00    +0.085 C 
ATOM     25  C   UNL     1       0.718  -0.497  -1.257  0.00  0.00    +0.030 C 
ENDBRANCH  16  24
ENDBRANCH  15  17
ENDBRANCH   1  15
TORSDOF 5
