REMARK  Name = ZINC65492188
REMARK  5 active torsions:
REMARK  status: ('A' for Active; 'I' for Inactive)
REMARK    1  A    between atoms: C_1  and  O_2
REMARK    2  A    between atoms: O_2  and  C_3
REMARK    3  A    between atoms: C_8  and  O_9
REMARK    4  A    between atoms: C_14  and  C_16
REMARK    5  A    between atoms: C_21  and  C_22
REMARK                            x       y       z     vdW  Elec       q    Type
REMARK                         _______ _______ _______ _____ _____    ______ ____
ROOT
ATOM      1  C   UNL     1       4.311  -2.824  -5.576  0.00  0.00    +0.162 A 
ATOM      2  C   UNL     1       3.308  -2.058  -5.004  0.00  0.00    +0.055 A 
ATOM      3  C   UNL     1       3.325  -0.683  -5.138  0.00  0.00    -0.018 A 
ATOM      4  C   UNL     1       4.350  -0.064  -5.839  0.00  0.00    +0.041 A 
ATOM      5  C   UNL     1       5.352  -0.830  -6.421  0.00  0.00    +0.072 A 
ATOM      6  C   UNL     1       5.337  -2.208  -6.285  0.00  0.00    +0.160 A 
ATOM      7  N   UNL     1       4.390   1.331  -5.944  0.00  0.00    -0.285 N 
ATOM      8  C   UNL     1       3.614   2.101  -5.162  0.00  0.00    +0.218 C 
ATOM      9  O   UNL     1       3.583   3.300  -5.340  0.00  0.00    -0.275 OA
ATOM     10  C   UNL     1       2.781   1.489  -4.066  0.00  0.00    +0.105 C 
ATOM     11  C   UNL     1       2.221   0.144  -4.530  0.00  0.00    +0.044 C 
ATOM     12  H   UNL     1       4.984   1.747  -6.588  0.00  0.00    +0.155 HD
ENDROOT
BRANCH  11  13
ATOM     13  C   UNL     1       1.128   0.381  -5.574  0.00  0.00    +0.086 C 
ATOM     14  C   UNL     1       1.675   1.158  -6.755  0.00  0.00    +0.117 C 
ATOM     15  N   UNL     1       1.003   2.261  -6.796  0.00  0.00    -0.161 NA
ATOM     16  N   UNL     1       0.053   2.341  -5.783  0.00  0.00    -0.158 NA
ATOM     17  C   UNL     1       0.049   1.292  -5.022  0.00  0.00    +0.053 C 
BRANCH  17  18
ATOM     18  C   UNL     1      -0.840   1.031  -3.834  0.00  0.00    +0.036 C 
ATOM     19  C   UNL     1       0.006   0.999  -2.560  0.00  0.00    +0.009 C 
ATOM     20  C   UNL     1      -0.897   0.734  -1.354  0.00  0.00    +0.001 C 
ATOM     21  C   UNL     1      -1.942   1.846  -1.245  0.00  0.00    +0.000 C 
ATOM     22  C   UNL     1      -2.788   1.877  -2.519  0.00  0.00    +0.001 C 
ATOM     23  C   UNL     1      -1.885   2.143  -3.725  0.00  0.00    +0.009 C 
ENDBRANCH  17  18
ENDBRANCH  11  13
BRANCH   1  25
ATOM     24  C   UNL     1       3.155  -4.752  -4.797  0.00  0.00    +0.277 C 
ATOM     25  O   UNL     1       4.295  -4.178  -5.441  0.00  0.00    -0.491 OA
ENDBRANCH   1  25
BRANCH   6  26
ATOM     26  O   UNL     1       6.322  -2.958  -6.848  0.00  0.00    -0.503 OA
ATOM     27  H   UNL     1       6.132  -3.239  -7.754  0.00  0.00    +0.292 HD
ENDBRANCH   6  26
TORSDOF 4
