REMARK  Name = ZINC65356697
REMARK  3 active torsions:
REMARK  status: ('A' for Active; 'I' for Inactive)
REMARK    1  A    between atoms: C_2  and  CA_7
REMARK    2  A    between atoms: CA_7  and  C_9
REMARK    3  A    between atoms: CA_7  and  N_12
REMARK                            x       y       z     vdW  Elec       q    Type
REMARK                         _______ _______ _______ _____ _____    ______ ____
ROOT
ATOM      1  C   UNL     1      -0.017   1.407   0.010  0.00  0.00    +0.127 A 
ATOM      2  C   UNL     1      -1.301   1.812   0.018  0.00  0.00    +0.180 A 
ATOM      3  O   UNL     1      -2.098   0.737   0.017  0.00  0.00    -0.378 OA
ATOM      4  N   UNL     1      -1.282  -0.421   0.006  0.00  0.00    -0.183 N 
ATOM      5  C   UNL     1       0.002  -0.004   0.002  0.00  0.00    +0.294 A 
ATOM      6  O   UNL     1       0.994  -0.715  -0.012  0.00  0.00    -0.264 OA
ATOM      7 BR   UNL     1       1.500   2.535   0.001  0.00  0.00    -0.041 Br
ATOM      8  H   UNL     1      -1.588  -1.341   0.003  0.00  0.00    +0.211 HD
ENDROOT
BRANCH   2   9
ATOM      9  CA  UNL     1      -1.766   3.246   0.029  0.00  0.00    +0.236 C 
BRANCH   9  10
ATOM     10  C   UNL     1      -2.486   3.531   1.322  0.00  0.00    +0.380 C 
ATOM     11  O   UNL     1      -1.865   3.939   2.288  0.00  0.00    -0.244 OA
ATOM     12  OXT UNL     1      -3.690   3.353   1.401  0.00  0.00    -0.244 OA
ENDBRANCH   9  10
BRANCH   9  13
ATOM     13  N   UNL     1      -2.678   3.473  -1.100  0.00  0.00    -0.312 NA
ATOM     14  H1  UNL     1      -2.201   3.351  -1.981  0.00  0.00    +0.119 HD
ATOM     15  H2  UNL     1      -3.486   2.870  -1.039  0.00  0.00    +0.119 HD
ENDBRANCH   9  13
ENDBRANCH   2   9
TORSDOF 3
