REMARK  Name = ZINC50397101
REMARK  4 active torsions:
REMARK  status: ('A' for Active; 'I' for Inactive)
REMARK    1  A    between atoms: C_2  and  N_20
REMARK    2  A    between atoms: N_4  and  C_17
REMARK    3  A    between atoms: C_5  and  C_6
REMARK    4  A    between atoms: N_8  and  C_9
REMARK                            x       y       z     vdW  Elec       q    Type
REMARK                         _______ _______ _______ _____ _____    ______ ____
ROOT
ATOM      1  C   UNL     1      -1.425  -0.861   0.008  0.00  0.00    +0.261 C 
ATOM      2  O   UNL     1      -2.498  -0.293  -0.066  0.00  0.00    -0.269 OA
ATOM      3  N   UNL     1      -1.379  -2.205   0.105  0.00  0.00    -0.299 N 
ATOM      4  H   UNL     1      -0.529  -2.653   0.239  0.00  0.00    +0.150 HD
ENDROOT
BRANCH   3   5
ATOM      5  C   UNL     1      -2.613  -2.989   0.008  0.00  0.00    +0.159 C 
ATOM      6  C   UNL     1      -2.429  -4.320   0.741  0.00  0.00    +0.033 C 
ATOM      7  C   UNL     1      -3.614  -5.230   0.398  0.00  0.00    +0.021 C 
ATOM      8  C   UNL     1      -3.530  -5.607  -1.081  0.00  0.00    +0.104 C 
ATOM      9  N   UNL     1      -3.361  -4.415  -1.903  0.00  0.00    -0.314 N 
ATOM     10  C   UNL     1      -2.930  -3.243  -1.438  0.00  0.00    +0.233 C 
ATOM     11  O   UNL     1      -2.789  -2.332  -2.225  0.00  0.00    -0.274 OA
ATOM     12  H   UNL     1      -3.573  -4.480  -2.847  0.00  0.00    +0.149 HD
ENDBRANCH   3   5
BRANCH   1  17
ATOM     13  C   UNL     1       1.099  -0.598  -0.030  0.00  0.00    +0.055 A 
ATOM     14  C   UNL     1       1.981   0.491  -0.041  0.00  0.00    +0.043 A 
ATOM     15  C   UNL     1       1.236   1.628  -0.026  0.00  0.00    +0.109 A 
ATOM     16  N   UNL     1      -0.080   1.287  -0.006  0.00  0.00    -0.338 N 
ATOM     17  C   UNL     1      -0.181  -0.085  -0.009  0.00  0.00    +0.106 A 
BRANCH  16  18
ATOM     18  C   UNL     1      -1.205   2.226   0.015  0.00  0.00    +0.088 C 
ATOM     19  C   UNL     1      -0.880   3.719  -0.065  0.00  0.00    +0.027 C 
ATOM     20  C   UNL     1      -1.363   3.111   1.254  0.00  0.00    +0.027 C 
ENDBRANCH  16  18
BRANCH  14  21
ATOM     21  N   UNL     1       3.386   0.421  -0.063  0.00  0.00    -0.357 N 
ATOM     22  H   UNL     1       3.829  -0.442  -0.072  0.00  0.00    +0.142 HD
ATOM     23  H   UNL     1       3.913   1.236  -0.069  0.00  0.00    +0.142 HD
ENDBRANCH  14  21
ENDBRANCH   1  17
TORSDOF 4
