REMARK  Name = ZINC28628482
REMARK  5 active torsions:
REMARK  status: ('A' for Active; 'I' for Inactive)
REMARK    1  A    between atoms: C_1  and  O_2
REMARK    2  A    between atoms: O_2  and  C_3
REMARK    3  A    between atoms: C_8  and  N_9
REMARK    4  A    between atoms: C_19  and  S_20
REMARK    5  A    between atoms: S_20  and  C_21
REMARK                            x       y       z     vdW  Elec       q    Type
REMARK                         _______ _______ _______ _____ _____    ______ ____
ROOT
ATOM      1  N   UNL     1      -1.202  -0.724   0.009  0.00  0.00    -0.252 N 
ATOM      2  C   UNL     1      -1.769  -1.076   1.187  0.00  0.00    +0.269 A 
ATOM      3  O   UNL     1      -1.255  -0.780   2.250  0.00  0.00    -0.266 OA
ATOM      4  C   UNL     1      -3.028  -1.828   1.133  0.00  0.00    +0.084 A 
ATOM      5  C   UNL     1      -3.697  -2.243   2.281  0.00  0.00    +0.022 A 
ATOM      6  C   UNL     1      -4.883  -2.950   2.138  0.00  0.00    -0.025 A 
ATOM      7  C   UNL     1      -5.370  -3.217   0.872  0.00  0.00    +0.047 A 
ATOM      8  N   UNL     1      -4.715  -2.815  -0.208  0.00  0.00    -0.232 NA
ATOM      9  C   UNL     1      -3.575  -2.139  -0.135  0.00  0.00    +0.168 A 
ATOM     10  N   UNL     1      -2.921  -1.736  -1.241  0.00  0.00    -0.203 NA
ATOM     11  C   UNL     1      -1.799  -1.061  -1.172  0.00  0.00    +0.178 A 
ATOM     12  C   UNL     1      -6.662  -3.966   0.651  0.00  0.00    +0.056 C 
ATOM     13  C   UNL     1      -7.059  -4.734   1.908  0.00  0.00    +0.006 C 
ATOM     14  C   UNL     1      -7.036  -3.766   3.097  0.00  0.00    +0.005 C 
ATOM     15  C   UNL     1      -5.582  -3.402   3.392  0.00  0.00    +0.037 C 
ENDROOT
BRANCH   1  21
ATOM     16  C   UNL     1      -0.017   1.389   0.010  0.00  0.00    +0.144 A 
ATOM     17  C   UNL     1       1.176   2.094   0.002  0.00  0.00    +0.048 A 
ATOM     18  C   UNL     1       2.380   1.416  -0.013  0.00  0.00    +0.004 A 
ATOM     19  C   UNL     1       2.400   0.034  -0.021  0.00  0.00    +0.002 A 
ATOM     20  C   UNL     1       1.215  -0.677  -0.013  0.00  0.00    +0.030 A 
ATOM     21  C   UNL     1       0.002  -0.004   0.002  0.00  0.00    +0.093 A 
BRANCH  16  23
ATOM     22  C   UNL     1      -1.145   3.482   0.026  0.00  0.00    +0.277 C 
ATOM     23  O   UNL     1      -1.202   2.054   0.019  0.00  0.00    -0.493 OA
ENDBRANCH  16  23
ENDBRANCH   1  21
BRANCH  11  24
ATOM     24  S   UNL     1      -1.021  -0.573  -2.676  0.00  0.00    -0.091 S 
ATOM     25  C   UNL     1      -2.195  -1.254  -3.873  0.00  0.00    +0.093 C 
ENDBRANCH  11  24
TORSDOF 3
