REMARK  Name = ZINC45440156
REMARK  7 active torsions:
REMARK  status: ('A' for Active; 'I' for Inactive)
REMARK    1  A    between atoms: C_1  and  C_2
REMARK    2  A    between atoms: C_2  and  C_4
REMARK    3  A    between atoms: C_2  and  O_23
REMARK    4  A    between atoms: N_6  and  N_7
REMARK    5  A    between atoms: N_10  and  C_11
REMARK    6  A    between atoms: C_16  and  C_19
REMARK    7  A    between atoms: O_23  and  C_24
REMARK                            x       y       z     vdW  Elec       q    Type
REMARK                         _______ _______ _______ _____ _____    ______ ____
ROOT
ATOM      1  N   UNL     1      -3.545  -1.209   0.937  0.00  0.00    -0.218 N 
ATOM      2  C   UNL     1      -4.351  -1.186   2.017  0.00  0.00    +0.316 C 
ATOM      3  O   UNL     1      -5.490  -1.605   1.933  0.00  0.00    -0.251 OA
ATOM      4  N   UNL     1      -3.897  -0.700   3.188  0.00  0.00    -0.295 N 
ATOM      5  H   UNL     1      -3.872  -1.559   0.094  0.00  0.00    +0.174 HD
ATOM      6  H   UNL     1      -2.989  -0.365   3.255  0.00  0.00    +0.151 HD
ENDROOT
BRANCH   4   7
ATOM      7  C   UNL     1      -4.774  -0.675   4.361  0.00  0.00    +0.075 C 
ATOM      8  C   UNL     1      -4.716  -2.030   5.070  0.00  0.00    +0.022 C 
ATOM      9  C   UNL     1      -3.279  -2.312   5.513  0.00  0.00    +0.002 C 
ATOM     10  C   UNL     1      -2.817  -1.214   6.473  0.00  0.00    +0.012 C 
ATOM     11  C   UNL     1      -2.875   0.140   5.765  0.00  0.00    +0.095 C 
ATOM     12  C   UNL     1      -4.311   0.423   5.321  0.00  0.00    +0.034 C 
BRANCH  11  13
ATOM     13  C   UNL     1      -2.412   1.238   6.725  0.00  0.00    +0.393 C 
ATOM     14  F   UNL     1      -1.098   0.980   7.130  0.00  0.00    -0.170 F 
ATOM     15  F   UNL     1      -2.465   2.477   6.077  0.00  0.00    -0.170 F 
ATOM     16  F   UNL     1      -3.250   1.262   7.845  0.00  0.00    -0.170 F 
ENDBRANCH  11  13
ENDBRANCH   4   7
BRANCH   1  19
ATOM     17  C   UNL     1      -1.426  -0.748  -0.046  0.00  0.00    +0.270 C 
ATOM     18  O   UNL     1      -1.835  -1.187  -1.100  0.00  0.00    -0.270 OA
ATOM     19  N   UNL     1      -2.233  -0.726   1.034  0.00  0.00    -0.230 N 
ATOM     20  H   UNL     1      -1.905  -0.376   1.877  0.00  0.00    +0.173 HD
BRANCH  17  22
ATOM     21  C   UNL     1      -0.044   1.273   0.345  0.00  0.00    +0.062 C 
ATOM     22  C   UNL     1      -0.015  -0.229   0.058  0.00  0.00    +0.257 C 
BRANCH  22  23
ATOM     23  O   UNL     1       0.671  -0.465  -1.174  0.00  0.00    -0.480 OA
BRANCH  23  24
ATOM     24  C   UNL     1       2.026  -0.553  -1.118  0.00  0.00    +0.122 A 
ATOM     25  C   UNL     1       2.690  -0.309   0.075  0.00  0.00    +0.048 A 
ATOM     26  C   UNL     1       4.067  -0.399   0.130  0.00  0.00    +0.042 A 
ATOM     27  C   UNL     1       4.786  -0.732  -1.005  0.00  0.00    +0.124 A 
ATOM     28  C   UNL     1       4.125  -0.976  -2.197  0.00  0.00    +0.042 A 
ATOM     29  C   UNL     1       2.747  -0.893  -2.254  0.00  0.00    +0.048 A 
ATOM     30  F   UNL     1       6.133  -0.819  -0.950  0.00  0.00    -0.205 F 
ENDBRANCH  23  24
ENDBRANCH  22  23
ENDBRANCH  17  22
ENDBRANCH   1  19
TORSDOF 6
