REMARK  Name = ZINC00883414
REMARK  2 active torsions:
REMARK  status: ('A' for Active; 'I' for Inactive)
REMARK    1  A    between atoms: C_8  and  C_24
REMARK    2  A    between atoms: C_14  and  C_19
REMARK                            x       y       z     vdW  Elec       q    Type
REMARK                         _______ _______ _______ _____ _____    ______ ____
ROOT
ATOM      1  C   UNL     1      -1.443  10.908  -3.530  0.00  0.00    +0.002 A 
ATOM      2  C   UNL     1      -0.790   9.796  -4.031  0.00  0.00    +0.002 A 
ATOM      3  C   UNL     1      -1.151   8.527  -3.612  0.00  0.00    +0.025 A 
ATOM      4  C   UNL     1      -2.168   8.382  -2.685  0.00  0.00    +0.052 A 
ATOM      5  C   UNL     1      -2.796   9.497  -2.152  0.00  0.00    +0.049 A 
ATOM      6  C   UNL     1      -2.448  10.765  -2.589  0.00  0.00    +0.025 A 
ATOM      7  N   UNL     1      -3.722   9.310  -1.127  0.00  0.00    -0.331 N 
ATOM      8  C   UNL     1      -3.316   8.782   0.158  0.00  0.00    +0.136 C 
ATOM      9  C   UNL     1      -2.804   7.363   0.119  0.00  0.00    +0.036 C 
ATOM     10  C   UNL     1      -2.497   6.665  -0.988  0.00  0.00    +0.017 C 
ATOM     11  N   UNL     1      -2.612   7.136  -2.256  0.00  0.00    -0.316 N 
ATOM     12  C   UNL     1      -1.992   5.236  -0.882  0.00  0.00    +0.060 C 
ATOM     13  C   UNL     1      -1.183   5.062   0.402  0.00  0.00    +0.039 C 
ATOM     14  C   UNL     1      -2.104   5.391   1.583  0.00  0.00    +0.088 C 
ATOM     15  C   UNL     1      -2.643   6.777   1.397  0.00  0.00    +0.163 C 
ATOM     16  O   UNL     1      -2.952   7.422   2.380  0.00  0.00    -0.292 OA
ATOM     17  H   UNL     1      -4.653   9.538  -1.277  0.00  0.00    +0.147 HD
ATOM     18  H   UNL     1      -3.036   6.561  -2.911  0.00  0.00    +0.152 HD
ENDROOT
BRANCH   8  19
ATOM     19  C   UNL     1      -2.231   9.666   0.716  0.00  0.00    -0.019 A 
ATOM     20  C   UNL     1      -2.419  10.308   1.926  0.00  0.00    +0.009 A 
ATOM     21  C   UNL     1      -1.424  11.116   2.445  0.00  0.00    +0.050 A 
ATOM     22  C   UNL     1      -0.240  11.293   1.747  0.00  0.00    +0.166 A 
ATOM     23  C   UNL     1      -0.053  10.651   0.526  0.00  0.00    +0.167 A 
ATOM     24  C   UNL     1      -1.052   9.838   0.015  0.00  0.00    +0.055 A 
ATOM     25  O   UNL     1       1.179  10.982   0.042  0.00  0.00    -0.453 OA
ATOM     26  C   UNL     1       1.579  12.153   0.779  0.00  0.00    +0.466 C 
ATOM     27  O   UNL     1       0.875  12.027   2.029  0.00  0.00    -0.453 OA
ENDBRANCH   8  19
BRANCH  13  28
ATOM     28  C   UNL     1      -0.699   3.639   0.512  0.00  0.00    -0.006 A 
ATOM     29  C   UNL     1       0.572   3.175   0.598  0.00  0.00    +0.011 A 
ATOM     30  C   UNL     1       0.782   1.812   0.692  0.00  0.00    +0.008 A 
ATOM     31  C   UNL     1      -0.289   0.980   0.696  0.00  0.00    +0.045 A 
ATOM     32  S   UNL     1      -1.649   2.129   0.558  0.00  0.00    -0.101 S 
ENDBRANCH  13  28
TORSDOF 2
