REMARK  Name = ZINC44861239
REMARK  8 active torsions:
REMARK  status: ('A' for Active; 'I' for Inactive)
REMARK    1  A    between atoms: C_1  and  C_2
REMARK    2  A    between atoms: C_2  and  C_3
REMARK    3  A    between atoms: C_3  and  C_4
REMARK    4  A    between atoms: C_4  and  C_6
REMARK    5  A    between atoms: C_4  and  C_10
REMARK    6  A    between atoms: N_7  and  O_8
REMARK    7  A    between atoms: N_12  and  C_13
REMARK    8  A    between atoms: C_16  and  C_20
REMARK                            x       y       z     vdW  Elec       q    Type
REMARK                         _______ _______ _______ _____ _____    ______ ____
ROOT
ATOM      1  C   UNL     1      -2.474  -3.022  -1.341  0.00  0.00    +0.228 C 
ATOM      2  O   UNL     1      -2.582  -4.215  -1.532  0.00  0.00    -0.275 OA
ATOM      3  N   UNL     1      -3.575  -2.263  -1.179  0.00  0.00    -0.283 N 
ATOM      4  H   UNL     1      -3.488  -1.324  -0.954  0.00  0.00    +0.155 HD
ENDROOT
BRANCH   3   5
ATOM      5  C   UNL     1      -4.846  -2.830  -1.337  0.00  0.00    +0.062 A 
ATOM      6  C   UNL     1      -5.508  -3.370  -0.241  0.00  0.00    +0.040 A 
ATOM      7  C   UNL     1      -6.762  -3.928  -0.401  0.00  0.00    +0.020 A 
ATOM      8  C   UNL     1      -7.357  -3.950  -1.648  0.00  0.00    -0.048 A 
ATOM      9  C   UNL     1      -6.701  -3.415  -2.741  0.00  0.00    +0.020 A 
ATOM     10  C   UNL     1      -5.449  -2.849  -2.588  0.00  0.00    +0.040 A 
ATOM     11 BR   UNL     1      -4.556  -2.109  -4.081  0.00  0.00    -0.048 Br
ATOM     12  C   UNL     1      -8.725  -4.561  -1.818  0.00  0.00    +0.044 C 
ATOM     13 BR   UNL     1      -4.694  -3.341   1.465  0.00  0.00    -0.048 Br
ENDBRANCH   3   5
BRANCH   1  14
ATOM     14  C   UNL     1      -1.107  -2.390  -1.283  0.00  0.00    +0.141 C 
BRANCH  14  15
ATOM     15  C   UNL     1      -0.054  -3.448  -1.491  0.00  0.00    +0.144 C 
ATOM     16  N   UNL     1       0.503  -4.014  -0.473  0.00  0.00    -0.076 NA
ATOM     17  N   UNL     1       0.313  -3.811  -2.768  0.00  0.00    -0.343 N 
ATOM     18  H   UNL     1      -0.106  -3.386  -3.533  0.00  0.00    +0.144 HD
ATOM     19  H   UNL     1       0.991  -4.492  -2.902  0.00  0.00    +0.144 HD
BRANCH  16  20
ATOM     20  O   UNL     1       1.492  -5.008  -0.669  0.00  0.00    -0.408 OA
ATOM     21  H   UNL     1       1.851  -5.373   0.152  0.00  0.00    +0.328 HD
ENDBRANCH  16  20
ENDBRANCH  14  15
BRANCH  14  22
ATOM     22  C   UNL     1      -0.907  -1.734   0.085  0.00  0.00    +0.020 C 
BRANCH  22  24
ATOM     23  C   UNL     1       0.628  -0.329   1.468  0.00  0.00    +0.004 C 
ATOM     24  C   UNL     1       0.428  -0.985   0.101  0.00  0.00    -0.002 C 
ENDBRANCH  22  24
ENDBRANCH  14  22
ENDBRANCH   1  14
TORSDOF 6
