REMARK  Name = ZINC49570774
REMARK  7 active torsions:
REMARK  status: ('A' for Active; 'I' for Inactive)
REMARK    1  A    between atoms: C_1  and  C_2
REMARK    2  A    between atoms: C_2  and  C_4
REMARK    3  A    between atoms: C_2  and  N_11
REMARK    4  A    between atoms: N_11  and  S_12
REMARK    5  A    between atoms: S_12  and  C_15
REMARK    6  A    between atoms: C_20  and  N_21
REMARK    7  A    between atoms: N_21  and  N_22
REMARK                            x       y       z     vdW  Elec       q    Type
REMARK                         _______ _______ _______ _____ _____    ______ ____
ROOT
ATOM      1  S   UNL     1      -2.188  -0.795  -1.433  0.00  0.00    +0.062 S 
ATOM      2  O   UNL     1      -3.545  -1.155  -1.213  0.00  0.00    -0.153 OA
ATOM      3  O   UNL     1      -1.816   0.338  -2.206  0.00  0.00    -0.153 OA
ENDROOT
BRANCH   1   4
ATOM      4  C   UNL     1      -1.410  -2.190  -2.177  0.00  0.00    +0.146 A 
ATOM      5  C   UNL     1      -0.647  -2.039  -3.321  0.00  0.00    +0.033 A 
ATOM      6  C   UNL     1      -0.052  -3.166  -3.874  0.00  0.00    +0.022 A 
ATOM      7  C   UNL     1      -0.239  -4.394  -3.271  0.00  0.00    +0.113 A 
ATOM      8  N   UNL     1      -0.973  -4.507  -2.180  0.00  0.00    -0.237 NA
ATOM      9  C   UNL     1      -1.551  -3.456  -1.619  0.00  0.00    +0.159 A 
BRANCH   9  10
ATOM     10  N   UNL     1      -2.310  -3.621  -0.467  0.00  0.00    -0.266 N 
ATOM     11  H   UNL     1      -2.671  -2.845  -0.009  0.00  0.00    +0.167 HD
BRANCH  10  12
ATOM     12  N   UNL     1      -2.548  -4.874   0.021  0.00  0.00    -0.255 NA
ATOM     13  H   UNL     1      -1.684  -5.367   0.189  0.00  0.00    +0.140 HD
ATOM     14  H   UNL     1      -3.111  -4.836   0.858  0.00  0.00    +0.140 HD
ENDBRANCH  10  12
ENDBRANCH   9  10
ENDBRANCH   1   4
BRANCH   1  15
ATOM     15  N   UNL     1      -1.504  -0.592   0.062  0.00  0.00    -0.183 NA
ATOM     16  H   UNL     1      -2.042  -0.704   0.861  0.00  0.00    +0.149 HD
BRANCH  15  18
ATOM     17  C   UNL     1       0.057   1.272   0.329  0.00  0.00    +0.031 C 
ATOM     18  C   UNL     1      -0.086  -0.244   0.177  0.00  0.00    +0.103 C 
BRANCH  18  19
ATOM     19  C   UNL     1       0.503  -0.927   1.385  0.00  0.00    -0.028 A 
ATOM     20  C   UNL     1      -0.230  -1.016   2.554  0.00  0.00    +0.005 A 
ATOM     21  C   UNL     1       0.310  -1.643   3.662  0.00  0.00    +0.001 A 
ATOM     22  C   UNL     1       1.581  -2.181   3.601  0.00  0.00    +0.015 A 
ATOM     23  C   UNL     1       2.314  -2.093   2.431  0.00  0.00    +0.018 A 
ATOM     24  C   UNL     1       1.772  -1.470   1.321  0.00  0.00    +0.020 A 
ATOM     25 BR   UNL     1       4.054  -2.829   2.348  0.00  0.00    -0.050 Br
ENDBRANCH  18  19
ENDBRANCH  15  18
ENDBRANCH   1  15
TORSDOF 6
