REMARK  Name = ZINC39465252
REMARK  3 active torsions:
REMARK  status: ('A' for Active; 'I' for Inactive)
REMARK    1  A    between atoms: C_1  and  O_2
REMARK    2  A    between atoms: O_2  and  C_3
REMARK    3  A    between atoms: C_8  and  O_9
REMARK                            x       y       z     vdW  Elec       q    Type
REMARK                         _______ _______ _______ _____ _____    ______ ____
ROOT
ATOM      1  C   UNL     1       0.606  -0.608  -1.056  0.00  0.00    +0.162 A 
ATOM      2  C   UNL     1       1.173   0.156  -2.062  0.00  0.00    +0.053 A 
ATOM      3  C   UNL     1       1.789  -0.456  -3.143  0.00  0.00    -0.038 A 
ATOM      4  C   UNL     1       1.841  -1.831  -3.222  0.00  0.00    -0.020 A 
ATOM      5  C   UNL     1       1.275  -2.600  -2.215  0.00  0.00    +0.054 A 
ATOM      6  C   UNL     1       0.663  -1.996  -1.131  0.00  0.00    +0.159 A 
ATOM      7  C   UNL     1       2.497  -2.542  -4.377  0.00  0.00    +0.130 C 
ATOM      8  C   UNL     1       3.320  -3.716  -3.837  0.00  0.00    +0.196 C 
ATOM      9  O   UNL     1       3.848  -4.461  -4.953  0.00  0.00    -0.292 OA
ATOM     10  P   UNL     1       4.620  -3.644  -6.128  0.00  0.00    +0.448 P 
ATOM     11  O   UNL     1       6.078  -3.353  -5.708  0.00  0.00    -0.236 OA
ATOM     12  N   UNL     1       3.785  -2.228  -6.309  0.00  0.00    -0.154 NA
ATOM     13  N   UNL     1       3.349  -1.633  -5.143  0.00  0.00    -0.224 NA
ATOM     14  C   UNL     1       2.629  -0.394  -5.475  0.00  0.00    +0.108 C 
ATOM     15  C   UNL     1       2.394   0.417  -4.213  0.00  0.00    +0.052 C 
ATOM     16  O   UNL     1       4.596  -4.453  -7.444  0.00  0.00    -0.126 OA
ATOM     17  H   UNL     1       3.623  -1.841  -7.183  0.00  0.00    +0.153 HD
ENDROOT
BRANCH   1  19
ATOM     18  C   UNL     1      -0.017   1.425   0.010  0.00  0.00    +0.277 C 
ATOM     19  O   UNL     1       0.002  -0.004   0.002  0.00  0.00    -0.491 OA
ENDBRANCH   1  19
BRANCH   6  20
ATOM     20  O   UNL     1       0.115  -2.756  -0.146  0.00  0.00    -0.503 OA
ATOM     21  H   UNL     1      -0.813  -2.983  -0.294  0.00  0.00    +0.292 HD
ENDBRANCH   6  20
TORSDOF 2
