REMARK  Name = ZINC47129019
REMARK  9 active torsions:
REMARK  status: ('A' for Active; 'I' for Inactive)
REMARK    1  A    between atoms: C_1  and  C_2
REMARK    2  A    between atoms: C_2  and  C_4
REMARK    3  A    between atoms: C_2  and  N_17
REMARK    4  A    between atoms: C_7  and  N_10
REMARK    5  A    between atoms: N_13  and  C_14
REMARK    6  A    between atoms: N_20  and  C_21
REMARK    7  A    between atoms: N_20  and  C_22
REMARK    8  A    between atoms: C_22  and  C_23
REMARK    9  A    between atoms: C_28  and  O_29
REMARK                            x       y       z     vdW  Elec       q    Type
REMARK                         _______ _______ _______ _____ _____    ______ ____
ROOT
ATOM      1  C   UNL     1       0.162   1.539  -0.084  0.00  0.00    +0.033 C 
ATOM      2  C   UNL     1       0.000   0.020   0.013  0.00  0.00    +0.102 C 
ENDROOT
BRANCH   2   3
ATOM      3  C   UNL     1       0.730  -0.485   1.231  0.00  0.00    -0.027 A 
ATOM      4  C   UNL     1       0.143  -0.382   2.479  0.00  0.00    +0.007 A 
ATOM      5  C   UNL     1       0.809  -0.845   3.597  0.00  0.00    +0.023 A 
ATOM      6  C   UNL     1       2.069  -1.414   3.467  0.00  0.00    +0.035 A 
ATOM      7  C   UNL     1       2.655  -1.516   2.213  0.00  0.00    +0.023 A 
ATOM      8  C   UNL     1       1.982  -1.057   1.098  0.00  0.00    +0.007 A 
BRANCH   6   9
ATOM      9  N   UNL     1       2.746  -1.883   4.598  0.00  0.00    -0.269 N 
ATOM     10  C   UNL     1       2.054  -2.412   5.627  0.00  0.00    +0.304 C 
ATOM     11  O   UNL     1       0.853  -2.571   5.534  0.00  0.00    -0.253 OA
ATOM     12  N   UNL     1       2.695  -2.765   6.759  0.00  0.00    -0.296 N 
ATOM     13  H   UNL     1       3.713  -1.827   4.642  0.00  0.00    +0.156 HD
ATOM     14  H   UNL     1       3.654  -2.639   6.833  0.00  0.00    +0.151 HD
BRANCH  12  15
ATOM     15  C   UNL     1       1.943  -3.341   7.877  0.00  0.00    +0.075 C 
ATOM     16  C   UNL     1       2.270  -2.834   9.283  0.00  0.00    +0.024 C 
ATOM     17  C   UNL     1       2.706  -4.237   8.854  0.00  0.00    +0.024 C 
ENDBRANCH  12  15
ENDBRANCH   6   9
ENDBRANCH   2   3
BRANCH   2  18
ATOM     18  N   UNL     1      -1.422  -0.313   0.122  0.00  0.00    -0.293 N 
ATOM     19  C   UNL     1      -2.173  -0.434  -0.990  0.00  0.00    +0.303 C 
ATOM     20  O   UNL     1      -1.670  -0.267  -2.085  0.00  0.00    -0.253 OA
ATOM     21  N   UNL     1      -3.482  -0.741  -0.890  0.00  0.00    -0.284 N 
ATOM     22  C   UNL     1      -4.088  -0.943   0.428  0.00  0.00    +0.134 C 
ATOM     23  H   UNL     1      -1.823  -0.447   0.995  0.00  0.00    +0.151 HD
BRANCH  21  24
ATOM     24  C   UNL     1      -4.298  -0.873  -2.099  0.00  0.00    +0.147 C 
BRANCH  24  25
ATOM     25  C   UNL     1      -4.258  -2.301  -2.579  0.00  0.00    +0.011 A 
ATOM     26  C   UNL     1      -3.419  -2.659  -3.617  0.00  0.00    +0.009 A 
ATOM     27  C   UNL     1      -3.383  -3.969  -4.057  0.00  0.00    +0.001 A 
ATOM     28  C   UNL     1      -4.186  -4.924  -3.461  0.00  0.00    +0.004 A 
ATOM     29  C   UNL     1      -5.026  -4.571  -2.423  0.00  0.00    +0.046 A 
ATOM     30  C   UNL     1      -5.061  -3.258  -1.976  0.00  0.00    +0.122 A 
BRANCH  30  31
ATOM     31  O   UNL     1      -5.883  -2.910  -0.951  0.00  0.00    -0.506 OA
ATOM     32  H   UNL     1      -6.765  -2.632  -1.232  0.00  0.00    +0.292 HD
ENDBRANCH  30  31
ENDBRANCH  24  25
ENDBRANCH  21  24
ENDBRANCH   2  18
TORSDOF 7
