REMARK  Name = ZINC45594242
REMARK  7 active torsions:
REMARK  status: ('A' for Active; 'I' for Inactive)
REMARK    1  A    between atoms: C_9  and  N_31
REMARK    2  A    between atoms: C_11  and  C_13
REMARK    3  A    between atoms: C_13  and  O_14
REMARK    4  A    between atoms: O_14  and  C_15
REMARK    5  A    between atoms: C_15  and  C_17
REMARK    6  A    between atoms: C_17  and  N_18
REMARK    7  A    between atoms: C_19  and  C_21
REMARK                            x       y       z     vdW  Elec       q    Type
REMARK                         _______ _______ _______ _____ _____    ______ ____
ROOT
ATOM      1  C   UNL     1       7.624  -1.402  -3.577  0.00  0.00    +0.308 C 
ENDROOT
BRANCH   1  12
ATOM      2  C   UNL     1      -0.384   1.215  -0.607  0.00  0.00    +0.001 C 
ATOM      3  C   UNL     1       1.010   1.805  -0.402  0.00  0.00    +0.005 C 
ATOM      4  C   UNL     1       1.909   1.473  -1.587  0.00  0.00    +0.037 C 
ATOM      5  C   UNL     1       2.627   0.149  -1.346  0.00  0.00    -0.025 A 
ATOM      6  C   UNL     1       2.117  -0.812  -0.550  0.00  0.00    -0.004 A 
ATOM      7  S   UNL     1       3.294  -2.138  -0.605  0.00  0.00    -0.073 S 
ATOM      8  C   UNL     1       4.483  -1.396  -1.691  0.00  0.00    +0.114 A 
ATOM      9  C   UNL     1       3.919  -0.138  -1.979  0.00  0.00    +0.051 A 
ATOM     10  C   UNL     1       4.681   0.689  -2.850  0.00  0.00    +0.128 A 
ATOM     11  N   UNL     1       5.834   0.239  -3.319  0.00  0.00    -0.214 NA
ATOM     12  C   UNL     1       6.303  -0.956  -3.005  0.00  0.00    +0.170 A 
ATOM     13  N   UNL     1       5.641  -1.766  -2.202  0.00  0.00    -0.221 NA
ATOM     14  C   UNL     1       0.840  -0.773   0.232  0.00  0.00    +0.043 C 
ATOM     15  C   UNL     1      -0.300  -0.306  -0.682  0.00  0.00    +0.005 C 
BRANCH  10  16
ATOM     16  N   UNL     1       4.224   1.946  -3.203  0.00  0.00    -0.343 N 
ATOM     17  H   UNL     1       4.854   2.640  -3.451  0.00  0.00    +0.144 HD
ATOM     18  H   UNL     1       3.272   2.133  -3.202  0.00  0.00    +0.144 HD
ENDBRANCH  10  16
ENDBRANCH   1  12
BRANCH   1  19
ATOM     19  O   UNL     1       8.680  -1.013  -2.696  0.00  0.00    -0.456 OA
BRANCH  19  20
ATOM     20  C   UNL     1       9.930  -1.338  -3.062  0.00  0.00    +0.325 C 
ATOM     21  O   UNL     1      10.121  -1.933  -4.096  0.00  0.00    -0.249 OA
BRANCH  20  22
ATOM     22  C   UNL     1      11.095  -0.961  -2.183  0.00  0.00    +0.224 C 
BRANCH  22  23
ATOM     23  N   UNL     1      12.341  -1.425  -2.799  0.00  0.00    -0.304 N 
ATOM     24  C   UNL     1      13.520  -1.197  -2.187  0.00  0.00    +0.220 C 
ATOM     25  O   UNL     1      13.549  -0.609  -1.127  0.00  0.00    -0.275 OA
ATOM     26  H   UNL     1      12.317  -1.895  -3.647  0.00  0.00    +0.149 HD
BRANCH  24  27
ATOM     27  C   UNL     1      14.802  -1.674  -2.820  0.00  0.00    +0.048 C 
ATOM     28  C   UNL     1      14.756  -3.195  -2.981  0.00  0.00    +0.019 C 
ATOM     29  C   UNL     1      16.057  -3.679  -3.624  0.00  0.00    -0.009 C 
ATOM     30  C   UNL     1      17.240  -3.296  -2.732  0.00  0.00    +0.007 C 
ATOM     31  C   UNL     1      17.285  -1.775  -2.570  0.00  0.00    -0.009 C 
ATOM     32  C   UNL     1      15.984  -1.291  -1.928  0.00  0.00    +0.019 C 
ATOM     33  C   UNL     1      17.450  -1.121  -3.944  0.00  0.00    +0.007 C 
ATOM     34  C   UNL     1      16.267  -1.504  -4.836  0.00  0.00    -0.009 C 
ATOM     35  C   UNL     1      16.222  -3.025  -4.997  0.00  0.00    +0.007 C 
ATOM     36  C   UNL     1      14.966  -1.020  -4.193  0.00  0.00    +0.019 C 
ENDBRANCH  24  27
ENDBRANCH  22  23
ENDBRANCH  20  22
ENDBRANCH  19  20
ENDBRANCH   1  19
TORSDOF 7
