REMARK  Name = ZINC19973816
REMARK  4 active torsions:
REMARK  status: ('A' for Active; 'I' for Inactive)
REMARK    1  A    between atoms: C_1  and  C_2
REMARK    2  A    between atoms: C_2  and  O_3
REMARK    3  A    between atoms: O_3  and  C_4
REMARK    4  A    between atoms: C_9  and  C_10
REMARK                            x       y       z     vdW  Elec       q    Type
REMARK                         _______ _______ _______ _____ _____    ______ ____
ROOT
ATOM      1  C   UNL     1      -2.566   4.522   0.049  0.00  0.00    +0.092 C 
ATOM      2  C   UNL     1      -3.315   4.167   1.307  0.00  0.00    +0.024 C 
ATOM      3  C   UNL     1      -4.311   3.257   1.278  0.00  0.00    +0.015 C 
ATOM      4  C   UNL     1      -5.056   2.879   2.533  0.00  0.00    +0.051 C 
ATOM      5  C   UNL     1      -5.104   4.078   3.482  0.00  0.00    +0.014 C 
ATOM      6  C   UNL     1      -3.666   4.508   3.795  0.00  0.00    +0.080 C 
ATOM      7  C   UNL     1      -2.952   4.807   2.505  0.00  0.00    +0.162 C 
ATOM      8  O   UNL     1      -2.045   5.616   2.499  0.00  0.00    -0.292 OA
ATOM      9  N   UNL     1      -4.661   2.659   0.098  0.00  0.00    -0.320 N 
ATOM     10  C   UNL     1      -4.356   3.245  -1.100  0.00  0.00    +0.015 C 
ATOM     11  C   UNL     1      -3.355   4.147  -1.178  0.00  0.00    +0.024 C 
ATOM     12  C   UNL     1      -3.022   4.757  -2.401  0.00  0.00    +0.162 C 
ATOM     13  O   UNL     1      -2.121   5.571  -2.436  0.00  0.00    -0.292 OA
ATOM     14  C   UNL     1      -3.763   4.419  -3.666  0.00  0.00    +0.080 C 
ATOM     15  C   UNL     1      -4.288   2.983  -3.568  0.00  0.00    +0.014 C 
ATOM     16  C   UNL     1      -5.162   2.868  -2.317  0.00  0.00    +0.051 C 
ATOM     17  H   UNL     1      -5.193   1.696   0.106  0.00  0.00    +0.152 HD
ENDROOT
BRANCH   1  23
ATOM     18  C   UNL     1      -0.059   4.498   0.026  0.00  0.00    +0.125 A 
ATOM     19  C   UNL     1       1.151   3.820   0.011  0.00  0.00    +0.047 A 
ATOM     20  C   UNL     1       1.168   2.439   0.004  0.00  0.00    +0.023 A 
ATOM     21  C   UNL     1      -0.021   1.732   0.012  0.00  0.00    +0.041 A 
ATOM     22  C   UNL     1      -1.229   2.406   0.021  0.00  0.00    +0.028 A 
ATOM     23  C   UNL     1      -1.250   3.788   0.033  0.00  0.00    +0.008 A 
ATOM     24 CL   UNL     1       0.002  -0.004   0.002  0.00  0.00    -0.084 Cl
BRANCH  18  25
ATOM     25  O   UNL     1      -0.077   5.857   0.032  0.00  0.00    -0.492 OA
BRANCH  25  27
ATOM     26  C   UNL     1       0.966   8.037   0.033  0.00  0.00    +0.048 C 
ATOM     27  C   UNL     1       1.187   6.523   0.024  0.00  0.00    +0.225 C 
ENDBRANCH  25  27
ENDBRANCH  18  25
ENDBRANCH   1  23
TORSDOF 3
