REMARK  Name = ZINC42667285
REMARK  11 active torsions:
REMARK  status: ('A' for Active; 'I' for Inactive)
REMARK    1  A    between atoms: C_1  and  C_2
REMARK    2  A    between atoms: C_6  and  C_28
REMARK    3  A    between atoms: C_7  and  N_8
REMARK    4  A    between atoms: C_9  and  C_11
REMARK    5  A    between atoms: C_11  and  C_13
REMARK    6  A    between atoms: C_11  and  N_14
REMARK    7  A    between atoms: N_14  and  C_15
REMARK    8  A    between atoms: C_18  and  N_21
REMARK    9  A    between atoms: N_24  and  C_25
REMARK   10  A    between atoms: C_28  and  C_29
REMARK   11  A    between atoms: C_28  and  C_30
REMARK                            x       y       z     vdW  Elec       q    Type
REMARK                         _______ _______ _______ _____ _____    ______ ____
ROOT
ATOM      1  N   UNL     1      -0.574   3.515   3.415  0.00  0.00    -0.333 N 
ATOM      2  H   UNL     1      -0.529   3.908   2.529  0.00  0.00    +0.147 HD
ENDROOT
BRANCH   1   3
ATOM      3  C   UNL     1      -0.984   4.292   4.504  0.00  0.00    +0.028 A 
ATOM      4  C   UNL     1      -1.044   3.732   5.774  0.00  0.00    +0.025 A 
ATOM      5  C   UNL     1      -1.448   4.499   6.848  0.00  0.00    +0.025 A 
ATOM      6  C   UNL     1      -1.794   5.830   6.660  0.00  0.00    +0.035 A 
ATOM      7  C   UNL     1      -1.734   6.391   5.391  0.00  0.00    +0.025 A 
ATOM      8  C   UNL     1      -1.325   5.626   4.317  0.00  0.00    +0.025 A 
BRANCH   6   9
ATOM      9  N   UNL     1      -2.205   6.609   7.751  0.00  0.00    -0.269 N 
ATOM     10  C   UNL     1      -1.678   6.389   8.972  0.00  0.00    +0.304 C 
ATOM     11  O   UNL     1      -0.778   5.583   9.110  0.00  0.00    -0.253 OA
ATOM     12  N   UNL     1      -2.148   7.063  10.041  0.00  0.00    -0.296 N 
ATOM     13  H   UNL     1      -2.868   7.306   7.628  0.00  0.00    +0.156 HD
ATOM     14  H   UNL     1      -2.866   7.706   9.931  0.00  0.00    +0.151 HD
BRANCH  12  15
ATOM     15  C   UNL     1      -1.575   6.824  11.368  0.00  0.00    +0.075 C 
ATOM     16  C   UNL     1      -2.546   6.691  12.543  0.00  0.00    +0.024 C 
ATOM     17  C   UNL     1      -1.687   7.949  12.398  0.00  0.00    +0.024 C 
ENDBRANCH  12  15
ENDBRANCH   6   9
ENDBRANCH   1   3
BRANCH   1  18
ATOM     18  C   UNL     1      -0.215   2.109   3.613  0.00  0.00    +0.154 C 
ATOM     19  C   UNL     1       1.250   2.013   4.044  0.00  0.00    +0.038 C 
BRANCH  18  21
ATOM     20  N   UNL     1      -0.139   0.036   2.266  0.00  0.00    -0.284 N 
ATOM     21  C   UNL     1      -0.409   1.355   2.322  0.00  0.00    +0.237 C 
ATOM     22  O   UNL     1      -0.808   1.935   1.335  0.00  0.00    -0.273 OA
ATOM     23  H   UNL     1       0.132  -0.439   3.067  0.00  0.00    +0.155 HD
BRANCH  20  30
ATOM     24  C   UNL     1      -2.724  -0.236   1.108  0.00  0.00    +0.045 C 
ATOM     25  C   UNL     1      -1.493  -0.805   0.451  0.00  0.00    -0.029 A 
ATOM     26  C   UNL     1      -1.598  -1.477  -0.751  0.00  0.00    +0.005 A 
ATOM     27  C   UNL     1      -0.469  -2.000  -1.354  0.00  0.00    +0.001 A 
ATOM     28  C   UNL     1       0.769  -1.851  -0.757  0.00  0.00    +0.006 A 
ATOM     29  C   UNL     1       0.882  -1.180   0.445  0.00  0.00    -0.023 A 
ATOM     30  C   UNL     1      -0.250  -0.650   1.051  0.00  0.00    +0.040 A 
BRANCH  29  31
ATOM     31  C   UNL     1       2.231  -1.018   1.095  0.00  0.00    +0.015 C 
ATOM     32  C   UNL     1       2.825  -2.398   1.386  0.00  0.00    +0.012 C 
ATOM     33  C   UNL     1       3.162  -0.250   0.155  0.00  0.00    +0.012 C 
ENDBRANCH  29  31
ENDBRANCH  20  30
ENDBRANCH  18  21
ENDBRANCH   1  18
TORSDOF 7
