REMARK  Name = ZINC62828477
REMARK  3 active torsions:
REMARK  status: ('A' for Active; 'I' for Inactive)
REMARK    1  A    between atoms: C_9  and  N_11
REMARK    2  A    between atoms: N_14  and  C_15
REMARK    3  A    between atoms: C_16  and  C_20
REMARK                            x       y       z     vdW  Elec       q    Type
REMARK                         _______ _______ _______ _____ _____    ______ ____
ROOT
ATOM      1  N   UNL     1       1.214  -2.090  -0.021  0.00  0.00    -0.267 N 
ATOM      2  C   UNL     1       0.058  -2.773   0.088  0.00  0.00    +0.309 C 
ATOM      3  O   UNL     1      -1.002  -2.178   0.101  0.00  0.00    -0.252 OA
ATOM      4  N   UNL     1       0.076  -4.118   0.182  0.00  0.00    -0.263 N 
ATOM      5  H   UNL     1       2.053  -2.567  -0.113  0.00  0.00    +0.156 HD
ATOM      6  H   UNL     1       0.921  -4.593   0.172  0.00  0.00    +0.157 HD
ENDROOT
BRANCH   1  15
ATOM      7  C   UNL     1       0.154   1.377   0.644  0.00  0.00    +0.003 A 
ATOM      8  C   UNL     1       1.155   2.097   0.059  0.00  0.00    +0.011 A 
ATOM      9  C   UNL     1       2.215   1.436  -0.575  0.00  0.00    +0.021 A 
ATOM     10  C   UNL     1       3.375   1.880  -1.257  0.00  0.00    +0.142 A 
ATOM     11  N   UNL     1       4.043   0.840  -1.664  0.00  0.00    -0.181 NA
ATOM     12  N   UNL     1       3.376  -0.330  -1.282  0.00  0.00    -0.275 N 
ATOM     13  H   UNL     1       3.668  -1.237  -1.464  0.00  0.00    +0.189 HD
ATOM     14  C   UNL     1       2.239   0.030  -0.604  0.00  0.00    +0.087 A 
ATOM     15  C   UNL     1       1.204  -0.690  -0.000  0.00  0.00    +0.060 A 
ATOM     16  C   UNL     1       0.171  -0.011   0.619  0.00  0.00    +0.025 A 
ENDBRANCH   1  15
BRANCH   4  17
ATOM     17  C   UNL     1      -1.112  -4.820   0.294  0.00  0.00    +0.087 A 
ATOM     18  C   UNL     1      -1.285  -6.196   0.406  0.00  0.00    +0.092 A 
ATOM     19  C   UNL     1      -2.648  -6.667   0.510  0.00  0.00    +0.024 A 
ATOM     20  C   UNL     1      -3.601  -5.718   0.486  0.00  0.00    +0.048 A 
ATOM     21  S   UNL     1      -2.673  -4.207   0.332  0.00  0.00    -0.081 S 
BRANCH  18  22
ATOM     22  C   UNL     1      -0.183  -7.088   0.418  0.00  0.00    +0.389 C 
ATOM     23  O   UNL     1      -0.373  -8.294   0.518  0.00  0.00    -0.241 OA
ATOM     24  O   UNL     1       0.958  -6.653   0.328  0.00  0.00    -0.241 OA
ENDBRANCH  18  22
ENDBRANCH   4  17
TORSDOF 3
