REMARK  Name = ZINC43757756
REMARK  7 active torsions:
REMARK  status: ('A' for Active; 'I' for Inactive)
REMARK    1  A    between atoms: C_1  and  C_2
REMARK    2  A    between atoms: C_2  and  C_4
REMARK    3  A    between atoms: C_2  and  C_9
REMARK    4  A    between atoms: C_4  and  C_5
REMARK    5  A    between atoms: C_5  and  C_6
REMARK    6  A    between atoms: C_15  and  C_32
REMARK    7  A    between atoms: C_30  and  C_31
REMARK                            x       y       z     vdW  Elec       q    Type
REMARK                         _______ _______ _______ _____ _____    ______ ____
ROOT
ATOM      1  C   UNL     1      -1.490  -0.413   0.080  0.00  0.00    -0.002 C 
ATOM      2  C   UNL     1      -2.258  -0.115  -1.224  0.00  0.00    +0.004 C 
ATOM      3  C   UNL     1      -2.790  -1.471  -1.738  0.00  0.00    +0.005 C 
ATOM      4  C   UNL     1      -2.867  -2.352  -0.456  0.00  0.00    +0.002 C 
ATOM      5  C   UNL     1      -1.586  -1.930   0.289  0.00  0.00    -0.026 C 
ATOM      6  C   UNL     1      -1.593  -2.317   1.750  0.00  0.00    +0.007 C 
ATOM      7  C   UNL     1      -2.849  -1.806   2.454  0.00  0.00    +0.005 C 
ATOM      8  C   UNL     1      -4.074  -2.404   1.753  0.00  0.00    +0.006 C 
ATOM      9  C   UNL     1      -4.118  -1.904   0.305  0.00  0.00    +0.019 C 
ATOM     10  C   UNL     1      -5.344  -2.417  -0.399  0.00  0.00    -0.023 C 
ATOM     11  C   UNL     1      -6.470  -2.678   0.261  0.00  0.00    +0.000 C 
ATOM     12  C   UNL     1      -6.561  -2.479   1.706  0.00  0.00    -0.038 C 
ATOM     13  C   UNL     1      -7.719  -2.755   2.352  0.00  0.00    +0.050 C 
ATOM     14  C   UNL     1      -7.847  -2.594   3.741  0.00  0.00    +0.156 C 
ATOM     15  O   UNL     1      -8.908  -2.839   4.279  0.00  0.00    -0.293 OA
ATOM     16  C   UNL     1      -6.681  -2.121   4.570  0.00  0.00    +0.080 C 
ATOM     17  C   UNL     1      -5.376  -2.538   3.884  0.00  0.00    +0.019 C 
ATOM     18  C   UNL     1      -5.340  -1.964   2.495  0.00  0.00    -0.003 C 
ATOM     19  C   UNL     1      -5.383  -0.437   2.573  0.00  0.00    +0.016 C 
ATOM     20  C   UNL     1      -0.383  -2.600  -0.378  0.00  0.00    +0.012 C 
ENDROOT
BRANCH   1  22
ATOM     21  C   UNL     1       0.044   1.490  -0.435  0.00  0.00    +0.008 C 
ATOM     22  C   UNL     1      -0.026   0.008  -0.062  0.00  0.00    -0.010 C 
BRANCH  22  23
ATOM     23  C   UNL     1       0.701  -0.218   1.265  0.00  0.00    +0.015 C 
BRANCH  23  24
ATOM     24  C   UNL     1       2.186   0.107   1.095  0.00  0.00    +0.125 C 
BRANCH  24  25
ATOM     25  C   UNL     1       2.902  -0.116   2.402  0.00  0.00    +0.356 C 
ATOM     26  O   UNL     1       2.282  -0.500   3.379  0.00  0.00    -0.246 OA
ATOM     27  O   UNL     1       4.101   0.087   2.483  0.00  0.00    -0.246 OA
ENDBRANCH  24  25
ENDBRANCH  23  24
ENDBRANCH  22  23
ENDBRANCH   1  22
TORSDOF 4
