REMARK  Name = ZINC40309852
REMARK  13 active torsions:
REMARK  status: ('A' for Active; 'I' for Inactive)
REMARK    1  A    between atoms: C_1  and  C_2
REMARK    2  A    between atoms: C_2  and  C_4
REMARK    3  A    between atoms: C_2  and  C_13
REMARK    4  A    between atoms: C_4  and  C_5
REMARK    5  A    between atoms: C_5  and  C_6
REMARK    6  A    between atoms: N_8  and  C_9
REMARK    7  A    between atoms: C_9  and  C_10
REMARK    8  A    between atoms: C_10  and  C_11
REMARK    9  A    between atoms: C_10  and  C_12
REMARK   10  A    between atoms: C_19  and  C_40
REMARK   11  A    between atoms: C_26  and  O_39
REMARK   12  A    between atoms: C_31  and  C_38
REMARK   13  A    between atoms: C_34  and  O_37
REMARK                            x       y       z     vdW  Elec       q    Type
REMARK                         _______ _______ _______ _____ _____    ______ ____
ROOT
ATOM      1  C   UNL     1       0.606  -0.499  -1.312  0.00  0.00    -0.002 C 
ATOM      2  C   UNL     1       0.460  -2.037  -1.419  0.00  0.00    +0.004 C 
ATOM      3  C   UNL     1      -0.331  -2.312  -2.727  0.00  0.00    +0.005 C 
ATOM      4  C   UNL     1      -0.055  -1.059  -3.565  0.00  0.00    +0.001 C 
ATOM      5  C   UNL     1      -0.169   0.066  -2.498  0.00  0.00    -0.026 C 
ATOM      6  C   UNL     1       0.372   1.339  -3.117  0.00  0.00    +0.007 C 
ATOM      7  C   UNL     1      -0.556   1.709  -4.287  0.00  0.00    +0.005 C 
ATOM      8  C   UNL     1      -0.642   0.578  -5.306  0.00  0.00    +0.001 C 
ATOM      9  C   UNL     1      -1.061  -0.759  -4.660  0.00  0.00    +0.025 C 
ATOM     10  C   UNL     1      -1.047  -1.869  -5.713  0.00  0.00    +0.118 C 
ATOM     11  C   UNL     1      -2.029  -1.521  -6.833  0.00  0.00    +0.035 C 
ATOM     12  C   UNL     1      -1.615  -0.199  -7.483  0.00  0.00    +0.000 C 
ATOM     13  C   UNL     1      -1.641   0.939  -6.406  0.00  0.00    -0.026 C 
ATOM     14  C   UNL     1      -1.224   2.259  -7.058  0.00  0.00    +0.010 C 
ATOM     15  C   UNL     1       0.179   2.112  -7.651  0.00  0.00    +0.032 C 
ATOM     16  C   UNL     1       0.174   1.003  -8.705  0.00  0.00    +0.115 C 
ATOM     17  C   UNL     1      -0.205  -0.335  -8.060  0.00  0.00    +0.035 C 
ATOM     18  C   UNL     1      -3.039   1.081  -5.802  0.00  0.00    +0.012 C 
ATOM     19  C   UNL     1      -1.636   0.262  -2.110  0.00  0.00    +0.012 C 
ENDROOT
BRANCH   1  21
ATOM     20  C   UNL     1       0.206   1.513   0.115  0.00  0.00    +0.008 C 
ATOM     21  C   UNL     1       0.003   0.001   0.002  0.00  0.00    -0.010 C 
BRANCH  21  22
ATOM     22  C   UNL     1       0.692  -0.695   1.177  0.00  0.00    +0.013 C 
BRANCH  22  23
ATOM     23  C   UNL     1       0.006  -0.290   2.483  0.00  0.00    +0.096 C 
BRANCH  23  24
ATOM     24  C   UNL     1       0.685  -0.976   3.641  0.00  0.00    +0.213 C 
ATOM     25  O   UNL     1       1.625  -1.716   3.441  0.00  0.00    -0.276 OA
ATOM     26  N   UNL     1       0.248  -0.767   4.899  0.00  0.00    -0.315 N 
ATOM     27  H   UNL     1      -0.504  -0.176   5.059  0.00  0.00    +0.149 HD
BRANCH  26  28
ATOM     28  C   UNL     1       0.908  -1.434   6.024  0.00  0.00    +0.107 C 
BRANCH  28  29
ATOM     29  C   UNL     1       0.222  -1.029   7.330  0.00  0.00    -0.000 C 
ATOM     30  C   UNL     1       0.829  -1.820   8.491  0.00  0.00    +0.009 C 
ATOM     31  C   UNL     1       0.426   0.468   7.571  0.00  0.00    +0.009 C 
ENDBRANCH  28  29
ENDBRANCH  26  28
ENDBRANCH  23  24
ENDBRANCH  22  23
ENDBRANCH  21  22
ENDBRANCH   1  21
BRANCH  16  32
ATOM     32  O   UNL     1       1.485   0.865  -9.257  0.00  0.00    -0.392 OA
ATOM     33  H   UNL     1       1.818   1.665  -9.686  0.00  0.00    +0.210 HD
ENDBRANCH  16  32
BRANCH  10  34
ATOM     34  O   UNL     1      -1.434  -3.104  -5.107  0.00  0.00    -0.391 OA
ATOM     35  H   UNL     1      -1.447  -3.854  -5.718  0.00  0.00    +0.210 HD
ENDBRANCH  10  34
TORSDOF 8
