REMARK  Name = ZINC63122688
REMARK  6 active torsions:
REMARK  status: ('A' for Active; 'I' for Inactive)
REMARK    1  A    between atoms: C_5  and  C_7
REMARK    2  A    between atoms: C_10  and  C_12
REMARK    3  A    between atoms: N_14  and  N_15
REMARK    4  A    between atoms: N_15  and  C_16
REMARK    5  A    between atoms: C_16  and  N_18
REMARK    6  A    between atoms: N_18  and  C_19
REMARK                            x       y       z     vdW  Elec       q    Type
REMARK                         _______ _______ _______ _____ _____    ______ ____
ROOT
ATOM      1  C   UNL     1       0.399  -6.137  -0.043  0.00  0.00    +0.268 C 
ATOM      2  O   UNL     1       1.197  -7.055  -0.052  0.00  0.00    -0.268 OA
ATOM      3  N   UNL     1      -0.924  -6.395  -0.038  0.00  0.00    -0.231 N 
ATOM      4  H   UNL     1      -1.561  -5.663  -0.030  0.00  0.00    +0.173 HD
ENDROOT
BRANCH   1   8
ATOM      5  C   UNL     1       1.249  -2.160  -0.023  0.00  0.00    +0.112 A 
ATOM      6  N   UNL     1       2.304  -2.959  -0.032  0.00  0.00    -0.246 NA
ATOM      7  C   UNL     1       2.175  -4.260  -0.039  0.00  0.00    +0.132 A 
ATOM      8  C   UNL     1       0.875  -4.751  -0.036  0.00  0.00    +0.095 A 
ATOM      9  S   UNL     1      -0.053  -3.226  -0.016  0.00  0.00    -0.062 S 
BRANCH   5  14
ATOM     10  C   UNL     1      -0.017   1.375   0.010  0.00  0.00    +0.001 A 
ATOM     11  C   UNL     1       1.170   2.087   0.002  0.00  0.00    +0.003 A 
ATOM     12  C   UNL     1       2.383   1.424  -0.013  0.00  0.00    +0.039 A 
ATOM     13  C   UNL     1       2.417   0.042  -0.021  0.00  0.00    +0.133 A 
ATOM     14  C   UNL     1       1.222  -0.683  -0.014  0.00  0.00    +0.042 A 
ATOM     15  C   UNL     1       0.002  -0.004   0.002  0.00  0.00    +0.013 A 
ATOM     16  F   UNL     1       3.603  -0.606  -0.037  0.00  0.00    -0.205 F 
ENDBRANCH   5  14
ENDBRANCH   1   8
BRANCH   3  17
ATOM     17  N   UNL     1      -1.380  -7.720  -0.044  0.00  0.00    -0.246 N 
ATOM     18  H   UNL     1      -0.743  -8.451  -0.052  0.00  0.00    +0.172 HD
BRANCH  17  19
ATOM     19  C   UNL     1      -2.703  -7.977  -0.040  0.00  0.00    +0.147 C 
ATOM     20  S   UNL     1      -3.260  -9.596  -0.047  0.00  0.00    -0.017 S 
BRANCH  19  21
ATOM     21  N   UNL     1      -3.587  -6.960  -0.029  0.00  0.00    -0.323 N 
ATOM     22  H   UNL     1      -3.272  -6.043  -0.025  0.00  0.00    +0.148 HD
BRANCH  21  23
ATOM     23  C   UNL     1      -5.025  -7.240  -0.024  0.00  0.00    +0.072 C 
ATOM     24  C   UNL     1      -5.509  -7.452  -1.460  0.00  0.00    +0.022 C 
ATOM     25  C   UNL     1      -7.011  -7.745  -1.455  0.00  0.00    +0.002 C 
ATOM     26  C   UNL     1      -7.758  -6.563  -0.834  0.00  0.00    +0.000 C 
ATOM     27  C   UNL     1      -7.275  -6.351   0.602  0.00  0.00    +0.002 C 
ATOM     28  C   UNL     1      -5.773  -6.059   0.597  0.00  0.00    +0.022 C 
ENDBRANCH  21  23
ENDBRANCH  19  21
ENDBRANCH  17  19
ENDBRANCH   3  17
TORSDOF 6
