REMARK  Name = ZINC47487827
REMARK  7 active torsions:
REMARK  status: ('A' for Active; 'I' for Inactive)
REMARK    1  A    between atoms: C_4  and  O_24
REMARK    2  A    between atoms: C_5  and  C_7
REMARK    3  A    between atoms: C_7  and  N_8
REMARK    4  A    between atoms: N_11  and  C_12
REMARK    5  A    between atoms: C_16  and  N_18
REMARK    6  A    between atoms: C_19  and  C_21
REMARK    7  A    between atoms: O_24  and  C_25
REMARK                            x       y       z     vdW  Elec       q    Type
REMARK                         _______ _______ _______ _____ _____    ______ ____
ROOT
ATOM      1  N   UNL     1       0.644  -3.119   2.098  0.00  0.00    -0.295 N 
ATOM      2  C   UNL     1       0.991  -4.400   2.334  0.00  0.00    +0.304 C 
ATOM      3  O   UNL     1       0.974  -5.211   1.429  0.00  0.00    -0.252 OA
ATOM      4  N   UNL     1       1.357  -4.781   3.574  0.00  0.00    -0.269 N 
ATOM      5  H   UNL     1       0.658  -2.472   2.820  0.00  0.00    +0.151 HD
ATOM      6  H   UNL     1       1.299  -4.154   4.311  0.00  0.00    +0.156 HD
ENDROOT
BRANCH   4   7
ATOM      7  C   UNL     1       1.821  -6.082   3.797  0.00  0.00    +0.037 A 
ATOM      8  C   UNL     1       1.553  -6.719   5.002  0.00  0.00    +0.023 A 
ATOM      9  C   UNL     1       2.011  -8.004   5.224  0.00  0.00    +0.004 A 
ATOM     10  C   UNL     1       2.738  -8.659   4.248  0.00  0.00    +0.023 A 
ATOM     11  C   UNL     1       3.010  -8.027   3.041  0.00  0.00    +0.035 A 
ATOM     12  C   UNL     1       2.546  -6.739   2.814  0.00  0.00    +0.046 A 
BRANCH  11  13
ATOM     13  N   UNL     1       3.747  -8.691   2.054  0.00  0.00    -0.285 N 
ATOM     14  C   UNL     1       3.651 -10.029   1.927  0.00  0.00    +0.220 C 
ATOM     15  O   UNL     1       2.856 -10.647   2.603  0.00  0.00    -0.275 OA
ATOM     16  H   UNL     1       4.327  -8.188   1.461  0.00  0.00    +0.155 HD
BRANCH  14  17
ATOM     17  C   UNL     1       4.532 -10.758   0.945  0.00  0.00    +0.075 C 
ATOM     18  C   UNL     1       3.860 -11.380  -0.280  0.00  0.00    +0.013 C 
ATOM     19  C   UNL     1       4.375 -12.277   0.847  0.00  0.00    +0.013 C 
ENDBRANCH  14  17
ENDBRANCH  11  13
ENDBRANCH   4   7
BRANCH   1  20
ATOM     20  C   UNL     1       0.246  -2.704   0.750  0.00  0.00    +0.144 C 
BRANCH  20  25
ATOM     21  C   UNL     1      -1.718   0.519   0.810  0.00  0.00    +0.001 A 
ATOM     22  C   UNL     1      -0.709   1.463   0.764  0.00  0.00    +0.004 A 
ATOM     23  C   UNL     1       0.612   1.061   0.713  0.00  0.00    +0.046 A 
ATOM     24  C   UNL     1       0.925  -0.291   0.709  0.00  0.00    +0.126 A 
ATOM     25  C   UNL     1      -0.090  -1.235   0.755  0.00  0.00    +0.011 A 
ATOM     26  C   UNL     1      -1.409  -0.828   0.806  0.00  0.00    +0.009 A 
BRANCH  24  27
ATOM     27  O   UNL     1       2.223  -0.689   0.658  0.00  0.00    -0.488 OA
BRANCH  27  28
ATOM     28  C   UNL     1       3.212   0.337   0.550  0.00  0.00    +0.173 C 
ATOM     29  C   UNL     1       3.403   0.734  -0.928  0.00  0.00    +0.044 C 
ATOM     30  C   UNL     1       4.923   1.004  -1.056  0.00  0.00    +0.004 C 
ATOM     31  C   UNL     1       5.542  -0.092  -0.153  0.00  0.00    +0.004 C 
ATOM     32  C   UNL     1       4.572  -0.189   1.043  0.00  0.00    +0.044 C 
ENDBRANCH  27  28
ENDBRANCH  24  27
ENDBRANCH  20  25
ENDBRANCH   1  20
TORSDOF 7
