REMARK  Name = ZINC20681541
REMARK  4 active torsions:
REMARK  status: ('A' for Active; 'I' for Inactive)
REMARK    1  A    between atoms: C_5  and  C_7
REMARK    2  A    between atoms: C_11  and  C_20
REMARK    3  A    between atoms: C_23  and  O_27
REMARK    4  A    between atoms: C_25  and  O_26
REMARK                            x       y       z     vdW  Elec       q    Type
REMARK                         _______ _______ _______ _____ _____    ______ ____
ROOT
ATOM      1  C   UNL     1       1.701  -4.029  -1.438  0.00  0.00    +0.001 A 
ATOM      2  C   UNL     1       1.201  -2.885  -0.838  0.00  0.00    +0.006 A 
ATOM      3  C   UNL     1       1.993  -1.770  -0.672  0.00  0.00    -0.019 A 
ATOM      4  C   UNL     1       3.318  -1.767  -1.119  0.00  0.00    +0.044 A 
ATOM      5  C   UNL     1       3.820  -2.938  -1.723  0.00  0.00    +0.058 A 
ATOM      6  C   UNL     1       3.006  -4.059  -1.877  0.00  0.00    +0.015 A 
ATOM      7  N   UNL     1       4.174  -0.684  -1.012  0.00  0.00    -0.336 N 
ATOM      8  C   UNL     1       3.661   0.503  -0.310  0.00  0.00    +0.108 C 
ATOM      9  C   UNL     1       2.207   0.659  -0.705  0.00  0.00    +0.029 C 
ATOM     10  C   UNL     1       1.484  -0.543  -0.021  0.00  0.00    +0.049 C 
ATOM     11  C   UNL     1       0.055  -0.146  -0.066  0.00  0.00    -0.023 C 
ATOM     12  C   UNL     1      -0.014   1.181  -0.056  0.00  0.00    -0.030 C 
ATOM     13  C   UNL     1       1.395   1.777  -0.040  0.00  0.00    +0.033 C 
ATOM     14  H   UNL     1       5.195  -0.682  -1.422  0.00  0.00    +0.147 HD
ENDROOT
BRANCH   8  15
ATOM     15  C   UNL     1       3.770   0.307   1.180  0.00  0.00    +0.015 A 
ATOM     16  C   UNL     1       3.798  -0.970   1.708  0.00  0.00    +0.012 A 
ATOM     17  C   UNL     1       3.899  -1.154   3.073  0.00  0.00    +0.046 A 
ATOM     18  C   UNL     1       3.973  -0.056   3.919  0.00  0.00    +0.120 A 
ATOM     19  C   UNL     1       3.945   1.226   3.392  0.00  0.00    +0.091 A 
ATOM     20  C   UNL     1       3.849   1.408   2.021  0.00  0.00    +0.125 A 
BRANCH  20  21
ATOM     21  O   UNL     1       3.828   2.663   1.501  0.00  0.00    -0.506 OA
ATOM     22  H   UNL     1       3.890   3.536   2.167  0.00  0.00    +0.292 HD
ENDBRANCH  20  21
BRANCH  18  23
ATOM     23  O   UNL     1       4.072  -0.237   5.262  0.00  0.00    -0.507 OA
ATOM     24  H   UNL     1       4.130   0.634   5.931  0.00  0.00    +0.292 HD
ENDBRANCH  18  23
ENDBRANCH   8  15
BRANCH   5  25
ATOM     25  C   UNL     1       5.216  -2.977  -2.196  0.00  0.00    +0.243 C 
ATOM     26  O   UNL     1       5.930  -2.002  -2.064  0.00  0.00    -0.270 OA
ATOM     27  N   UNL     1       5.701  -4.094  -2.774  0.00  0.00    -0.325 N 
ATOM     28  H   UNL     1       6.742  -4.123  -3.127  0.00  0.00    +0.145 HD
ATOM     29  H   UNL     1       5.055  -4.977  -2.893  0.00  0.00    +0.145 HD
ENDBRANCH   5  25
TORSDOF 4
