REMARK  Name = ZINC36289156
REMARK  8 active torsions:
REMARK  status: ('A' for Active; 'I' for Inactive)
REMARK    1  A    between atoms: C_1  and  N_2
REMARK    2  A    between atoms: C_9  and  C_21
REMARK    3  A    between atoms: C_11  and  C_17
REMARK    4  A    between atoms: C_11  and  C_19
REMARK    5  A    between atoms: C_12  and  N_16
REMARK    6  A    between atoms: C_13  and  C_14
REMARK    7  A    between atoms: C_21  and  C_22
REMARK    8  A    between atoms: C_22  and  C_23
REMARK                            x       y       z     vdW  Elec       q    Type
REMARK                         _______ _______ _______ _____ _____    ______ ____
ROOT
ATOM      1  C   UNL     1       0.280   1.465   0.040  0.00  0.00    +0.105 C 
ATOM      2  N   UNL     1       0.206  -0.002   0.022  0.00  0.00    -0.301 NA
ATOM      3  C   UNL     1       0.824  -0.546  -1.201  0.00  0.00    +0.111 C 
ATOM      4  C   UNL     1       0.552  -2.031  -1.226  0.00  0.00    -0.007 C 
ATOM      5  C   UNL     1       0.487  -2.708  -0.095  0.00  0.00    -0.027 C 
ATOM      6  C   UNL     1       0.727  -2.080   1.248  0.00  0.00    +0.040 C 
ATOM      7  C   UNL     1       0.845  -0.574   1.210  0.00  0.00    +0.093 C 
ATOM      8  C   UNL     1      -0.381  -2.547   2.195  0.00  0.00    +0.038 C 
ATOM      9  C   UNL     1      -0.282  -4.064   2.362  0.00  0.00    +0.184 C 
ATOM     10  C   UNL     1      -0.207  -4.767   1.041  0.00  0.00    +0.054 C 
ATOM     11  C   UNL     1       0.162  -4.156  -0.115  0.00  0.00    +0.074 C 
ENDROOT
BRANCH  10  12
ATOM     12  N   UNL     1      -0.525  -6.095   0.996  0.00  0.00    -0.358 N 
ATOM     13  H   UNL     1      -0.792  -6.557   1.806  0.00  0.00    +0.142 HD
ATOM     14  H   UNL     1      -0.485  -6.575   0.155  0.00  0.00    +0.142 HD
ENDBRANCH  10  12
BRANCH  11  15
ATOM     15  C   UNL     1       0.234  -4.899  -1.336  0.00  0.00    +0.101 C 
ATOM     16  N   UNL     1       0.292  -5.489  -2.306  0.00  0.00    -0.191 NA
ENDBRANCH  11  15
BRANCH   9  17
ATOM     17  C   UNL     1       0.924  -4.382   3.144  0.00  0.00    +0.091 C 
ATOM     18  N   UNL     1       1.854  -4.628   3.748  0.00  0.00    -0.195 NA
ENDBRANCH   9  17
BRANCH   9  19
ATOM     19  C   UNL     1      -1.466  -4.543   3.094  0.00  0.00    +0.091 C 
ATOM     20  N   UNL     1      -2.380  -4.914   3.658  0.00  0.00    -0.195 NA
ENDBRANCH   9  19
BRANCH   8  21
ATOM     21  C   UNL     1      -0.213  -1.867   3.555  0.00  0.00    +0.012 C 
BRANCH  21  22
ATOM     22  C   UNL     1      -1.409  -2.208   4.447  0.00  0.00    +0.035 C 
BRANCH  22  23
ATOM     23  C   UNL     1      -1.318  -1.424   5.730  0.00  0.00    -0.047 A 
ATOM     24  C   UNL     1      -0.645  -1.952   6.817  0.00  0.00    +0.003 A 
ATOM     25  C   UNL     1      -0.561  -1.232   7.994  0.00  0.00    +0.000 A 
ATOM     26  C   UNL     1      -1.150   0.015   8.085  0.00  0.00    +0.000 A 
ATOM     27  C   UNL     1      -1.822   0.543   6.999  0.00  0.00    +0.000 A 
ATOM     28  C   UNL     1      -1.902  -0.174   5.820  0.00  0.00    +0.003 A 
ENDBRANCH  22  23
ENDBRANCH  21  22
ENDBRANCH   8  21
TORSDOF 7
