REMARK  Name = ZINC04291901
REMARK  6 active torsions:
REMARK  status: ('A' for Active; 'I' for Inactive)
REMARK    1  A    between atoms: C_1  and  C_2
REMARK    2  A    between atoms: C_7  and  C_8
REMARK    3  A    between atoms: C_7  and  C_9
REMARK    4  A    between atoms: N_12  and  N_13
REMARK    5  A    between atoms: C_18  and  C_21
REMARK    6  A    between atoms: C_21  and  C_22
REMARK                            x       y       z     vdW  Elec       q    Type
REMARK                         _______ _______ _______ _____ _____    ______ ____
ROOT
ATOM      1  N   UNL     1       1.689  -0.860  -3.300  0.00  0.00    -0.127 NA
ATOM      2  C   UNL     1       1.978  -0.311  -4.460  0.00  0.00    +0.183 C 
ATOM      3  N   UNL     1       1.704   0.971  -4.887  0.00  0.00    -0.263 N 
ATOM      4  C   UNL     1       2.048   1.408  -6.086  0.00  0.00    +0.233 C 
ATOM      5  O   UNL     1       1.804   2.537  -6.455  0.00  0.00    -0.274 OA
ATOM      6  C   UNL     1       2.770   0.407  -6.974  0.00  0.00    +0.149 C 
ATOM      7  S   UNL     1       2.823  -1.050  -5.849  0.00  0.00    -0.075 S 
ATOM      8  H   UNL     1       1.241   1.575  -4.285  0.00  0.00    +0.157 HD
ENDROOT
BRANCH   1  19
ATOM      9  C   UNL     1      -0.019   1.526   0.010  0.00  0.00    +0.018 C 
ATOM     10  C   UNL     1       0.002  -0.004   0.002  0.00  0.00    +0.013 C 
ATOM     11  C   UNL     1      -1.390  -0.703   0.064  0.00  0.00    +0.013 C 
ATOM     12  C   UNL     1      -1.085  -2.137   0.556  0.00  0.00    +0.005 C 
ATOM     13  C   UNL     1       0.465  -2.165   0.735  0.00  0.00    +0.001 C 
ATOM     14  C   UNL     1       0.727  -0.692   1.212  0.00  0.00    -0.021 C 
ATOM     15  C   UNL     1       2.220  -0.359   1.253  0.00  0.00    +0.012 C 
ATOM     16  C   UNL     1       0.040  -0.388   2.544  0.00  0.00    +0.012 C 
ATOM     17  C   UNL     1       1.022  -2.111  -0.721  0.00  0.00    +0.057 C 
ATOM     18  C   UNL     1       0.731  -0.657  -1.181  0.00  0.00    +0.048 C 
ATOM     19  N   UNL     1       1.014  -0.117  -2.322  0.00  0.00    -0.156 NA
ENDBRANCH   1  19
BRANCH   6  20
ATOM     20  C   UNL     1       1.965   0.108  -8.240  0.00  0.00    +0.120 C 
BRANCH  20  21
ATOM     21  C   UNL     1       2.768  -0.790  -9.145  0.00  0.00    +0.222 C 
ATOM     22  O   UNL     1       3.875  -1.155  -8.811  0.00  0.00    -0.275 OA
ATOM     23  N   UNL     1       2.257  -1.188 -10.327  0.00  0.00    -0.240 N 
ATOM     24  C   UNL     1       2.975  -1.991 -11.136  0.00  0.00    +0.303 C 
ATOM     25  O   UNL     1       4.085  -2.356 -10.801  0.00  0.00    -0.253 OA
ATOM     26  N   UNL     1       2.463  -2.389 -12.318  0.00  0.00    -0.313 N 
ATOM     27  H   UNL     1       1.371  -0.896 -10.595  0.00  0.00    +0.159 HD
ATOM     28  H   UNL     1       1.578  -2.097 -12.586  0.00  0.00    +0.146 HD
ATOM     29  H   UNL     1       2.980  -2.966 -12.901  0.00  0.00    +0.146 HD
ENDBRANCH  20  21
ENDBRANCH   6  20
TORSDOF 3
