REMARK  Name = ZINC59292748
REMARK  8 active torsions:
REMARK  status: ('A' for Active; 'I' for Inactive)
REMARK    1  A    between atoms: C_3  and  S_21
REMARK    2  A    between atoms: C_6  and  C_7
REMARK    3  A    between atoms: C_7  and  C_8
REMARK    4  A    between atoms: C_8  and  N_9
REMARK    5  A    between atoms: N_9  and  C_10
REMARK    6  A    between atoms: C_10  and  N_12
REMARK    7  A    between atoms: N_12  and  C_13
REMARK    8  A    between atoms: S_21  and  N_24
REMARK                            x       y       z     vdW  Elec       q    Type
REMARK                         _______ _______ _______ _____ _____    ______ ____
ROOT
ATOM      1  C   UNL     1      -2.094  -0.592  -1.331  0.00  0.00    +0.108 C 
ENDROOT
BRANCH   1   2
ATOM      2  N   UNL     1      -3.183  -1.572  -1.367  0.00  0.00    -0.326 N 
ATOM      3  H   UNL     1      -3.495  -1.980  -0.544  0.00  0.00    +0.148 HD
BRANCH   2   4
ATOM      4  C   UNL     1      -3.750  -1.905  -2.543  0.00  0.00    +0.135 C 
ATOM      5  S   UNL     1      -3.199  -1.185  -3.994  0.00  0.00    -0.019 S 
BRANCH   4   6
ATOM      6  N   UNL     1      -4.752  -2.807  -2.576  0.00  0.00    -0.297 N 
ATOM      7  H   UNL     1      -5.011  -3.274  -1.766  0.00  0.00    +0.154 HD
BRANCH   6   8
ATOM      8  C   UNL     1      -5.419  -3.067  -3.777  0.00  0.00    +0.038 A 
ATOM      9  C   UNL     1      -5.748  -4.372  -4.121  0.00  0.00    +0.061 A 
ATOM     10  C   UNL     1      -6.408  -4.627  -5.310  0.00  0.00    +0.128 A 
ATOM     11  C   UNL     1      -6.739  -3.584  -6.157  0.00  0.00    +0.076 A 
ATOM     12  C   UNL     1      -6.411  -2.282  -5.817  0.00  0.00    +0.128 A 
ATOM     13  C   UNL     1      -5.757  -2.021  -4.626  0.00  0.00    +0.061 A 
ATOM     14  F   UNL     1      -6.734  -1.266  -6.646  0.00  0.00    -0.205 F 
ATOM     15  F   UNL     1      -6.729  -5.896  -5.644  0.00  0.00    -0.205 F 
ENDBRANCH   6   8
ENDBRANCH   4   6
ENDBRANCH   2   4
ENDBRANCH   1   2
BRANCH   1  16
ATOM     16  C   UNL     1      -1.632  -0.396   0.115  0.00  0.00    +0.054 C 
BRANCH  16  22
ATOM     17  C   UNL     1      -0.796   1.956   0.303  0.00  0.00    +0.005 A 
ATOM     18  C   UNL     1       0.231   2.880   0.338  0.00  0.00    +0.029 A 
ATOM     19  C   UNL     1       1.543   2.460   0.220  0.00  0.00    +0.105 A 
ATOM     20  C   UNL     1       1.827   1.116   0.069  0.00  0.00    +0.029 A 
ATOM     21  C   UNL     1       0.800   0.192   0.035  0.00  0.00    +0.005 A 
ATOM     22  C   UNL     1      -0.512   0.612   0.151  0.00  0.00    -0.046 A 
BRANCH  19  23
ATOM     23  S   UNL     1       2.852   3.639   0.263  0.00  0.00    +0.056 S 
ATOM     24  O   UNL     1       3.953   3.047  -0.414  0.00  0.00    -0.153 OA
ATOM     25  O   UNL     1       2.292   4.883  -0.135  0.00  0.00    -0.153 OA
BRANCH  23  26
ATOM     26  N   UNL     1       3.307   3.808   1.846  0.00  0.00    -0.204 NA
ATOM     27  H   UNL     1       2.857   3.297   2.537  0.00  0.00    +0.144 HD
ATOM     28  H   UNL     1       4.022   4.420   2.083  0.00  0.00    +0.144 HD
ENDBRANCH  23  26
ENDBRANCH  19  23
ENDBRANCH  16  22
ENDBRANCH   1  16
TORSDOF 8
