REMARK  Name = ZINC36593521
REMARK  13 active torsions:
REMARK  status: ('A' for Active; 'I' for Inactive)
REMARK    1  A    between atoms: C_1  and  C_2
REMARK    2  A    between atoms: C_2  and  C_3
REMARK    3  A    between atoms: C_2  and  C_4
REMARK    4  A    between atoms: C_2  and  N_5
REMARK    5  A    between atoms: N_5  and  C_6
REMARK    6  A    between atoms: C_6  and  C_8
REMARK    7  A    between atoms: C_6  and  C_17
REMARK    8  A    between atoms: C_9  and  O_16
REMARK    9  A    between atoms: C_11  and  O_15
REMARK   10  A    between atoms: C_13  and  O_14
REMARK   11  A    between atoms: N_19  and  C_20
REMARK   12  A    between atoms: C_26  and  C_28
REMARK   13  A    between atoms: C_31  and  N_34
REMARK                            x       y       z     vdW  Elec       q    Type
REMARK                         _______ _______ _______ _____ _____    ______ ____
ROOT
ATOM      1  C   UNL     1       2.602  -1.929   0.493  0.00  0.00    +0.200 C 
ENDROOT
BRANCH   1   2
ATOM      2  C   UNL     1       2.300  -0.909   1.559  0.00  0.00    +0.065 A 
ATOM      3  C   UNL     1       3.299  -0.058   2.008  0.00  0.00    +0.129 A 
ATOM      4  C   UNL     1       3.021   0.881   2.989  0.00  0.00    +0.091 A 
ATOM      5  C   UNL     1       1.744   0.970   3.522  0.00  0.00    +0.124 A 
ATOM      6  C   UNL     1       0.745   0.119   3.073  0.00  0.00    +0.091 A 
ATOM      7  C   UNL     1       1.022  -0.817   2.089  0.00  0.00    +0.129 A 
BRANCH   7   8
ATOM      8  O   UNL     1       0.041  -1.647   1.645  0.00  0.00    -0.506 OA
ATOM      9  H   UNL     1      -0.027  -2.475   2.140  0.00  0.00    +0.292 HD
ENDBRANCH   7   8
BRANCH   5  10
ATOM     10  O   UNL     1       1.471   1.889   4.485  0.00  0.00    -0.507 OA
ATOM     11  H   UNL     1       1.173   2.743   4.141  0.00  0.00    +0.292 HD
ENDBRANCH   5  10
BRANCH   3  12
ATOM     12  O   UNL     1       4.551  -0.145   1.486  0.00  0.00    -0.506 OA
ATOM     13  H   UNL     1       4.720   0.478   0.765  0.00  0.00    +0.292 HD
ENDBRANCH   3  12
ENDBRANCH   1   2
BRANCH   1  14
ATOM     14  C   UNL     1       3.736  -1.435  -0.369  0.00  0.00    +0.239 C 
ATOM     15  O   UNL     1       4.864  -1.838  -0.177  0.00  0.00    -0.273 OA
ATOM     16  N   UNL     1       3.496  -0.546  -1.353  0.00  0.00    -0.311 N 
ATOM     17  H   UNL     1       2.594  -0.224  -1.506  0.00  0.00    +0.149 HD
BRANCH  16  18
ATOM     18  C   UNL     1       4.598  -0.065  -2.190  0.00  0.00    +0.073 C 
ATOM     19  C   UNL     1       5.291   1.110  -1.496  0.00  0.00    +0.022 C 
ATOM     20  C   UNL     1       6.441   1.611  -2.371  0.00  0.00    +0.002 C 
ATOM     21  C   UNL     1       5.892   2.070  -3.723  0.00  0.00    +0.000 C 
ATOM     22  C   UNL     1       5.199   0.895  -4.417  0.00  0.00    +0.002 C 
ATOM     23  C   UNL     1       4.049   0.393  -3.542  0.00  0.00    +0.022 C 
ENDBRANCH  16  18
ENDBRANCH   1  14
BRANCH   1  24
ATOM     24  N   UNL     1       2.984  -3.196   1.123  0.00  0.00    -0.277 N 
ATOM     25  C   UNL     1       3.033  -3.292   2.466  0.00  0.00    +0.248 C 
ATOM     26  O   UNL     1       2.295  -2.613   3.151  0.00  0.00    -0.270 OA
BRANCH  25  27
ATOM     27  C   UNL     1       3.985  -4.225   3.106  0.00  0.00    +0.037 A 
ATOM     28  C   UNL     1       5.024  -4.787   2.361  0.00  0.00    +0.015 A 
ATOM     29  C   UNL     1       5.909  -5.656   2.964  0.00  0.00    +0.033 A 
ATOM     30  C   UNL     1       5.769  -5.972   4.304  0.00  0.00    +0.126 A 
ATOM     31  C   UNL     1       4.741  -5.419   5.048  0.00  0.00    +0.033 A 
ATOM     32  C   UNL     1       3.853  -4.544   4.458  0.00  0.00    +0.015 A 
BRANCH  30  33
ATOM     33  N   UNL     1       6.722  -6.906   4.944  0.00  0.00    +0.056 N 
ATOM     34  O   UNL     1       7.621  -7.391   4.297  0.00  0.00    -0.126 OA
ATOM     35  O   UNL     1       6.602  -7.184   6.115  0.00  0.00    -0.126 OA
ENDBRANCH  30  33
ENDBRANCH  25  27
BRANCH  24  37
ATOM     36  C   UNL     1       2.228  -4.547  -0.770  0.00  0.00    +0.031 C 
ATOM     37  C   UNL     1       3.312  -4.357   0.292  0.00  0.00    +0.030 C 
ATOM     38  C   UNL     1       3.389  -5.607   1.171  0.00  0.00    +0.031 C 
ATOM     39  C   UNL     1       4.662  -4.130  -0.392  0.00  0.00    +0.031 C 
ENDBRANCH  24  37
ENDBRANCH   1  24
TORSDOF 10
