REMARK  Name = ZINC42611375
REMARK  7 active torsions:
REMARK  status: ('A' for Active; 'I' for Inactive)
REMARK    1  A    between atoms: C_1  and  C_2
REMARK    2  A    between atoms: C_8  and  N_10
REMARK    3  A    between atoms: N_10  and  C_11
REMARK    4  A    between atoms: N_10  and  S_12
REMARK    5  A    between atoms: S_12  and  C_15
REMARK    6  A    between atoms: C_20  and  N_21
REMARK    7  A    between atoms: N_21  and  N_22
REMARK                            x       y       z     vdW  Elec       q    Type
REMARK                         _______ _______ _______ _____ _____    ______ ____
ROOT
ATOM      1  S   UNL     1       0.708   1.102   3.063  0.00  0.00    +0.064 S 
ATOM      2  O   UNL     1       0.114   1.153   4.353  0.00  0.00    -0.153 OA
ATOM      3  O   UNL     1       1.998   0.550   2.839  0.00  0.00    -0.153 OA
ENDROOT
BRANCH   1   4
ATOM      4  C   UNL     1       0.758   2.759   2.465  0.00  0.00    +0.147 A 
ATOM      5  C   UNL     1       0.280   3.799   3.241  0.00  0.00    +0.048 A 
ATOM      6  C   UNL     1       0.339   5.089   2.730  0.00  0.00    +0.038 A 
ATOM      7  C   UNL     1       0.871   5.294   1.472  0.00  0.00    +0.128 A 
ATOM      8  N   UNL     1       1.319   4.282   0.754  0.00  0.00    -0.236 NA
ATOM      9  C   UNL     1       1.285   3.039   1.209  0.00  0.00    +0.159 A 
ATOM     10 BR   UNL     1      -0.301   6.550   3.747  0.00  0.00    -0.049 Br
BRANCH   9  11
ATOM     11  N   UNL     1       1.775   2.003   0.421  0.00  0.00    -0.266 N 
ATOM     12  H   UNL     1       1.825   1.103   0.778  0.00  0.00    +0.167 HD
BRANCH  11  13
ATOM     13  N   UNL     1       2.188   2.254  -0.857  0.00  0.00    -0.255 NA
ATOM     14  H   UNL     1       2.897   2.971  -0.875  0.00  0.00    +0.140 HD
ATOM     15  H   UNL     1       2.516   1.410  -1.303  0.00  0.00    +0.140 HD
ENDBRANCH  11  13
ENDBRANCH   9  11
ENDBRANCH   1   4
BRANCH   1  16
ATOM     16  N   UNL     1      -0.340   0.263   2.092  0.00  0.00    -0.176 NA
ATOM     17  C   UNL     1      -1.784   0.354   2.323  0.00  0.00    +0.132 C 
BRANCH  16  24
ATOM     18  C   UNL     1      -1.714   0.165  -0.456  0.00  0.00    +0.009 C 
ATOM     19  C   UNL     1      -0.986  -1.047   0.131  0.00  0.00    +0.005 C 
ATOM     20  C   UNL     1      -1.960  -1.865   0.980  0.00  0.00    +0.005 C 
ATOM     21  C   UNL     1      -1.232  -3.076   1.567  0.00  0.00    +0.000 C 
ATOM     22  C   UNL     1      -0.070  -2.599   2.440  0.00  0.00    +0.002 C 
ATOM     23  C   UNL     1       0.904  -1.781   1.590  0.00  0.00    +0.021 C 
ATOM     24  C   UNL     1       0.177  -0.570   1.004  0.00  0.00    +0.082 C 
ENDBRANCH  16  24
ENDBRANCH   1  16
TORSDOF 5
