REMARK  Name = ZINC01052072
REMARK  3 active torsions:
REMARK  status: ('A' for Active; 'I' for Inactive)
REMARK    1  A    between atoms: C_1  and  C_2
REMARK    2  A    between atoms: C_1  and  N_5
REMARK    3  A    between atoms: N_5  and  C_6
REMARK                            x       y       z     vdW  Elec       q    Type
REMARK                         _______ _______ _______ _____ _____    ______ ____
ROOT
ATOM      1  C   UNL     1       1.584   3.339   0.005  0.00  0.00    +0.086 C 
ATOM      2  C   UNL     1       2.878   3.817   0.099  0.00  0.00    +0.112 C 
ATOM      3  C   UNL     1       4.038   2.908   0.081  0.00  0.00    +0.256 C 
ATOM      4  O   UNL     1       3.887   1.705  -0.019  0.00  0.00    -0.270 OA
ATOM      5  N   UNL     1       5.271   3.446   0.177  0.00  0.00    -0.263 N 
ATOM      6  C   UNL     1       5.451   4.770   0.287  0.00  0.00    +0.143 C 
ATOM      7  S   UNL     1       7.053   5.363   0.404  0.00  0.00    -0.018 S 
ATOM      8  N   UNL     1       4.444   5.654   0.311  0.00  0.00    -0.263 N 
ATOM      9  C   UNL     1       3.157   5.260   0.217  0.00  0.00    +0.256 C 
ATOM     10  O   UNL     1       2.252   6.072   0.235  0.00  0.00    -0.270 OA
ATOM     11  H   UNL     1       6.045   2.862   0.166  0.00  0.00    +0.157 HD
ATOM     12  H   UNL     1       4.645   6.599   0.393  0.00  0.00    +0.157 HD
ENDROOT
BRANCH   1  13
ATOM     13  N   UNL     1       1.351   2.012   0.059  0.00  0.00    -0.339 N 
ATOM     14  H   UNL     1       2.079   1.399   0.245  0.00  0.00    +0.146 HD
BRANCH  13  15
ATOM     15  C   UNL     1      -0.002   1.496  -0.164  0.00  0.00    +0.227 C 
BRANCH  15  16
ATOM     16  C   UNL     1       0.007  -0.006  -0.050  0.00  0.00    +0.373 C 
ATOM     17  O   UNL     1       1.048  -0.592   0.195  0.00  0.00    -0.245 OA
ATOM     18  O   UNL     1      -1.025  -0.636  -0.202  0.00  0.00    -0.245 OA
ENDBRANCH  15  16
ENDBRANCH  13  15
ENDBRANCH   1  13
TORSDOF 3
