REMARK  Name = ZINC20414240
REMARK  8 active torsions:
REMARK  status: ('A' for Active; 'I' for Inactive)
REMARK    1  A    between atoms: C_3  and  O_32
REMARK    2  A    between atoms: C_6  and  C_7
REMARK    3  A    between atoms: C_8  and  C_9
REMARK    4  A    between atoms: N_11  and  C_22
REMARK    5  A    between atoms: C_12  and  C_15
REMARK    6  A    between atoms: C_18  and  O_21
REMARK    7  A    between atoms: C_25  and  S_28
REMARK    8  A    between atoms: S_28  and  N_31
REMARK                            x       y       z     vdW  Elec       q    Type
REMARK                         _______ _______ _______ _____ _____    ______ ____
ROOT
ATOM      1  C   UNL     1       2.767   4.938   1.174  0.00  0.00    +0.062 C 
ATOM      2  N   UNL     1       3.083   4.889  -0.079  0.00  0.00    -0.184 NA
ATOM      3  N   UNL     1       2.208   4.131  -0.855  0.00  0.00    -0.216 N 
ATOM      4  C   UNL     1       1.147   3.593   0.011  0.00  0.00    +0.134 C 
ATOM      5  C   UNL     1       1.509   4.133   1.408  0.00  0.00    +0.086 C 
ENDROOT
BRANCH   4   6
ATOM      6  C   UNL     1       1.171   2.086   0.002  0.00  0.00    -0.025 A 
ATOM      7  C   UNL     1      -0.017   1.377   0.010  0.00  0.00    +0.009 A 
ATOM      8  C   UNL     1       0.002  -0.004   0.002  0.00  0.00    +0.046 A 
ATOM      9  C   UNL     1       1.213  -0.680  -0.013  0.00  0.00    +0.117 A 
ATOM     10  C   UNL     1       2.403   0.033  -0.021  0.00  0.00    +0.046 A 
ATOM     11  C   UNL     1       2.379   1.415  -0.013  0.00  0.00    +0.009 A 
BRANCH   9  12
ATOM     12  O   UNL     1       1.234  -2.039  -0.020  0.00  0.00    -0.507 OA
ATOM     13  H   UNL     1       2.196  -2.574  -0.032  0.00  0.00    +0.292 HD
ENDBRANCH   9  12
ENDBRANCH   4   6
BRANCH   3  14
ATOM     14  C   UNL     1       2.320   3.918  -2.229  0.00  0.00    +0.052 A 
ATOM     15  C   UNL     1       1.383   3.133  -2.891  0.00  0.00    +0.027 A 
ATOM     16  C   UNL     1       1.494   2.928  -4.252  0.00  0.00    +0.030 A 
ATOM     17  C   UNL     1       2.543   3.493  -4.954  0.00  0.00    +0.105 A 
ATOM     18  C   UNL     1       3.481   4.269  -4.298  0.00  0.00    +0.030 A 
ATOM     19  C   UNL     1       3.373   4.484  -2.938  0.00  0.00    +0.027 A 
BRANCH  17  20
ATOM     20  S   UNL     1       2.686   3.222  -6.689  0.00  0.00    +0.056 S 
ATOM     21  O   UNL     1       1.381   2.911  -7.160  0.00  0.00    -0.153 OA
ATOM     22  O   UNL     1       3.445   4.305  -7.208  0.00  0.00    -0.153 OA
BRANCH  20  23
ATOM     23  N   UNL     1       3.602   1.859  -6.899  0.00  0.00    -0.204 NA
ATOM     24  H   UNL     1       3.714   1.654  -7.974  0.00  0.00    +0.144 HD
ATOM     25  H   UNL     1       3.105   1.005  -6.414  0.00  0.00    +0.144 HD
ENDBRANCH  20  23
ENDBRANCH  17  20
ENDBRANCH   3  14
BRANCH   1  27
ATOM     26  C   UNL     1       4.601   6.327   1.845  0.00  0.00    +0.010 C 
ATOM     27  C   UNL     1       3.488   5.639   2.174  0.00  0.00    +0.025 C 
BRANCH  26  33
ATOM     28  C   UNL     1       4.906   7.038   4.209  0.00  0.00    +0.011 A 
ATOM     29  C   UNL     1       5.613   7.717   5.177  0.00  0.00    +0.046 A 
ATOM     30  C   UNL     1       6.759   8.425   4.836  0.00  0.00    +0.117 A 
ATOM     31  C   UNL     1       7.201   8.447   3.520  0.00  0.00    +0.046 A 
ATOM     32  C   UNL     1       6.504   7.768   2.545  0.00  0.00    +0.011 A 
ATOM     33  C   UNL     1       5.350   7.054   2.882  0.00  0.00    -0.025 A 
BRANCH  30  34
ATOM     34  O   UNL     1       7.450   9.096   5.794  0.00  0.00    -0.507 OA
ATOM     35  H   UNL     1       8.357   9.657   5.526  0.00  0.00    +0.292 HD
ENDBRANCH  30  34
ENDBRANCH  26  33
ENDBRANCH   1  27
TORSDOF 8
