REMARK  Name = ZINC24772562
REMARK  5 active torsions:
REMARK  status: ('A' for Active; 'I' for Inactive)
REMARK    1  A    between atoms: C_1  and  C_2
REMARK    2  A    between atoms: C_9  and  C_13
REMARK    3  A    between atoms: C_13  and  S_14
REMARK    4  A    between atoms: S_14  and  C_15
REMARK    5  A    between atoms: C_16  and  C_25
REMARK                            x       y       z     vdW  Elec       q    Type
REMARK                         _______ _______ _______ _____ _____    ______ ____
ROOT
ATOM      1  C   UNL     1       2.383  -4.189  -0.043  0.00  0.00    +0.131 C 
ENDROOT
BRANCH   1  10
ATOM      2  C   UNL     1      -1.289  -0.781   0.010  0.00  0.00    +0.047 C 
ATOM      3  C   UNL     1       0.002  -0.004   0.002  0.00  0.00    -0.008 A 
ATOM      4  C   UNL     1      -0.016   1.359   0.009  0.00  0.00    +0.008 A 
ATOM      5  C   UNL     1       1.194   2.067   0.002  0.00  0.00    +0.019 A 
ATOM      6  C   UNL     1       2.370   1.401  -0.013  0.00  0.00    +0.096 A 
ATOM      7  N   UNL     1       2.400   0.039  -0.021  0.00  0.00    -0.268 N 
ATOM      8  C   UNL     1       1.236  -0.679  -0.013  0.00  0.00    +0.143 A 
ATOM      9  N   UNL     1       1.256  -2.011  -0.021  0.00  0.00    -0.233 NA
ATOM     10  C   UNL     1       2.397  -2.682  -0.035  0.00  0.00    +0.059 A 
ATOM     11  C   UNL     1       3.600  -2.003  -0.043  0.00  0.00    +0.094 A 
ATOM     12  C   UNL     1       3.587  -0.603  -0.035  0.00  0.00    +0.259 A 
ATOM     13  O   UNL     1       4.633   0.026  -0.041  0.00  0.00    -0.267 OA
ENDBRANCH   1  10
BRANCH   1  14
ATOM     14  S   UNL     1       1.952  -4.797   1.606  0.00  0.00    -0.098 S 
BRANCH  14  15
ATOM     15  C   UNL     1       2.009  -6.535   1.316  0.00  0.00    +0.119 A 
ATOM     16  C   UNL     1       1.734  -7.428   2.368  0.00  0.00    +0.071 A 
ATOM     17  N   UNL     1       1.765  -8.723   2.169  0.00  0.00    -0.248 NA
ATOM     18  C   UNL     1       2.073  -9.204   0.958  0.00  0.00    +0.090 A 
ATOM     19  C   UNL     1       2.120 -10.588   0.721  0.00  0.00    +0.030 A 
ATOM     20  C   UNL     1       2.436 -11.051  -0.520  0.00  0.00    +0.002 A 
ATOM     21  C   UNL     1       2.714 -10.171  -1.564  0.00  0.00    +0.002 A 
ATOM     22  C   UNL     1       2.678  -8.823  -1.371  0.00  0.00    +0.030 A 
ATOM     23  C   UNL     1       2.356  -8.309  -0.103  0.00  0.00    +0.090 A 
ATOM     24  N   UNL     1       2.314  -6.989   0.114  0.00  0.00    -0.237 NA
ATOM     25  C   UNL     1       1.394  -6.890   3.734  0.00  0.00    +0.068 C 
ENDBRANCH  14  15
ENDBRANCH   1  14
TORSDOF 3
