REMARK  Name = ZINC08767370
REMARK  5 active torsions:
REMARK  status: ('A' for Active; 'I' for Inactive)
REMARK    1  A    between atoms: C_1  and  N_2
REMARK    2  A    between atoms: C_8  and  C_12
REMARK    3  A    between atoms: C_15  and  O_20
REMARK    4  A    between atoms: C_16  and  O_18
REMARK    5  A    between atoms: O_18  and  C_19
REMARK                            x       y       z     vdW  Elec       q    Type
REMARK                         _______ _______ _______ _____ _____    ______ ____
ROOT
ATOM      1  C   UNL     1      -0.018   1.461   0.010  0.00  0.00    +0.143 C 
ATOM      2  N   UNL     1       0.002  -0.004   0.002  0.00  0.00    -0.223 N 
ATOM      3  C   UNL     1      -1.165  -0.683   0.004  0.00  0.00    +0.260 C 
ATOM      4  O   UNL     1      -2.232  -0.097   0.012  0.00  0.00    -0.269 OA
ATOM      5  C   UNL     1      -1.105  -2.154  -0.004  0.00  0.00    +0.119 C 
ATOM      6  C   UNL     1      -2.253  -2.925  -0.003  0.00  0.00    +0.038 C 
ATOM      7  C   UNL     1      -2.311  -4.442  -0.005  0.00  0.00    +0.077 C 
ATOM      8  C   UNL     1      -3.785  -4.714  -0.390  0.00  0.00    +0.108 C 
ATOM      9  N   UNL     1      -4.447  -3.458   0.035  0.00  0.00    -0.235 NA
ATOM     10  N   UNL     1      -3.517  -2.462   0.005  0.00  0.00    -0.283 N 
ATOM     11  C   UNL     1       0.238  -2.768  -0.014  0.00  0.00    +0.278 C 
ATOM     12  N   UNL     1       1.310  -1.959  -0.015  0.00  0.00    -0.123 NA
ATOM     13  C   UNL     1       1.194  -0.655  -0.013  0.00  0.00    +0.335 C 
ATOM     14  O   UNL     1       2.321   0.084  -0.020  0.00  0.00    -0.250 OA
ATOM     15  O   UNL     1       0.370  -3.981  -0.021  0.00  0.00    -0.268 OA
ATOM     16  H   UNL     1      -4.842  -3.553   0.959  0.00  0.00    +0.145 HD
ATOM     17  H   UNL     1      -3.743  -1.519  -0.010  0.00  0.00    +0.166 HD
ENDROOT
BRANCH   8  18
ATOM     18  C   UNL     1      -4.331  -5.896   0.369  0.00  0.00    -0.025 A 
ATOM     19  C   UNL     1      -4.761  -5.738   1.673  0.00  0.00    +0.009 A 
ATOM     20  C   UNL     1      -5.262  -6.819   2.374  0.00  0.00    +0.049 A 
ATOM     21  C   UNL     1      -5.335  -8.064   1.769  0.00  0.00    +0.158 A 
ATOM     22  C   UNL     1      -4.903  -8.222   0.456  0.00  0.00    +0.162 A 
ATOM     23  C   UNL     1      -4.406  -7.133  -0.243  0.00  0.00    +0.054 A 
BRANCH  22  24
ATOM     24  O   UNL     1      -4.973  -9.441  -0.143  0.00  0.00    -0.491 OA
ATOM     25  C   UNL     1      -4.511  -9.529  -1.492  0.00  0.00    +0.277 C 
ENDBRANCH  22  24
BRANCH  21  26
ATOM     26  O   UNL     1      -5.828  -9.129   2.457  0.00  0.00    -0.503 OA
ATOM     27  H   UNL     1      -6.783  -9.248   2.366  0.00  0.00    +0.292 HD
ENDBRANCH  21  26
ENDBRANCH   8  18
TORSDOF 3
