REMARK  Name = ZINC08767370
REMARK  5 active torsions:
REMARK  status: ('A' for Active; 'I' for Inactive)
REMARK    1  A    between atoms: C_1  and  N_2
REMARK    2  A    between atoms: C_8  and  C_12
REMARK    3  A    between atoms: C_15  and  O_20
REMARK    4  A    between atoms: C_16  and  O_18
REMARK    5  A    between atoms: O_18  and  C_19
REMARK                            x       y       z     vdW  Elec       q    Type
REMARK                         _______ _______ _______ _____ _____    ______ ____
ROOT
ATOM      1  C   UNL     1      -0.018   1.461   0.010  0.00  0.00    +0.143 C 
ATOM      2  N   UNL     1       0.002  -0.004   0.002  0.00  0.00    -0.223 N 
ATOM      3  C   UNL     1      -1.165  -0.684   0.004  0.00  0.00    +0.260 C 
ATOM      4  O   UNL     1      -2.232  -0.100   0.012  0.00  0.00    -0.269 OA
ATOM      5  C   UNL     1      -1.102  -2.157  -0.005  0.00  0.00    +0.119 C 
ATOM      6  C   UNL     1      -2.253  -2.931  -0.004  0.00  0.00    +0.038 C 
ATOM      7  C   UNL     1      -2.308  -4.448  -0.006  0.00  0.00    +0.077 C 
ATOM      8  C   UNL     1      -3.783  -4.721  -0.390  0.00  0.00    +0.108 C 
ATOM      9  N   UNL     1      -4.445  -3.466   0.035  0.00  0.00    -0.235 NA
ATOM     10  N   UNL     1      -3.515  -2.470   0.005  0.00  0.00    -0.283 N 
ATOM     11  C   UNL     1       0.234  -2.768  -0.015  0.00  0.00    +0.278 C 
ATOM     12  O   UNL     1       0.379  -4.110  -0.024  0.00  0.00    -0.268 OA
ATOM     13  N   UNL     1       1.292  -1.973  -0.016  0.00  0.00    -0.123 NA
ATOM     14  C   UNL     1       1.179  -0.648  -0.013  0.00  0.00    +0.335 C 
ATOM     15  O   UNL     1       2.199   0.018  -0.018  0.00  0.00    -0.250 OA
ATOM     16  H   UNL     1      -4.839  -3.560   0.959  0.00  0.00    +0.145 HD
ATOM     17  H   UNL     1      -3.741  -1.527  -0.011  0.00  0.00    +0.166 HD
ENDROOT
BRANCH   8  18
ATOM     18  C   UNL     1      -4.327  -5.903   0.369  0.00  0.00    -0.025 A 
ATOM     19  C   UNL     1      -4.757  -5.746   1.674  0.00  0.00    +0.009 A 
ATOM     20  C   UNL     1      -5.257  -6.827   2.375  0.00  0.00    +0.049 A 
ATOM     21  C   UNL     1      -5.329  -8.072   1.770  0.00  0.00    +0.158 A 
ATOM     22  C   UNL     1      -4.898  -8.230   0.457  0.00  0.00    +0.162 A 
ATOM     23  C   UNL     1      -4.402  -7.141  -0.242  0.00  0.00    +0.054 A 
BRANCH  22  24
ATOM     24  O   UNL     1      -4.967  -9.449  -0.141  0.00  0.00    -0.491 OA
ATOM     25  C   UNL     1      -4.506  -9.537  -1.491  0.00  0.00    +0.277 C 
ENDBRANCH  22  24
BRANCH  21  26
ATOM     26  O   UNL     1      -5.821  -9.137   2.459  0.00  0.00    -0.503 OA
ATOM     27  H   UNL     1      -6.776  -9.257   2.369  0.00  0.00    +0.292 HD
ENDBRANCH  21  26
ENDBRANCH   8  18
TORSDOF 3
