REMARK  Name = ZINC09086876
REMARK  5 active torsions:
REMARK  status: ('A' for Active; 'I' for Inactive)
REMARK    1  A    between atoms: C_5  and  O_20
REMARK    2  A    between atoms: C_6  and  C_7
REMARK    3  A    between atoms: N_8  and  N_9
REMARK    4  A    between atoms: C_11  and  N_17
REMARK    5  A    between atoms: C_12  and  N_16
REMARK                            x       y       z     vdW  Elec       q    Type
REMARK                         _______ _______ _______ _____ _____    ______ ____
ROOT
ATOM      1  N   UNL     1      -2.442  -2.781   0.011  0.00  0.00    -0.219 N 
ATOM      2  C   UNL     1      -2.419  -4.167   0.004  0.00  0.00    +0.174 A 
ATOM      3  C   UNL     1      -3.606  -4.893   0.006  0.00  0.00    +0.206 A 
ATOM      4  C   UNL     1      -3.529  -6.282  -0.002  0.00  0.00    +0.152 A 
ATOM      5  N   UNL     1      -2.330  -6.863  -0.011  0.00  0.00    -0.219 NA
ATOM      6  C   UNL     1      -1.229  -6.140  -0.013  0.00  0.00    +0.225 A 
ATOM      7  N   UNL     1      -1.260  -4.823  -0.011  0.00  0.00    -0.217 NA
ATOM      8  H   UNL     1      -3.290  -2.310   0.022  0.00  0.00    +0.176 HD
ENDROOT
BRANCH   4   9
ATOM      9  N   UNL     1      -4.683  -7.051   0.000  0.00  0.00    -0.341 N 
ATOM     10  H   UNL     1      -5.552  -6.620   0.007  0.00  0.00    +0.144 HD
ATOM     11  H   UNL     1      -4.621  -8.019  -0.005  0.00  0.00    +0.144 HD
ENDBRANCH   4   9
BRANCH   3  12
ATOM     12  N   UNL     1      -4.917  -4.205   0.017  0.00  0.00    +0.063 N 
ATOM     13  O   UNL     1      -5.458  -3.918  -1.026  0.00  0.00    -0.126 OA
ATOM     14  O   UNL     1      -5.447  -3.930   1.068  0.00  0.00    -0.126 OA
ENDBRANCH   3  12
BRANCH   1  16
ATOM     15  C   UNL     1      -1.262  -0.762   0.011  0.00  0.00    +0.142 C 
ATOM     16  N   UNL     1      -1.240  -2.060   0.003  0.00  0.00    -0.189 NA
BRANCH  15  22
ATOM     17  C   UNL     1      -0.017   1.392   0.010  0.00  0.00    +0.028 A 
ATOM     18  C   UNL     1       1.170   2.096   0.002  0.00  0.00    +0.020 A 
ATOM     19  C   UNL     1       2.381   1.424  -0.013  0.00  0.00    +0.034 A 
ATOM     20  C   UNL     1       2.412   0.041  -0.021  0.00  0.00    +0.061 A 
ATOM     21  C   UNL     1       1.229  -0.681  -0.013  0.00  0.00    +0.139 A 
ATOM     22  C   UNL     1       0.002  -0.004   0.002  0.00  0.00    +0.038 A 
ATOM     23 BR   UNL     1       4.071  -0.866  -0.043  0.00  0.00    -0.046 Br
ATOM     24 BR   UNL     1       1.144   3.987   0.013  0.00  0.00    -0.050 Br
BRANCH  21  25
ATOM     25  O   UNL     1       1.259  -2.039  -0.021  0.00  0.00    -0.505 OA
ATOM     26  H   UNL     1       1.277  -2.437   0.860  0.00  0.00    +0.292 HD
ENDBRANCH  21  25
ENDBRANCH  15  22
ENDBRANCH   1  16
TORSDOF 5
