REMARK  Name = ZINC09157515
REMARK  5 active torsions:
REMARK  status: ('A' for Active; 'I' for Inactive)
REMARK    1  A    between atoms: C_1  and  C_2
REMARK    2  A    between atoms: C_2  and  C_4
REMARK    3  A    between atoms: C_2  and  S_11
REMARK    4  A    between atoms: S_11  and  C_12
REMARK    5  A    between atoms: N_25  and  C_26
REMARK                            x       y       z     vdW  Elec       q    Type
REMARK                         _______ _______ _______ _____ _____    ______ ____
ROOT
ATOM      1  C   UNL     1       0.165   4.388   0.025  0.00  0.00    +0.198 A 
ATOM      2  N   UNL     1       0.694   5.587   0.025  0.00  0.00    -0.120 NA
ATOM      3  N   UNL     1       2.087   5.447   0.010  0.00  0.00    -0.109 NA
ATOM      4  C   UNL     1       2.369   4.164   0.001  0.00  0.00    +0.240 A 
ATOM      5  N   UNL     1       1.186   3.476   0.009  0.00  0.00    -0.256 N 
ATOM      6  C   UNL     1       1.177   2.083   0.002  0.00  0.00    +0.064 A 
ATOM      7  C   UNL     1      -0.017   1.377   0.010  0.00  0.00    +0.027 A 
ATOM      8  C   UNL     1       0.002  -0.004   0.002  0.00  0.00    +0.002 A 
ATOM      9  C   UNL     1       1.205  -0.693  -0.013  0.00  0.00    +0.001 A 
ATOM     10  C   UNL     1       2.401  -0.007  -0.021  0.00  0.00    +0.015 A 
ATOM     11  C   UNL     1       2.395   1.387  -0.014  0.00  0.00    +0.064 A 
ATOM     12  C   UNL     1       3.652   2.158  -0.023  0.00  0.00    +0.263 A 
ATOM     13  O   UNL     1       4.727   1.589  -0.037  0.00  0.00    -0.267 OA
ATOM     14  N   UNL     1       3.589   3.505  -0.015  0.00  0.00    -0.280 N 
ATOM     15  C   UNL     1       4.829   4.285  -0.024  0.00  0.00    +0.155 C 
ENDROOT
BRANCH   1  16
ATOM     16  S   UNL     1      -1.557   4.015   0.040  0.00  0.00    -0.078 S 
BRANCH  16  18
ATOM     17  C   UNL     1      -2.050   6.377  -1.249  0.00  0.00    +0.024 C 
ATOM     18  C   UNL     1      -2.358   5.643   0.058  0.00  0.00    +0.081 C 
BRANCH  18  19
ATOM     19  C   UNL     1      -3.849   5.467   0.196  0.00  0.00    -0.034 A 
ATOM     20  C   UNL     1      -4.553   4.763  -0.763  0.00  0.00    +0.007 A 
ATOM     21  C   UNL     1      -5.919   4.598  -0.634  0.00  0.00    +0.038 A 
ATOM     22  C   UNL     1      -6.584   5.146   0.449  0.00  0.00    +0.123 A 
ATOM     23  C   UNL     1      -5.878   5.856   1.406  0.00  0.00    +0.038 A 
ATOM     24  C   UNL     1      -4.511   6.015   1.278  0.00  0.00    +0.007 A 
ATOM     25  F   UNL     1      -7.920   4.989   0.573  0.00  0.00    -0.205 F 
ENDBRANCH  18  19
ENDBRANCH  16  18
ENDBRANCH   1  16
TORSDOF 3
