REMARK  Name = ZINC40172861
REMARK  11 active torsions:
REMARK  status: ('A' for Active; 'I' for Inactive)
REMARK    1  A    between atoms: C_1  and  C_2
REMARK    2  A    between atoms: C_2  and  C_3
REMARK    3  A    between atoms: C_3  and  C_5
REMARK    4  A    between atoms: C_3  and  N_17
REMARK    5  A    between atoms: N_7  and  C_8
REMARK    6  A    between atoms: C_9  and  C_16
REMARK    7  A    between atoms: C_11  and  C_15
REMARK    8  A    between atoms: C_13  and  C_14
REMARK    9  A    between atoms: C_21  and  S_22
REMARK   10  A    between atoms: S_22  and  C_23
REMARK   11  A    between atoms: C_23  and  C_24
REMARK                            x       y       z     vdW  Elec       q    Type
REMARK                         _______ _______ _______ _____ _____    ______ ____
ROOT
ATOM      1  C   UNL     1       0.320  -0.381  -1.480  0.00  0.00    +0.178 C 
ENDROOT
BRANCH   1   2
ATOM      2  N   UNL     1       1.257   0.185  -0.506  0.00  0.00    -0.279 N 
ATOM      3  C   UNL     1       1.118   0.154   0.853  0.00  0.00    +0.216 A 
ATOM      4  N   UNL     1       2.154   0.760   1.380  0.00  0.00    -0.113 NA
ATOM      5  N   UNL     1       2.981   1.192   0.335  0.00  0.00    -0.121 NA
ATOM      6  C   UNL     1       2.425   0.832  -0.797  0.00  0.00    +0.194 A 
ATOM      7  N   UNL     1       0.064  -0.418   1.553  0.00  0.00    -0.328 N 
ATOM      8  H   UNL     1      -0.662  -0.846   1.073  0.00  0.00    +0.145 HD
ATOM      9  H   UNL     1       0.054  -0.390   2.523  0.00  0.00    +0.145 HD
BRANCH   6  10
ATOM     10  S   UNL     1       3.070   1.131  -2.409  0.00  0.00    -0.081 S 
BRANCH  10  11
ATOM     11  C   UNL     1       4.623   2.018  -2.103  0.00  0.00    +0.112 C 
BRANCH  11  12
ATOM     12  C   UNL     1       5.285   2.339  -3.418  0.00  0.00    -0.037 A 
ATOM     13  C   UNL     1       6.172   1.441  -3.983  0.00  0.00    +0.004 A 
ATOM     14  C   UNL     1       6.779   1.736  -5.189  0.00  0.00    +0.000 A 
ATOM     15  C   UNL     1       6.500   2.928  -5.831  0.00  0.00    +0.000 A 
ATOM     16  C   UNL     1       5.613   3.825  -5.266  0.00  0.00    +0.000 A 
ATOM     17  C   UNL     1       5.002   3.529  -4.062  0.00  0.00    +0.004 A 
ENDBRANCH  11  12
ENDBRANCH  10  11
ENDBRANCH   6  10
ENDBRANCH   1   2
BRANCH   1  18
ATOM     18  C   UNL     1       0.181  -1.862  -1.241  0.00  0.00    +0.240 C 
ATOM     19  O   UNL     1       0.804  -2.393  -0.346  0.00  0.00    -0.273 OA
ATOM     20  N   UNL     1      -0.634  -2.597  -2.023  0.00  0.00    -0.283 N 
ATOM     21  H   UNL     1      -1.187  -2.162  -2.691  0.00  0.00    +0.155 HD
BRANCH  20  22
ATOM     22  C   UNL     1      -0.683  -3.987  -1.871  0.00  0.00    +0.039 A 
ATOM     23  C   UNL     1      -1.900  -4.621  -1.657  0.00  0.00    -0.029 A 
ATOM     24  C   UNL     1      -1.945  -5.994  -1.508  0.00  0.00    +0.008 A 
ATOM     25  C   UNL     1      -0.780  -6.736  -1.570  0.00  0.00    -0.050 A 
ATOM     26  C   UNL     1       0.433  -6.108  -1.783  0.00  0.00    +0.008 A 
ATOM     27  C   UNL     1       0.484  -4.736  -1.939  0.00  0.00    -0.029 A 
ATOM     28  C   UNL     1       1.806  -4.053  -2.178  0.00  0.00    +0.045 C 
ATOM     29  C   UNL     1      -0.833  -8.233  -1.407  0.00  0.00    +0.044 C 
ATOM     30  C   UNL     1      -3.170  -3.813  -1.588  0.00  0.00    +0.045 C 
ENDBRANCH  20  22
ENDBRANCH   1  18
BRANCH   1  32
ATOM     31  C   UNL     1      -0.930   1.773  -1.687  0.00  0.00    +0.006 C 
ATOM     32  C   UNL     1      -1.046   0.291  -1.324  0.00  0.00    +0.031 C 
ENDBRANCH   1  32
TORSDOF 7
