REMARK  Name = ZINC66209251
REMARK  9 active torsions:
REMARK  status: ('A' for Active; 'I' for Inactive)
REMARK    1  A    between atoms: C_1  and  C_2
REMARK    2  A    between atoms: C_4  and  C_29
REMARK    3  A    between atoms: C_5  and  N_9
REMARK    4  A    between atoms: C_6  and  C_8
REMARK    5  A    between atoms: N_9  and  C_10
REMARK    6  A    between atoms: C_10  and  C_11
REMARK    7  A    between atoms: N_13  and  C_14
REMARK    8  A    between atoms: C_17  and  C_20
REMARK    9  A    between atoms: N_22  and  C_23
REMARK                            x       y       z     vdW  Elec       q    Type
REMARK                         _______ _______ _______ _____ _____    ______ ____
ROOT
ATOM      1  C   UNL     1      -2.048  -6.437   2.304  0.00  0.00    +0.234 C 
ATOM      2  O   UNL     1      -3.080  -6.661   1.708  0.00  0.00    -0.274 OA
ATOM      3  N   UNL     1      -1.521  -7.376   3.115  0.00  0.00    -0.284 N 
ATOM      4  H   UNL     1      -0.739  -7.170   3.651  0.00  0.00    +0.155 HD
ENDROOT
BRANCH   3   5
ATOM      5  C   UNL     1      -2.100  -8.642   3.185  0.00  0.00    +0.033 A 
ATOM      6  C   UNL     1      -2.683  -9.202   2.052  0.00  0.00    +0.024 A 
ATOM      7  C   UNL     1      -3.255 -10.452   2.117  0.00  0.00    +0.015 A 
ATOM      8  C   UNL     1      -3.250 -11.160   3.322  0.00  0.00    +0.037 A 
ATOM      9  C   UNL     1      -2.664 -10.595   4.458  0.00  0.00    +0.015 A 
ATOM     10  C   UNL     1      -2.089  -9.346   4.385  0.00  0.00    +0.024 A 
BRANCH   8  11
ATOM     11  C   UNL     1      -3.864 -12.500   3.396  0.00  0.00    +0.244 C 
ATOM     12  O   UNL     1      -4.374 -12.990   2.407  0.00  0.00    -0.270 OA
ATOM     13  N   UNL     1      -3.858 -13.181   4.559  0.00  0.00    -0.308 N 
ATOM     14  H   UNL     1      -3.451 -12.790   5.348  0.00  0.00    +0.149 HD
BRANCH  13  15
ATOM     15  C   UNL     1      -4.467 -14.511   4.632  0.00  0.00    +0.073 C 
ATOM     16  C   UNL     1      -5.969 -14.371   4.890  0.00  0.00    +0.022 C 
ATOM     17  C   UNL     1      -6.605 -15.761   4.966  0.00  0.00    +0.002 C 
ATOM     18  C   UNL     1      -5.963 -16.554   6.107  0.00  0.00    +0.000 C 
ATOM     19  C   UNL     1      -4.461 -16.694   5.849  0.00  0.00    +0.002 C 
ATOM     20  C   UNL     1      -3.825 -15.304   5.772  0.00  0.00    +0.022 C 
ENDBRANCH  13  15
ENDBRANCH   8  11
ENDBRANCH   3   5
BRANCH   1  21
ATOM     21  C   UNL     1      -1.355  -5.109   2.138  0.00  0.00    +0.198 C 
BRANCH  21  22
ATOM     22  N   UNL     1      -2.121  -4.271   1.213  0.00  0.00    -0.335 N 
ATOM     23  H   UNL     1      -3.002  -4.553   0.919  0.00  0.00    +0.147 HD
BRANCH  22  28
ATOM     24  C   UNL     1       0.063   0.618  -0.654  0.00  0.00    +0.044 C 
ATOM     25  C   UNL     1      -0.517  -0.681  -0.158  0.00  0.00    -0.050 A 
ATOM     26  C   UNL     1      -0.113  -1.197   1.060  0.00  0.00    +0.008 A 
ATOM     27  C   UNL     1      -0.643  -2.388   1.518  0.00  0.00    -0.029 A 
ATOM     28  C   UNL     1      -1.583  -3.067   0.753  0.00  0.00    +0.033 A 
ATOM     29  C   UNL     1      -1.987  -2.546  -0.470  0.00  0.00    -0.029 A 
ATOM     30  C   UNL     1      -1.457  -1.352  -0.919  0.00  0.00    +0.008 A 
ATOM     31  C   UNL     1      -3.006  -3.279  -1.303  0.00  0.00    +0.045 C 
ATOM     32  C   UNL     1      -0.202  -2.949   2.844  0.00  0.00    +0.045 C 
ENDBRANCH  22  28
ENDBRANCH  21  22
ENDBRANCH   1  21
TORSDOF 6
