REMARK  Name = ZINC20806735
REMARK  7 active torsions:
REMARK  status: ('A' for Active; 'I' for Inactive)
REMARK    1  A    between atoms: C_9  and  O_29
REMARK    2  A    between atoms: C_10  and  C_11
REMARK    3  A    between atoms: N_12  and  N_13
REMARK    4  A    between atoms: C_17  and  S_20
REMARK    5  A    between atoms: N_18  and  N_19
REMARK    6  A    between atoms: S_20  and  C_21
REMARK    7  A    between atoms: C_21  and  C_22
REMARK                            x       y       z     vdW  Elec       q    Type
REMARK                         _______ _______ _______ _____ _____    ______ ____
ROOT
ATOM      1  N   UNL     1      -1.436   7.183   2.415  0.00  0.00    -0.204 N 
ATOM      2  C   UNL     1      -1.074   5.997   1.795  0.00  0.00    +0.254 A 
ATOM      3  N   UNL     1      -0.431   5.887   0.658  0.00  0.00    -0.109 NA
ATOM      4  N   UNL     1      -0.263   4.523   0.386  0.00  0.00    -0.119 NA
ATOM      5  C   UNL     1      -0.809   3.844   1.366  0.00  0.00    +0.210 A 
ATOM      6  N   UNL     1      -1.329   4.736   2.260  0.00  0.00    -0.211 N 
ATOM      7  H   UNL     1      -1.976   7.160   3.373  0.00  0.00    +0.177 HD
ENDROOT
BRANCH   6   8
ATOM      8  N   UNL     1      -1.986   4.424   3.416  0.00  0.00    -0.294 N 
ATOM      9  H   UNL     1      -2.137   3.371   3.696  0.00  0.00    +0.163 HD
ATOM     10  H   UNL     1      -2.364   5.226   4.067  0.00  0.00    +0.163 HD
ENDBRANCH   6   8
BRANCH   1  12
ATOM     11  C   UNL     1      -1.454   9.523   2.403  0.00  0.00    +0.142 C 
ATOM     12  N   UNL     1      -1.115   8.411   1.821  0.00  0.00    -0.187 NA
BRANCH  11  22
ATOM     13  C   UNL     1      -2.188  14.491   3.573  0.00  0.00    +0.001 A 
ATOM     14  C   UNL     1      -2.525  13.291   4.194  0.00  0.00    +0.001 A 
ATOM     15  C   UNL     1      -2.189  12.094   3.633  0.00  0.00    +0.009 A 
ATOM     16  C   UNL     1      -1.496  12.070   2.417  0.00  0.00    -0.006 A 
ATOM     17  C   UNL     1      -1.147  13.289   1.785  0.00  0.00    -0.017 A 
ATOM     18  C   UNL     1      -1.506  14.504   2.394  0.00  0.00    +0.008 A 
ATOM     19  C   UNL     1      -0.457  13.263   0.562  0.00  0.00    +0.012 A 
ATOM     20  C   UNL     1      -0.116  12.081  -0.019  0.00  0.00    +0.046 A 
ATOM     21  C   UNL     1      -0.432  10.857   0.566  0.00  0.00    +0.126 A 
ATOM     22  C   UNL     1      -1.117  10.811   1.780  0.00  0.00    +0.044 A 
BRANCH  21  23
ATOM     23  O   UNL     1      -0.072   9.702  -0.051  0.00  0.00    -0.506 OA
ATOM     24  H   UNL     1      -0.320   8.733   0.408  0.00  0.00    +0.292 HD
ENDBRANCH  21  23
ENDBRANCH  11  22
ENDBRANCH   1  12
BRANCH   5  25
ATOM     25  S   UNL     1      -0.867   2.088   1.503  0.00  0.00    -0.080 S 
BRANCH  25  26
ATOM     26  C   UNL     1      -0.018   1.503   0.010  0.00  0.00    +0.112 C 
BRANCH  26  27
ATOM     27  C   UNL     1       0.002  -0.004   0.002  0.00  0.00    -0.037 A 
ATOM     28  C   UNL     1       1.057  -0.684   0.582  0.00  0.00    +0.007 A 
ATOM     29  C   UNL     1       1.074  -2.066   0.579  0.00  0.00    +0.038 A 
ATOM     30  C   UNL     1       0.040  -2.769  -0.014  0.00  0.00    +0.123 A 
ATOM     31  C   UNL     1      -1.013  -2.087  -0.599  0.00  0.00    +0.038 A 
ATOM     32  C   UNL     1      -1.031  -0.706  -0.591  0.00  0.00    +0.007 A 
ATOM     33  F   UNL     1       0.058  -4.120  -0.021  0.00  0.00    -0.205 F 
ENDBRANCH  26  27
ENDBRANCH  25  26
ENDBRANCH   5  25
TORSDOF 7
