REMARK  Name = ZINC05959365
REMARK  5 active torsions:
REMARK  status: ('A' for Active; 'I' for Inactive)
REMARK    1  A    between atoms: C_1  and  C_2
REMARK    2  A    between atoms: C_2  and  C_4
REMARK    3  A    between atoms: C_2  and  N_14
REMARK    4  A    between atoms: C_7  and  S_10
REMARK    5  A    between atoms: S_10  and  N_13
REMARK                            x       y       z     vdW  Elec       q    Type
REMARK                         _______ _______ _______ _____ _____    ______ ____
ROOT
ATOM      1  N   UNL     1       1.108  -2.077  -0.020  0.00  0.00    -0.322 N 
ATOM      2  C   UNL     1       1.131  -0.694  -0.012  0.00  0.00    +0.131 A 
ATOM      3  C   UNL     1       2.346   0.008  -0.247  0.00  0.00    +0.051 A 
ATOM      4  C   UNL     1       3.680  -0.533  -0.514  0.00  0.00    -0.025 A 
ATOM      5  C   UNL     1       4.675   0.358  -0.704  0.00  0.00    -0.004 A 
ATOM      6  S   UNL     1       3.908   1.948  -0.540  0.00  0.00    -0.073 S 
ATOM      7  C   UNL     1       2.249   1.413  -0.216  0.00  0.00    +0.114 A 
ATOM      8  N   UNL     1       1.101   2.020   0.017  0.00  0.00    -0.228 NA
ATOM      9  C   UNL     1       0.006   1.315   0.228  0.00  0.00    +0.224 A 
ATOM     10  N   UNL     1       0.024  -0.006   0.213  0.00  0.00    -0.220 NA
ATOM     11  C   UNL     1       6.116   0.063  -0.990  0.00  0.00    +0.043 C 
ATOM     12  C   UNL     1       6.380  -1.415  -0.670  0.00  0.00    +0.005 C 
ATOM     13  C   UNL     1       5.278  -2.261  -1.312  0.00  0.00    +0.005 C 
ATOM     14  C   UNL     1       3.955  -2.033  -0.580  0.00  0.00    +0.037 C 
ATOM     15  H   UNL     1       1.935  -2.575  -0.103  0.00  0.00    +0.148 HD
ENDROOT
BRANCH   1  17
ATOM     16  C   UNL     1      -0.534  -2.937   1.576  0.00  0.00    +0.033 C 
ATOM     17  C   UNL     1      -0.168  -2.788   0.098  0.00  0.00    +0.099 C 
BRANCH  17  18
ATOM     18  C   UNL     1      -0.041  -4.154  -0.527  0.00  0.00    -0.027 A 
ATOM     19  C   UNL     1       1.118  -4.888  -0.355  0.00  0.00    +0.007 A 
ATOM     20  C   UNL     1       1.232  -6.142  -0.924  0.00  0.00    +0.029 A 
ATOM     21  C   UNL     1       0.192  -6.658  -1.675  0.00  0.00    +0.105 A 
ATOM     22  C   UNL     1      -0.964  -5.921  -1.852  0.00  0.00    +0.029 A 
ATOM     23  C   UNL     1      -1.081  -4.669  -1.278  0.00  0.00    +0.007 A 
BRANCH  21  24
ATOM     24  S   UNL     1       0.341  -8.254  -2.407  0.00  0.00    +0.056 S 
ATOM     25  O   UNL     1       1.303  -8.964  -1.640  0.00  0.00    -0.153 OA
ATOM     26  O   UNL     1      -0.981  -8.734  -2.606  0.00  0.00    -0.153 OA
BRANCH  24  27
ATOM     27  N   UNL     1       0.998  -8.042  -3.913  0.00  0.00    -0.204 NA
ATOM     28  H   UNL     1       1.551  -8.738  -4.302  0.00  0.00    +0.144 HD
ATOM     29  H   UNL     1       0.831  -7.223  -4.404  0.00  0.00    +0.144 HD
ENDBRANCH  24  27
ENDBRANCH  21  24
ENDBRANCH  17  18
ENDBRANCH   1  17
TORSDOF 4
