REMARK  Name = ZINC36584771
REMARK  12 active torsions:
REMARK  status: ('A' for Active; 'I' for Inactive)
REMARK    1  A    between atoms: C_1  and  C_2
REMARK    2  A    between atoms: C_2  and  C_3
REMARK    3  A    between atoms: C_2  and  C_4
REMARK    4  A    between atoms: C_2  and  N_5
REMARK    5  A    between atoms: N_5  and  C_6
REMARK    6  A    between atoms: C_6  and  C_8
REMARK    7  A    between atoms: C_6  and  C_17
REMARK    8  A    between atoms: C_9  and  O_16
REMARK    9  A    between atoms: C_11  and  O_15
REMARK   10  A    between atoms: C_13  and  O_14
REMARK   11  A    between atoms: N_19  and  C_20
REMARK   12  A    between atoms: C_26  and  C_28
REMARK                            x       y       z     vdW  Elec       q    Type
REMARK                         _______ _______ _______ _____ _____    ______ ____
ROOT
ATOM      1  C   UNL     1       1.071  -2.295  -1.152  0.00  0.00    +0.200 C 
ENDROOT
BRANCH   1   2
ATOM      2  C   UNL     1       0.751  -3.282  -0.058  0.00  0.00    +0.065 A 
ATOM      3  C   UNL     1      -0.166  -2.950   0.928  0.00  0.00    +0.129 A 
ATOM      4  C   UNL     1      -0.460  -3.858   1.934  0.00  0.00    +0.091 A 
ATOM      5  C   UNL     1       0.163  -5.097   1.955  0.00  0.00    +0.124 A 
ATOM      6  C   UNL     1       1.079  -5.428   0.969  0.00  0.00    +0.091 A 
ATOM      7  C   UNL     1       1.371  -4.522  -0.040  0.00  0.00    +0.129 A 
BRANCH   7   8
ATOM      8  O   UNL     1       2.265  -4.849  -1.009  0.00  0.00    -0.506 OA
ATOM      9  H   UNL     1       3.178  -4.610  -0.798  0.00  0.00    +0.292 HD
ENDBRANCH   7   8
BRANCH   5  10
ATOM     10  O   UNL     1      -0.125  -5.986   2.942  0.00  0.00    -0.507 OA
ATOM     11  H   UNL     1      -0.860  -6.579   2.735  0.00  0.00    +0.292 HD
ENDBRANCH   5  10
BRANCH   3  12
ATOM     12  O   UNL     1      -0.777  -1.737   0.908  0.00  0.00    -0.506 OA
ATOM     13  H   UNL     1      -1.539  -1.689   0.315  0.00  0.00    +0.292 HD
ENDBRANCH   3  12
ENDBRANCH   1   2
BRANCH   1  14
ATOM     14  C   UNL     1       1.012  -0.895  -0.598  0.00  0.00    +0.239 C 
ATOM     15  O   UNL     1       0.071  -0.177  -0.864  0.00  0.00    -0.273 OA
ATOM     16  N   UNL     1       2.004  -0.440   0.192  0.00  0.00    -0.311 N 
ATOM     17  H   UNL     1       2.756  -1.014   0.405  0.00  0.00    +0.149 HD
BRANCH  16  18
ATOM     18  C   UNL     1       1.946   0.921   0.730  0.00  0.00    +0.073 C 
ATOM     19  C   UNL     1       2.516   1.901  -0.298  0.00  0.00    +0.022 C 
ATOM     20  C   UNL     1       2.455   3.322   0.264  0.00  0.00    +0.002 C 
ATOM     21  C   UNL     1       3.280   3.398   1.550  0.00  0.00    +0.000 C 
ATOM     22  C   UNL     1       2.711   2.418   2.579  0.00  0.00    +0.002 C 
ATOM     23  C   UNL     1       2.771   0.997   2.017  0.00  0.00    +0.022 C 
ENDBRANCH  16  18
ENDBRANCH   1  14
BRANCH   1  24
ATOM     24  N   UNL     1       0.095  -2.434  -2.235  0.00  0.00    -0.274 N 
ATOM     25  C   UNL     1      -1.091  -3.031  -2.001  0.00  0.00    +0.283 C 
ATOM     26  O   UNL     1      -1.421  -3.304  -0.862  0.00  0.00    -0.267 OA
BRANCH  25  27
ATOM     27  C   UNL     1      -1.984  -3.351  -3.119  0.00  0.00    +0.189 A 
ATOM     28  C   UNL     1      -3.131  -4.088  -3.045  0.00  0.00    +0.054 A 
ATOM     29  C   UNL     1      -3.662  -4.141  -4.343  0.00  0.00    +0.042 A 
ATOM     30  C   UNL     1      -2.827  -3.442  -5.143  0.00  0.00    +0.196 A 
ATOM     31  O   UNL     1      -1.820  -2.963  -4.401  0.00  0.00    -0.458 OA
ENDBRANCH  25  27
BRANCH  24  33
ATOM     32  C   UNL     1       1.659  -1.047  -3.504  0.00  0.00    +0.031 C 
ATOM     33  C   UNL     1       0.407  -1.924  -3.572  0.00  0.00    +0.030 C 
ATOM     34  C   UNL     1      -0.770  -1.094  -4.089  0.00  0.00    +0.031 C 
ATOM     35  C   UNL     1       0.658  -3.099  -4.520  0.00  0.00    +0.031 C 
ENDBRANCH  24  33
ENDBRANCH   1  24
TORSDOF 9
