REMARK  Name = ZINC01816886
REMARK  14 active torsions:
REMARK  status: ('A' for Active; 'I' for Inactive)
REMARK    1  A    between atoms: C_1  and  C_2
REMARK    2  A    between atoms: C_2  and  O_3
REMARK    3  A    between atoms: O_3  and  C_4
REMARK    4  A    between atoms: C_7  and  C_12
REMARK    5  A    between atoms: C_9  and  O_10
REMARK    6  A    between atoms: O_10  and  C_11
REMARK    7  A    between atoms: N_13  and  N_14
REMARK    8  A    between atoms: C_15  and  C_17
REMARK    9  A    between atoms: C_17  and  S_18
REMARK   10  A    between atoms: S_18  and  C_19
REMARK   11  A    between atoms: C_22  and  C_31
REMARK   12  A    between atoms: N_23  and  C_24
REMARK   13  A    between atoms: C_27  and  C_30
REMARK   14  A    between atoms: C_34  and  C_37
REMARK                            x       y       z     vdW  Elec       q    Type
REMARK                         _______ _______ _______ _____ _____    ______ ____
ROOT
ATOM      1  S   UNL     1      -1.448   2.336   0.022  0.00  0.00    -0.076 S 
ENDROOT
BRANCH   1   2
ATOM      2  C   UNL     1      -0.016   1.310   0.009  0.00  0.00    +0.197 A 
ATOM      3  N   UNL     1       0.002  -0.004   0.002  0.00  0.00    -0.122 NA
ATOM      4  N   UNL     1       1.214  -0.430  -0.012  0.00  0.00    -0.128 NA
ATOM      5  C   UNL     1       2.047   0.585  -0.014  0.00  0.00    +0.169 A 
ATOM      6  N   UNL     1       1.286   1.733  -0.001  0.00  0.00    -0.270 N 
BRANCH   6   7
ATOM      7  C   UNL     1       1.747   3.056   0.001  0.00  0.00    +0.051 A 
ATOM      8  C   UNL     1       2.450   3.550  -1.090  0.00  0.00    +0.026 A 
ATOM      9  C   UNL     1       2.898   4.856  -1.087  0.00  0.00    +0.005 A 
ATOM     10  C   UNL     1       2.658   5.669   0.006  0.00  0.00    -0.050 A 
ATOM     11  C   UNL     1       1.963   5.178   1.096  0.00  0.00    +0.005 A 
ATOM     12  C   UNL     1       1.507   3.875   1.097  0.00  0.00    +0.026 A 
ATOM     13  C   UNL     1       3.154   7.092   0.008  0.00  0.00    +0.044 C 
ENDBRANCH   6   7
BRANCH   5  14
ATOM     14  C   UNL     1       3.523   0.510  -0.028  0.00  0.00    +0.020 A 
ATOM     15  C   UNL     1       4.286   1.639   0.278  0.00  0.00    +0.012 A 
ATOM     16  C   UNL     1       5.663   1.561   0.267  0.00  0.00    +0.004 A 
ATOM     17  C   UNL     1       6.289   0.370  -0.056  0.00  0.00    -0.050 A 
ATOM     18  C   UNL     1       5.540  -0.751  -0.365  0.00  0.00    +0.004 A 
ATOM     19  C   UNL     1       4.162  -0.688  -0.353  0.00  0.00    +0.012 A 
ATOM     20  C   UNL     1       7.794   0.293  -0.070  0.00  0.00    +0.044 C 
ENDBRANCH   5  14
ENDBRANCH   1   2
BRANCH   1  21
ATOM     21  C   UNL     1      -2.742   1.071   0.022  0.00  0.00    +0.174 C 
BRANCH  21  23
ATOM     22  N   UNL     1      -5.214   0.984   0.035  0.00  0.00    -0.206 N 
ATOM     23  C   UNL     1      -4.094   1.735   0.033  0.00  0.00    +0.242 C 
ATOM     24  O   UNL     1      -4.176   2.945   0.039  0.00  0.00    -0.273 OA
ATOM     25  H   UNL     1      -5.149   0.016   0.029  0.00  0.00    +0.177 HD
BRANCH  22  27
ATOM     26  C   UNL     1      -7.549   0.878   0.046  0.00  0.00    +0.138 C 
ATOM     27  N   UNL     1      -6.471   1.601   0.044  0.00  0.00    -0.188 NA
BRANCH  26  31
ATOM     28  C   UNL     1     -11.360   2.756   0.075  0.00  0.00    +0.162 A 
ATOM     29  C   UNL     1     -10.207   3.527   0.073  0.00  0.00    +0.050 A 
ATOM     30  C   UNL     1      -8.968   2.922   0.070  0.00  0.00    +0.013 A 
ATOM     31  C   UNL     1      -8.873   1.528   0.057  0.00  0.00    -0.002 A 
ATOM     32  C   UNL     1     -10.034   0.751   0.059  0.00  0.00    +0.059 A 
ATOM     33  C   UNL     1     -11.272   1.366   0.068  0.00  0.00    +0.162 A 
BRANCH  33  34
ATOM     34  O   UNL     1     -12.405   0.613   0.070  0.00  0.00    -0.491 OA
ATOM     35  C   UNL     1     -12.240  -0.807   0.062  0.00  0.00    +0.277 C 
ENDBRANCH  33  34
BRANCH  28  36
ATOM     36  O   UNL     1     -12.579   3.358   0.084  0.00  0.00    -0.489 OA
BRANCH  36  38
ATOM     37  C   UNL     1     -14.045   5.279   0.100  0.00  0.00    +0.048 C 
ATOM     38  C   UNL     1     -12.596   4.787   0.091  0.00  0.00    +0.226 C 
ENDBRANCH  36  38
ENDBRANCH  28  36
ENDBRANCH  26  31
ENDBRANCH  22  27
ENDBRANCH  21  23
ENDBRANCH   1  21
TORSDOF 10
