REMARK  Name = ZINC32754410
REMARK  14 active torsions:
REMARK  status: ('A' for Active; 'I' for Inactive)
REMARK    1  A    between atoms: C_1  and  C_2
REMARK    2  A    between atoms: C_5  and  C_8
REMARK    3  A    between atoms: N_13  and  C_14
REMARK    4  A    between atoms: C_14  and  C_15
REMARK    5  A    between atoms: N_17  and  C_18
REMARK    6  A    between atoms: N_17  and  C_22
REMARK    7  A    between atoms: C_18  and  C_19
REMARK    8  A    between atoms: C_19  and  O_20
REMARK    9  A    between atoms: O_20  and  C_21
REMARK   10  A    between atoms: C_23  and  N_35
REMARK   11  A    between atoms: N_24  and  C_31
REMARK   12  A    between atoms: C_31  and  C_32
REMARK   13  A    between atoms: C_32  and  C_33
REMARK   14  A    between atoms: C_32  and  C_34
REMARK                            x       y       z     vdW  Elec       q    Type
REMARK                         _______ _______ _______ _____ _____    ______ ____
ROOT
ATOM      1  C   UNL     1      -1.107  -0.775  -0.391  0.00  0.00    +0.204 C 
ATOM      2  O   UNL     1      -2.185  -0.254  -0.584  0.00  0.00    -0.277 OA
ATOM      3  N   UNL     1       0.004  -0.014  -0.304  0.00  0.00    -0.264 N 
ENDROOT
BRANCH   3   4
ATOM      4  C   UNL     1      -0.100   1.392  -0.339  0.00  0.00    +0.140 A 
ATOM      5  C   UNL     1       0.407   2.107  -1.405  0.00  0.00    +0.127 A 
ATOM      6  N   UNL     1       0.285   3.477  -1.413  0.00  0.00    -0.280 N 
ATOM      7  C   UNL     1      -0.311   4.114  -0.389  0.00  0.00    +0.331 A 
ATOM      8  O   UNL     1      -0.404   5.326  -0.412  0.00  0.00    -0.246 OA
ATOM      9  N   UNL     1      -0.805   3.434   0.661  0.00  0.00    -0.273 N 
ATOM     10  H   UNL     1      -1.288   3.975   1.488  0.00  0.00    +0.173 HD
ATOM     11  C   UNL     1      -0.717   2.091   0.716  0.00  0.00    +0.277 A 
ATOM     12  O   UNL     1      -1.169   1.484   1.672  0.00  0.00    -0.266 OA
BRANCH   5  13
ATOM     13  N   UNL     1       1.022   1.457  -2.448  0.00  0.00    -0.343 N 
ATOM     14  H   UNL     1       1.423   2.034  -3.295  0.00  0.00    +0.144 HD
ATOM     15  H   UNL     1       1.111   0.361  -2.437  0.00  0.00    +0.144 HD
ENDBRANCH   5  13
BRANCH   6  16
ATOM     16  C   UNL     1       0.813   4.248  -2.541  0.00  0.00    +0.131 C 
BRANCH  16  17
ATOM     17  C   UNL     1       2.269   4.627  -2.263  0.00  0.00    +0.003 C 
ATOM     18  C   UNL     1       3.124   3.360  -2.204  0.00  0.00    +0.009 C 
ATOM     19  C   UNL     1       2.782   5.537  -3.382  0.00  0.00    +0.009 C 
ENDBRANCH  16  17
ENDBRANCH   6  16
ENDBRANCH   3   4
BRANCH   1  20
ATOM     20  C   UNL     1      -1.008  -2.272  -0.249  0.00  0.00    +0.020 C 
BRANCH  20  25
ATOM     21  C   UNL     1      -2.296  -4.338  -0.197  0.00  0.00    -0.037 C 
ATOM     22  C   UNL     1      -3.706  -4.731   0.310  0.00  0.00    -0.013 C 
ATOM     23  C   UNL     1      -4.029  -3.615   1.331  0.00  0.00    -0.020 C 
ATOM     24  C   UNL     1      -3.122  -2.435   0.937  0.00  0.00    -0.077 C 
ATOM     25  N   UNL     1      -2.356  -2.855  -0.256  0.00  0.00    +0.390 N 
ATOM     26  H   UNL     1      -2.830  -2.502  -1.184  0.00  0.00    -0.080 HD
BRANCH  21  31
ATOM     27  C   UNL     1      -1.326  -6.552  -5.446  0.00  0.00    +0.044 C 
ATOM     28  C   UNL     1      -1.579  -5.975  -4.077  0.00  0.00    -0.050 A 
ATOM     29  C   UNL     1      -0.954  -6.520  -2.971  0.00  0.00    +0.003 A 
ATOM     30  C   UNL     1      -1.186  -5.990  -1.715  0.00  0.00    +0.002 A 
ATOM     31  C   UNL     1      -2.043  -4.915  -1.566  0.00  0.00    -0.061 A 
ATOM     32  C   UNL     1      -2.672  -4.374  -2.671  0.00  0.00    +0.002 A 
ATOM     33  C   UNL     1      -2.436  -4.901  -3.927  0.00  0.00    +0.003 A 
ENDBRANCH  21  31
ENDBRANCH  20  25
ENDBRANCH   1  20
BRANCH   3  34
ATOM     34  C   UNL     1       1.318  -0.649  -0.173  0.00  0.00    +0.142 C 
BRANCH  34  35
ATOM     35  C   UNL     1       1.704  -0.722   1.306  0.00  0.00    +0.178 C 
BRANCH  35  36
ATOM     36  O   UNL     1       0.797  -1.586   1.993  0.00  0.00    -0.381 OA
ATOM     37  C   UNL     1       1.070  -1.725   3.389  0.00  0.00    +0.194 C 
ENDBRANCH  35  36
ENDBRANCH  34  35
ENDBRANCH   3  34
TORSDOF 10
