REMARK  Name = ZINC36742796
REMARK  8 active torsions:
REMARK  status: ('A' for Active; 'I' for Inactive)
REMARK    1  A    between atoms: C_1  and  N_2
REMARK    2  A    between atoms: N_2  and  C_3
REMARK    3  A    between atoms: N_2  and  S_4
REMARK    4  A    between atoms: S_4  and  N_7
REMARK    5  A    between atoms: N_7  and  C_8
REMARK    6  A    between atoms: C_8  and  C_9
REMARK    7  A    between atoms: C_11  and  N_16
REMARK    8  A    between atoms: C_14  and  O_15
REMARK                            x       y       z     vdW  Elec       q    Type
REMARK                         _______ _______ _______ _____ _____    ______ ____
ROOT
ATOM      1  C   UNL     1      -1.797  -2.289  -3.679  0.00  0.00    +0.011 A 
ATOM      2  C   UNL     1      -1.509  -1.671  -4.880  0.00  0.00    +0.031 A 
ATOM      3  C   UNL     1      -2.223  -2.007  -6.022  0.00  0.00    +0.025 A 
ATOM      4  C   UNL     1      -3.227  -2.964  -5.957  0.00  0.00    +0.026 A 
ATOM      5  C   UNL     1      -3.514  -3.581  -4.755  0.00  0.00    +0.047 A 
ATOM      6  C   UNL     1      -2.797  -3.249  -3.615  0.00  0.00    +0.121 A 
ENDROOT
BRANCH   3   7
ATOM      7  N   UNL     1      -1.931  -1.381  -7.239  0.00  0.00    -0.358 N 
ATOM      8  H   UNL     1      -1.230  -0.712  -7.285  0.00  0.00    +0.142 HD
ATOM      9  H   UNL     1      -2.430  -1.616  -8.037  0.00  0.00    +0.142 HD
ENDBRANCH   3   7
BRANCH   6  10
ATOM     10  O   UNL     1      -3.077  -3.861  -2.433  0.00  0.00    -0.506 OA
ATOM     11  H   UNL     1      -3.750  -3.409  -1.906  0.00  0.00    +0.292 HD
ENDBRANCH   6  10
BRANCH   1  12
ATOM     12  C   UNL     1      -1.022  -1.925  -2.439  0.00  0.00    +0.145 C 
BRANCH  12  13
ATOM     13  N   UNL     1      -1.856  -1.094  -1.568  0.00  0.00    -0.175 NA
ATOM     14  H   UNL     1      -2.664  -0.684  -1.917  0.00  0.00    +0.149 HD
BRANCH  13  15
ATOM     15  S   UNL     1      -1.421  -0.852   0.011  0.00  0.00    +0.097 S 
ATOM     16  O   UNL     1      -1.127  -2.132   0.552  0.00  0.00    -0.141 OA
ATOM     17  O   UNL     1      -2.401   0.008   0.576  0.00  0.00    -0.141 OA
BRANCH  15  19
ATOM     18  C   UNL     1      -0.018   1.461   0.010  0.00  0.00    +0.132 C 
ATOM     19  N   UNL     1       0.002  -0.004   0.002  0.00  0.00    -0.173 NA
ATOM     20  C   UNL     1       1.281  -0.719  -0.014  0.00  0.00    +0.132 C 
ENDBRANCH  15  19
ENDBRANCH  13  15
ENDBRANCH  12  13
ENDBRANCH   1  12
TORSDOF 6
