REMARK  Name = ZINC13138683
REMARK  6 active torsions:
REMARK  status: ('A' for Active; 'I' for Inactive)
REMARK    1  A    between atoms: C_1  and  C_2
REMARK    2  A    between atoms: C_5  and  C_25
REMARK    3  A    between atoms: C_10  and  C_12
REMARK    4  A    between atoms: C_12  and  S_13
REMARK    5  A    between atoms: S_13  and  C_14
REMARK    6  A    between atoms: C_17  and  C_19
REMARK                            x       y       z     vdW  Elec       q    Type
REMARK                         _______ _______ _______ _____ _____    ______ ____
ROOT
ATOM      1  S   UNL     1       4.380  -3.372   1.607  0.00  0.00    -0.056 S 
ENDROOT
BRANCH   1   2
ATOM      2  C   UNL     1       5.888  -2.465   1.683  0.00  0.00    +0.278 A 
ATOM      3  N   UNL     1       6.011  -1.159   1.651  0.00  0.00    -0.101 NA
ATOM      4  N   UNL     1       7.256  -0.843   1.728  0.00  0.00    -0.106 NA
ATOM      5  C   UNL     1       7.979  -1.935   1.812  0.00  0.00    +0.256 A 
ATOM      6  O   UNL     1       7.127  -2.985   1.790  0.00  0.00    -0.410 OA
BRANCH   5   7
ATOM      7  C   UNL     1       9.444  -2.005   1.915  0.00  0.00    +0.077 A 
ATOM      8  C   UNL     1      10.364  -0.974   1.952  0.00  0.00    +0.022 A 
ATOM      9  C   UNL     1      11.700  -1.292   2.053  0.00  0.00    +0.028 A 
ATOM     10  C   UNL     1      12.069  -2.599   2.112  0.00  0.00    +0.079 A 
ATOM     11  S   UNL     1      10.497  -3.442   2.032  0.00  0.00    -0.072 S 
ATOM     12 CL   UNL     1      13.662  -3.276   2.240  0.00  0.00    -0.076 Cl
ENDBRANCH   5   7
ENDBRANCH   1   2
BRANCH   1  13
ATOM     13  C   UNL     1       3.103  -2.090   1.470  0.00  0.00    +0.174 C 
BRANCH  13  21
ATOM     14  C   UNL     1      -0.019   1.526   0.010  0.00  0.00    +0.009 C 
ATOM     15  C   UNL     1       0.002  -0.004   0.002  0.00  0.00    +0.004 C 
ATOM     16  C   UNL     1      -1.433  -0.534   0.015  0.00  0.00    +0.009 C 
ATOM     17  C   UNL     1      -1.414  -2.064  -0.027  0.00  0.00    +0.004 C 
ATOM     18  C   UNL     1      -0.692  -2.596   1.215  0.00  0.00    +0.111 C 
ATOM     19  N   UNL     1       0.639  -1.977   1.288  0.00  0.00    -0.300 N 
ATOM     20  C   UNL     1       0.742  -0.512   1.244  0.00  0.00    +0.111 C 
ATOM     21  C   UNL     1       1.746  -2.740   1.395  0.00  0.00    +0.226 C 
ATOM     22  O   UNL     1       1.648  -3.948   1.431  0.00  0.00    -0.275 OA
ATOM     23  C   UNL     1      -2.850  -2.592  -0.049  0.00  0.00    +0.009 C 
ENDBRANCH  13  21
ENDBRANCH   1  13
TORSDOF 4
