REMARK  Name = ZINC05600591
REMARK  5 active torsions:
REMARK  status: ('A' for Active; 'I' for Inactive)
REMARK    1  A    between atoms: C_1  and  O_2
REMARK    2  A    between atoms: O_2  and  C_3
REMARK    3  A    between atoms: C_6  and  C_9
REMARK    4  A    between atoms: C_11  and  C_23
REMARK    5  A    between atoms: C_12  and  C_17
REMARK                            x       y       z     vdW  Elec       q    Type
REMARK                         _______ _______ _______ _____ _____    ______ ____
ROOT
ATOM      1  C   UNL     1       2.448   0.141  -0.203  0.00  0.00    +0.139 C 
ATOM      2  C   UNL     1       1.160  -0.651  -0.294  0.00  0.00    +0.024 C 
ATOM      3  C   UNL     1      -0.004   0.010  -0.076  0.00  0.00    +0.049 C 
ATOM      4  N   UNL     1      -0.006   1.363   0.219  0.00  0.00    -0.269 N 
ATOM      5  C   UNL     1       1.110   2.098   0.309  0.00  0.00    +0.305 C 
ATOM      6  O   UNL     1       1.013   3.281   0.572  0.00  0.00    -0.252 OA
ATOM      7  N   UNL     1       2.335   1.573   0.117  0.00  0.00    -0.288 N 
ATOM      8  H   UNL     1      -0.859   1.801   0.364  0.00  0.00    +0.156 HD
ATOM      9  H   UNL     1       3.127   2.128   0.188  0.00  0.00    +0.151 HD
ENDROOT
BRANCH   2  10
ATOM     10  C   UNL     1       1.171  -2.085  -0.608  0.00  0.00    +0.072 A 
ATOM     11  C   UNL     1       1.841  -2.975   0.255  0.00  0.00    +0.029 A 
ATOM     12  C   UNL     1       1.853  -4.307  -0.024  0.00  0.00    +0.012 A 
ATOM     13  C   UNL     1       1.195  -4.754  -1.189  0.00  0.00    +0.000 A 
ATOM     14  C   UNL     1       1.175  -6.114  -1.534  0.00  0.00    +0.010 A 
ATOM     15  C   UNL     1       0.529  -6.512  -2.666  0.00  0.00    +0.001 A 
ATOM     16  C   UNL     1      -0.113  -5.587  -3.486  0.00  0.00    +0.002 A 
ATOM     17  C   UNL     1      -0.113  -4.261  -3.182  0.00  0.00    +0.028 A 
ATOM     18  C   UNL     1       0.543  -3.811  -2.021  0.00  0.00    +0.072 A 
ATOM     19  N   UNL     1       0.556  -2.514  -1.699  0.00  0.00    -0.247 NA
ENDBRANCH   2  10
BRANCH   1  23
ATOM     20  C   UNL     1       4.476  -0.211  -3.948  0.00  0.00    +0.120 A 
ATOM     21  C   UNL     1       4.864  -0.995  -2.872  0.00  0.00    +0.046 A 
ATOM     22  C   UNL     1       4.207  -0.880  -1.662  0.00  0.00    +0.009 A 
ATOM     23  C   UNL     1       3.163   0.017  -1.524  0.00  0.00    -0.022 A 
ATOM     24  C   UNL     1       2.771   0.796  -2.596  0.00  0.00    +0.009 A 
ATOM     25  C   UNL     1       3.429   0.688  -3.807  0.00  0.00    +0.046 A 
BRANCH  20  27
ATOM     26  C   UNL     1       4.668   0.516  -6.203  0.00  0.00    +0.277 C 
ATOM     27  O   UNL     1       5.121  -0.323  -5.139  0.00  0.00    -0.495 OA
ENDBRANCH  20  27
ENDBRANCH   1  23
BRANCH   3  28
ATOM     28  C   UNL     1      -1.285  -0.722  -0.155  0.00  0.00    -0.003 A 
ATOM     29  C   UNL     1      -2.344  -0.203  -0.902  0.00  0.00    +0.010 A 
ATOM     30  C   UNL     1      -3.536  -0.894  -0.976  0.00  0.00    +0.001 A 
ATOM     31  C   UNL     1      -3.686  -2.093  -0.302  0.00  0.00    +0.000 A 
ATOM     32  C   UNL     1      -2.643  -2.610   0.445  0.00  0.00    +0.001 A 
ATOM     33  C   UNL     1      -1.444  -1.932   0.522  0.00  0.00    +0.010 A 
ENDBRANCH   3  28
TORSDOF 4
