REMARK  Name = ZINC62203242
REMARK  3 active torsions:
REMARK  status: ('A' for Active; 'I' for Inactive)
REMARK    1  A    between atoms: C_2  and  N_9
REMARK    2  A    between atoms: C_14  and  N_18
REMARK    3  A    between atoms: N_18  and  N_19
REMARK                            x       y       z     vdW  Elec       q    Type
REMARK                         _______ _______ _______ _____ _____    ______ ____
ROOT
ATOM      1  N   UNL     1       1.161   3.488   0.009  0.00  0.00    -0.214 N 
ATOM      2  C   UNL     1       2.067   4.296   0.635  0.00  0.00    +0.168 A 
ATOM      3  C   UNL     1       1.665   5.622   0.379  0.00  0.00    +0.080 A 
ATOM      4  C   UNL     1       0.499   5.555  -0.413  0.00  0.00    +0.148 A 
ATOM      5  N   UNL     1       0.216   4.302  -0.629  0.00  0.00    -0.172 NA
ATOM      6  C   UNL     1       2.438   6.669   0.917  0.00  0.00    +0.146 A 
ATOM      7  N   UNL     1       3.509   6.356   1.639  0.00  0.00    -0.219 NA
ATOM      8  C   UNL     1       3.846   5.097   1.853  0.00  0.00    +0.225 A 
ATOM      9  N   UNL     1       3.156   4.086   1.371  0.00  0.00    -0.216 NA
ENDROOT
BRANCH   1  11
ATOM     10  C   UNL     1      -0.017   1.378   0.010  0.00  0.00    +0.048 A 
ATOM     11  C   UNL     1       1.177   2.087   0.002  0.00  0.00    +0.070 A 
ATOM     12  C   UNL     1       2.387   1.406  -0.013  0.00  0.00    +0.048 A 
ATOM     13  C   UNL     1       2.400   0.024  -0.021  0.00  0.00    +0.044 A 
ATOM     14  C   UNL     1       1.209  -0.681  -0.014  0.00  0.00    +0.040 A 
ATOM     15  C   UNL     1       0.002  -0.004   0.002  0.00  0.00    +0.044 A 
ATOM     16 CL   UNL     1      -1.490  -0.892   0.012  0.00  0.00    -0.083 Cl
ATOM     17 CL   UNL     1       3.912  -0.829  -0.040  0.00  0.00    -0.083 Cl
ENDBRANCH   1  11
BRANCH   6  18
ATOM     18  N   UNL     1       2.092   7.988   0.699  0.00  0.00    -0.267 N 
ATOM     19  H   UNL     1       1.309   8.203   0.170  0.00  0.00    +0.167 HD
BRANCH  18  20
ATOM     20  N   UNL     1       2.854   8.990   1.229  0.00  0.00    -0.255 NA
ATOM     21  H   UNL     1       2.481   9.895   0.986  0.00  0.00    +0.140 HD
ATOM     22  H   UNL     1       2.939   8.890   2.229  0.00  0.00    +0.140 HD
ENDBRANCH  18  20
ENDBRANCH   6  18
TORSDOF 3
