REMARK  Name = ZINC40687863
REMARK  7 active torsions:
REMARK  status: ('A' for Active; 'I' for Inactive)
REMARK    1  A    between atoms: C_1  and  C_2
REMARK    2  A    between atoms: C_5  and  S_8
REMARK    3  A    between atoms: S_8  and  N_11
REMARK    4  A    between atoms: N_11  and  N_12
REMARK    5  A    between atoms: C_14  and  N_30
REMARK    6  A    between atoms: C_15  and  O_19
REMARK    7  A    between atoms: O_19  and  C_20
REMARK                            x       y       z     vdW  Elec       q    Type
REMARK                         _______ _______ _______ _____ _____    ______ ____
ROOT
ATOM      1  N   UNL     1       2.444  -4.616   1.067  0.00  0.00    -0.244 N 
ATOM      2  C   UNL     1       3.148  -5.586   1.770  0.00  0.00    +0.161 A 
ATOM      3  C   UNL     1       4.024  -5.222   2.796  0.00  0.00    +0.129 A 
ATOM      4  C   UNL     1       4.705  -6.235   3.470  0.00  0.00    +0.246 A 
ATOM      5  N   UNL     1       4.496  -7.499   3.115  0.00  0.00    -0.199 NA
ATOM      6  C   UNL     1       3.661  -7.801   2.142  0.00  0.00    +0.227 A 
ATOM      7  N   UNL     1       2.994  -6.875   1.482  0.00  0.00    -0.218 NA
ATOM      8  H   UNL     1       2.562  -3.678   1.284  0.00  0.00    +0.169 HD
ENDROOT
BRANCH   3   9
ATOM      9  N   UNL     1       4.215  -3.874   3.138  0.00  0.00    -0.351 N 
ATOM     10  H   UNL     1       3.734  -3.180   2.660  0.00  0.00    +0.143 HD
ATOM     11  H   UNL     1       4.826  -3.637   3.853  0.00  0.00    +0.143 HD
ENDBRANCH   3   9
BRANCH   1  12
ATOM     12  N   UNL     1       1.563  -4.994   0.045  0.00  0.00    -0.109 NA
ATOM     13  H   UNL     1       1.879  -5.546  -0.687  0.00  0.00    +0.172 HD
BRANCH  12  14
ATOM     14  S   UNL     1      -0.016  -4.496   0.086  0.00  0.00    +0.074 S 
ATOM     15  O   UNL     1      -0.532  -4.888   1.350  0.00  0.00    -0.152 OA
ATOM     16  O   UNL     1      -0.604  -4.910  -1.139  0.00  0.00    -0.152 OA
BRANCH  14  21
ATOM     17  C   UNL     1       0.011   1.538   0.032  0.00  0.00    +0.044 C 
ATOM     18  C   UNL     1       0.005   0.031   0.045  0.00  0.00    -0.050 A 
ATOM     19  C   UNL     1      -0.032  -0.671  -1.145  0.00  0.00    +0.005 A 
ATOM     20  C   UNL     1      -0.038  -2.053  -1.133  0.00  0.00    +0.029 A 
ATOM     21  C   UNL     1      -0.007  -2.734   0.070  0.00  0.00    +0.107 A 
ATOM     22  C   UNL     1       0.031  -2.032   1.260  0.00  0.00    +0.029 A 
ATOM     23  C   UNL     1       0.041  -0.650   1.248  0.00  0.00    +0.005 A 
ENDBRANCH  14  21
ENDBRANCH  12  14
ENDBRANCH   1  12
BRANCH   4  24
ATOM     24  O   UNL     1       5.568  -5.935   4.473  0.00  0.00    -0.436 OA
BRANCH  24  25
ATOM     25  C   UNL     1       6.127  -6.963   5.162  0.00  0.00    +0.131 A 
ATOM     26  C   UNL     1       7.178  -7.688   4.589  0.00  0.00    +0.047 A 
ATOM     27  C   UNL     1       7.758  -8.722   5.254  0.00  0.00    +0.012 A 
ATOM     28  C   UNL     1       7.299  -9.072   6.536  0.00  0.00    -0.018 A 
ATOM     29  C   UNL     1       7.876 -10.135   7.251  0.00  0.00    +0.008 A 
ATOM     30  C   UNL     1       7.407 -10.447   8.491  0.00  0.00    +0.001 A 
ATOM     31  C   UNL     1       6.360  -9.727   9.064  0.00  0.00    +0.001 A 
ATOM     32  C   UNL     1       5.776  -8.692   8.401  0.00  0.00    +0.008 A 
ATOM     33  C   UNL     1       6.234  -8.340   7.119  0.00  0.00    -0.014 A 
ATOM     34  C   UNL     1       5.660  -7.273   6.408  0.00  0.00    +0.054 A 
ENDBRANCH  24  25
ENDBRANCH   4  24
TORSDOF 6
