REMARK  Name = ZINC21882588
REMARK  10 active torsions:
REMARK  status: ('A' for Active; 'I' for Inactive)
REMARK    1  A    between atoms: C_1  and  C_2
REMARK    2  A    between atoms: C_2  and  C_3
REMARK    3  A    between atoms: C_2  and  N_4
REMARK    4  A    between atoms: C_5  and  C_7
REMARK    5  A    between atoms: C_7  and  C_8
REMARK    6  A    between atoms: C_8  and  C_9
REMARK    7  A    between atoms: C_21  and  C_25
REMARK    8  A    between atoms: C_25  and  C_26
REMARK    9  A    between atoms: C_25  and  C_27
REMARK   10  A    between atoms: C_25  and  C_28
REMARK                            x       y       z     vdW  Elec       q    Type
REMARK                         _______ _______ _______ _____ _____    ______ ____
ROOT
ATOM      1  C   UNL     1      -1.290  -6.738   1.285  0.00  0.00    +0.111 A 
ATOM      2  N   UNL     1      -0.035  -6.358   1.623  0.00  0.00    -0.310 N 
ATOM      3  H   UNL     1       0.682  -7.102   2.001  0.00  0.00    +0.170 HD
ATOM      4  C   UNL     1       0.404  -5.081   1.520  0.00  0.00    +0.260 A 
ATOM      5  O   UNL     1       1.538  -4.757   1.829  0.00  0.00    -0.267 OA
ATOM      6  C   UNL     1      -0.553  -4.133   1.023  0.00  0.00    +0.075 A 
ATOM      7  C   UNL     1      -0.342  -2.711   0.817  0.00  0.00    -0.023 A 
ATOM      8  C   UNL     1      -1.391  -2.005   0.335  0.00  0.00    -0.004 A 
ATOM      9  S   UNL     1      -2.697  -3.192   0.137  0.00  0.00    -0.073 S 
ATOM     10  C   UNL     1      -1.836  -4.626   0.698  0.00  0.00    +0.116 A 
ATOM     11  N   UNL     1      -2.194  -5.900   0.827  0.00  0.00    -0.227 NA
ATOM     12  C   UNL     1      -1.437  -0.539   0.034  0.00  0.00    +0.046 C 
ATOM     13  C   UNL     1       0.002  -0.004   0.002  0.00  0.00    -0.000 C 
ATOM     14  C   UNL     1       0.742  -0.515   1.242  0.00  0.00    +0.009 C 
ATOM     15  C   UNL     1       0.985  -2.019   1.118  0.00  0.00    +0.037 C 
ENDROOT
BRANCH  13  16
ATOM     16  C   UNL     1      -0.019   1.526   0.010  0.00  0.00    -0.035 C 
ATOM     17  C   UNL     1       1.417   2.055  -0.000  0.00  0.00    +0.011 C 
ATOM     18  C   UNL     1      -0.759   2.033  -1.229  0.00  0.00    +0.011 C 
ATOM     19  C   UNL     1      -0.735   2.019   1.269  0.00  0.00    +0.011 C 
ENDBRANCH  13  16
BRANCH   1  20
ATOM     20  C   UNL     1      -1.669  -8.188   1.442  0.00  0.00    +0.083 C 
BRANCH  20  21
ATOM     21  C   UNL     1      -3.122  -8.386   1.004  0.00  0.00    +0.103 C 
BRANCH  21  23
ATOM     22  N   UNL     1      -4.742 -10.248   0.834  0.00  0.00    -0.313 N 
ATOM     23  C   UNL     1      -3.501  -9.836   1.161  0.00  0.00    +0.214 C 
ATOM     24  O   UNL     1      -2.689 -10.633   1.581  0.00  0.00    -0.276 OA
ATOM     25  H   UNL     1      -5.478  -9.525   0.453  0.00  0.00    +0.149 HD
BRANCH  22  27
ATOM     26  C   UNL     1      -5.563 -11.914   2.425  0.00  0.00    +0.027 C 
ATOM     27  C   UNL     1      -5.110 -11.657   0.986  0.00  0.00    +0.067 C 
ATOM     28  C   UNL     1      -6.252 -11.993   0.025  0.00  0.00    +0.027 C 
ENDBRANCH  22  27
ENDBRANCH  21  23
ENDBRANCH  20  21
ENDBRANCH   1  20
TORSDOF 5
