REMARK  Name = ZINC01786655
REMARK  11 active torsions:
REMARK  status: ('A' for Active; 'I' for Inactive)
REMARK    1  A    between atoms: C_1  and  C_2
REMARK    2  A    between atoms: C_3  and  C_23
REMARK    3  A    between atoms: C_15  and  C_19
REMARK    4  A    between atoms: C_16  and  N_18
REMARK    5  A    between atoms: C_19  and  O_21
REMARK    6  A    between atoms: O_21  and  C_22
REMARK    7  A    between atoms: C_23  and  O_25
REMARK    8  A    between atoms: O_25  and  C_26
REMARK    9  A    between atoms: C_26  and  C_27
REMARK   10  A    between atoms: C_27  and  O_28
REMARK   11  A    between atoms: O_28  and  C_29
REMARK                            x       y       z     vdW  Elec       q    Type
REMARK                         _______ _______ _______ _____ _____    ______ ____
ROOT
ATOM      1  C   UNL     1       3.251   6.470  -2.477  0.00  0.00    +0.087 C 
ATOM      2  C   UNL     1       2.986   5.741  -1.184  0.00  0.00    +0.116 C 
ATOM      3  C   UNL     1       2.760   4.421  -1.221  0.00  0.00    +0.098 C 
ATOM      4  C   UNL     1       2.494   3.651   0.040  0.00  0.00    +0.145 C 
ATOM      5  C   UNL     1       1.037   3.275   0.132  0.00  0.00    -0.001 A 
ATOM      6  C   UNL     1      -0.124   4.014   0.189  0.00  0.00    +0.022 A 
ATOM      7  C   UNL     1      -1.348   3.373   0.270  0.00  0.00    +0.018 A 
ATOM      8  C   UNL     1      -1.401   1.990   0.289  0.00  0.00    +0.017 A 
ATOM      9  C   UNL     1      -0.240   1.248   0.238  0.00  0.00    +0.025 A 
ATOM     10  C   UNL     1       0.996   1.885   0.155  0.00  0.00    +0.038 A 
ATOM     11  N   UNL     1       2.290   1.364   0.086  0.00  0.00    -0.284 N 
ATOM     12  C   UNL     1       3.224   2.329   0.016  0.00  0.00    +0.237 C 
ATOM     13  O   UNL     1       4.424   2.168  -0.054  0.00  0.00    -0.274 OA
ATOM     14 BR   UNL     1      -2.944   4.384   0.348  0.00  0.00    -0.050 Br
ATOM     15  C   UNL     1       2.905   4.453   1.242  0.00  0.00    +0.117 C 
ATOM     16  C   UNL     1       3.127   5.790   1.132  0.00  0.00    +0.195 C 
ATOM     17  O   UNL     1       2.985   6.436  -0.037  0.00  0.00    -0.446 OA
ATOM     18  H   UNL     1       2.491   0.415   0.088  0.00  0.00    +0.155 HD
ENDROOT
BRANCH  16  19
ATOM     19  N   UNL     1       3.505   6.497   2.242  0.00  0.00    -0.329 N 
ATOM     20  H   UNL     1       3.182   7.402   2.375  0.00  0.00    +0.145 HD
ATOM     21  H   UNL     1       4.097   6.093   2.896  0.00  0.00    +0.145 HD
ENDBRANCH  16  19
BRANCH  15  22
ATOM     22  C   UNL     1       3.061   3.820   2.484  0.00  0.00    +0.341 C 
ATOM     23  O   UNL     1       3.478   4.448   3.440  0.00  0.00    -0.245 OA
BRANCH  22  24
ATOM     24  O   UNL     1       2.749   2.513   2.619  0.00  0.00    -0.465 OA
ATOM     25  C   UNL     1       2.932   1.932   3.912  0.00  0.00    +0.280 C 
ENDBRANCH  22  24
ENDBRANCH  15  22
BRANCH   3  26
ATOM     26  C   UNL     1       2.773   3.743  -2.465  0.00  0.00    +0.340 C 
ATOM     27  O   UNL     1       2.881   4.372  -3.500  0.00  0.00    -0.245 OA
BRANCH  26  28
ATOM     28  O   UNL     1       2.665   2.398  -2.501  0.00  0.00    -0.459 OA
BRANCH  28  29
ATOM     29  C   UNL     1       2.685   1.780  -3.790  0.00  0.00    +0.260 C 
BRANCH  29  30
ATOM     30  C   UNL     1       2.553   0.265  -3.631  0.00  0.00    +0.200 C 
BRANCH  30  31
ATOM     31  O   UNL     1       1.271  -0.047  -3.082  0.00  0.00    -0.380 OA
ATOM     32  C   UNL     1       1.044  -1.445  -2.892  0.00  0.00    +0.194 C 
ENDBRANCH  30  31
ENDBRANCH  29  30
ENDBRANCH  28  29
ENDBRANCH  26  28
ENDBRANCH   3  26
TORSDOF 8
