REMARK  Name = ZINC39511479
REMARK  4 active torsions:
REMARK  status: ('A' for Active; 'I' for Inactive)
REMARK    1  A    between atoms: C_1  and  S_2
REMARK    2  A    between atoms: S_2  and  C_3
REMARK    3  A    between atoms: C_9  and  O_16
REMARK    4  A    between atoms: N_14  and  O_15
REMARK                            x       y       z     vdW  Elec       q    Type
REMARK                         _______ _______ _______ _____ _____    ______ ____
ROOT
ATOM      1  C   UNL     1       0.902  -0.439   1.516  0.00  0.00    +0.048 C 
ATOM      2  C   UNL     1       0.070  -0.066   2.768  0.00  0.00    +0.016 C 
ATOM      3  C   UNL     1       0.644  -1.010   3.854  0.00  0.00    +0.028 C 
ATOM      4  C   UNL     1       0.914  -2.328   3.103  0.00  0.00    +0.074 C 
ATOM      5  C   UNL     1       1.081  -1.969   1.617  0.00  0.00    +0.041 C 
ATOM      6  C   UNL     1      -0.271  -3.274   3.284  0.00  0.00    +0.137 C 
ATOM      7  C   UNL     1      -0.420  -3.622   4.768  0.00  0.00    +0.034 C 
ATOM      8  C   UNL     1       0.889  -4.234   5.273  0.00  0.00    +0.020 C 
ATOM      9  C   UNL     1       2.034  -3.245   5.044  0.00  0.00    +0.115 C 
ATOM     10  N   UNL     1       2.143  -2.944   3.610  0.00  0.00    -0.182 NA
ENDROOT
BRANCH   1  12
ATOM     11  C   UNL     1      -0.022   1.810   0.012  0.00  0.00    +0.084 C 
ATOM     12  S   UNL     1       0.002  -0.004   0.002  0.00  0.00    -0.161 S 
ENDBRANCH   1  12
BRANCH  10  13
ATOM     13  O   UNL     1       2.480  -4.146   2.846  0.00  0.00    -0.312 OA
ATOM     14  H   UNL     1       3.286  -4.588   3.145  0.00  0.00    +0.237 HD
ENDBRANCH  10  13
BRANCH   6  15
ATOM     15  O   UNL     1      -1.464  -2.639   2.819  0.00  0.00    -0.390 OA
ATOM     16  H   UNL     1      -2.258  -3.185   2.903  0.00  0.00    +0.210 HD
ENDBRANCH   6  15
TORSDOF 3
