REMARK  Name = ZINC48447523
REMARK  8 active torsions:
REMARK  status: ('A' for Active; 'I' for Inactive)
REMARK    1  A    between atoms: C_1  and  C_2
REMARK    2  A    between atoms: C_2  and  C_4
REMARK    3  A    between atoms: C_2  and  N_17
REMARK    4  A    between atoms: C_7  and  N_10
REMARK    5  A    between atoms: N_13  and  C_14
REMARK    6  A    between atoms: N_20  and  C_21
REMARK    7  A    between atoms: C_24  and  O_28
REMARK    8  A    between atoms: O_28  and  C_29
REMARK                            x       y       z     vdW  Elec       q    Type
REMARK                         _______ _______ _______ _____ _____    ______ ____
ROOT
ATOM      1  C   UNL     1       1.131   2.337  -0.084  0.00  0.00    +0.033 C 
ATOM      2  C   UNL     1       1.021   0.876  -0.526  0.00  0.00    +0.102 C 
ENDROOT
BRANCH   2   3
ATOM      3  C   UNL     1       1.420  -0.025   0.615  0.00  0.00    -0.027 A 
ATOM      4  C   UNL     1       0.516  -0.303   1.623  0.00  0.00    +0.007 A 
ATOM      5  C   UNL     1       0.878  -1.128   2.669  0.00  0.00    +0.023 A 
ATOM      6  C   UNL     1       2.152  -1.679   2.708  0.00  0.00    +0.035 A 
ATOM      7  C   UNL     1       3.058  -1.398   1.694  0.00  0.00    +0.023 A 
ATOM      8  C   UNL     1       2.688  -0.576   0.647  0.00  0.00    +0.007 A 
BRANCH   6   9
ATOM      9  N   UNL     1       2.523  -2.515   3.767  0.00  0.00    -0.269 N 
ATOM     10  C   UNL     1       1.605  -3.314   4.348  0.00  0.00    +0.304 C 
ATOM     11  O   UNL     1       0.480  -3.378   3.893  0.00  0.00    -0.253 OA
ATOM     12  N   UNL     1       1.935  -4.041   5.434  0.00  0.00    -0.296 N 
ATOM     13  H   UNL     1       3.440  -2.521   4.083  0.00  0.00    +0.156 HD
ATOM     14  H   UNL     1       2.833  -3.990   5.797  0.00  0.00    +0.151 HD
BRANCH  12  15
ATOM     15  C   UNL     1       0.938  -4.909   6.065  0.00  0.00    +0.075 C 
ATOM     16  C   UNL     1       0.857  -4.896   7.593  0.00  0.00    +0.024 C 
ATOM     17  C   UNL     1       1.451  -6.106   6.868  0.00  0.00    +0.024 C 
ENDBRANCH  12  15
ENDBRANCH   6   9
ENDBRANCH   2   3
BRANCH   2  18
ATOM     18  N   UNL     1      -0.360   0.587  -0.917  0.00  0.00    -0.293 N 
ATOM     19  C   UNL     1      -0.778   0.862  -2.168  0.00  0.00    +0.304 C 
ATOM     20  O   UNL     1      -0.009   1.350  -2.973  0.00  0.00    -0.252 OA
ATOM     21  N   UNL     1      -2.050   0.595  -2.528  0.00  0.00    -0.269 N 
ATOM     22  H   UNL     1      -0.975   0.197  -0.275  0.00  0.00    +0.151 HD
ATOM     23  H   UNL     1      -2.684   0.276  -1.867  0.00  0.00    +0.156 HD
BRANCH  21  24
ATOM     24  C   UNL     1      -2.455   0.779  -3.857  0.00  0.00    +0.038 A 
ATOM     25  C   UNL     1      -3.752   1.189  -4.136  0.00  0.00    +0.027 A 
ATOM     26  C   UNL     1      -4.152   1.371  -5.446  0.00  0.00    +0.050 A 
ATOM     27  C   UNL     1      -3.259   1.144  -6.482  0.00  0.00    +0.155 A 
ATOM     28  C   UNL     1      -1.961   0.734  -6.204  0.00  0.00    +0.167 A 
ATOM     29  C   UNL     1      -1.559   0.557  -4.893  0.00  0.00    +0.065 A 
ATOM     30  F   UNL     1      -1.091   0.512  -7.214  0.00  0.00    -0.202 F 
BRANCH  27  31
ATOM     31  O   UNL     1      -3.654   1.323  -7.772  0.00  0.00    -0.492 OA
ATOM     32  C   UNL     1      -5.002   1.746  -7.984  0.00  0.00    +0.277 C 
ENDBRANCH  27  31
ENDBRANCH  21  24
ENDBRANCH   2  18
TORSDOF 6
