REMARK  Name = ZINC05014606
REMARK  8 active torsions:
REMARK  status: ('A' for Active; 'I' for Inactive)
REMARK    1  A    between atoms: C_1  and  C_2
REMARK    2  A    between atoms: C_5  and  C_8
REMARK    3  A    between atoms: C_8  and  C_20
REMARK    4  A    between atoms: C_10  and  C_16
REMARK    5  A    between atoms: C_13  and  C_15
REMARK    6  A    between atoms: C_16  and  O_18
REMARK    7  A    between atoms: O_18  and  C_19
REMARK    8  A    between atoms: C_23  and  C_26
REMARK                            x       y       z     vdW  Elec       q    Type
REMARK                         _______ _______ _______ _____ _____    ______ ____
ROOT
ATOM      1  C   UNL     1      -2.893  -2.512   0.004  0.00  0.00    +0.115 C 
ATOM      2  C   UNL     1      -1.482  -1.916   0.171  0.00  0.00    +0.102 C 
ATOM      3  C   UNL     1      -1.705  -0.423   0.091  0.00  0.00    +0.146 C 
ATOM      4  N   UNL     1      -2.963  -0.183  -0.079  0.00  0.00    -0.174 NA
ATOM      5  N   UNL     1      -3.754  -1.328  -0.150  0.00  0.00    -0.178 N 
ATOM      6  C   UNL     1      -5.090  -1.348  -0.327  0.00  0.00    +0.233 C 
ATOM      7  O   UNL     1      -5.694  -2.398  -0.268  0.00  0.00    -0.274 OA
ATOM      8  C   UNL     1      -5.833  -0.065  -0.598  0.00  0.00    +0.111 C 
ENDROOT
BRANCH   1  13
ATOM      9  C   UNL     1      -3.149  -5.838  -4.715  0.00  0.00    +0.044 C 
ATOM     10  C   UNL     1      -3.082  -4.971  -3.485  0.00  0.00    -0.050 A 
ATOM     11  C   UNL     1      -2.279  -3.846  -3.475  0.00  0.00    +0.004 A 
ATOM     12  C   UNL     1      -2.218  -3.050  -2.346  0.00  0.00    +0.006 A 
ATOM     13  C   UNL     1      -2.960  -3.379  -1.227  0.00  0.00    -0.017 A 
ATOM     14  C   UNL     1      -3.760  -4.507  -1.235  0.00  0.00    +0.006 A 
ATOM     15  C   UNL     1      -3.824  -5.300  -2.366  0.00  0.00    +0.004 A 
ENDBRANCH   1  13
BRANCH   1  16
ATOM     16  C   UNL     1      -3.284  -3.300   1.227  0.00  0.00    -0.017 A 
ATOM     17  C   UNL     1      -4.267  -2.821   2.073  0.00  0.00    +0.006 A 
ATOM     18  C   UNL     1      -4.629  -3.546   3.193  0.00  0.00    +0.004 A 
ATOM     19  C   UNL     1      -4.001  -4.745   3.473  0.00  0.00    -0.050 A 
ATOM     20  C   UNL     1      -3.015  -5.222   2.629  0.00  0.00    +0.004 A 
ATOM     21  C   UNL     1      -2.656  -4.499   1.507  0.00  0.00    +0.006 A 
ATOM     22  C   UNL     1      -4.392  -5.533   4.696  0.00  0.00    +0.044 C 
ENDBRANCH   1  16
BRANCH   3  23
ATOM     23  C   UNL     1      -0.656   0.596   0.196  0.00  0.00    +0.355 C 
ATOM     24  O   UNL     1       0.501   0.263   0.361  0.00  0.00    -0.244 OA
BRANCH  23  25
ATOM     25  O   UNL     1      -0.975   1.904   0.110  0.00  0.00    -0.464 OA
ATOM     26  C   UNL     1       0.114   2.857   0.223  0.00  0.00    +0.280 C 
ENDBRANCH  23  25
ENDBRANCH   3  23
TORSDOF 4
