REMARK  Name = ZINC24717556
REMARK  6 active torsions:
REMARK  status: ('A' for Active; 'I' for Inactive)
REMARK    1  A    between atoms: C_1  and  O_2
REMARK    2  A    between atoms: O_2  and  C_3
REMARK    3  A    between atoms: C_8  and  O_9
REMARK    4  A    between atoms: C_13  and  C_15
REMARK    5  A    between atoms: C_18  and  O_22
REMARK    6  A    between atoms: C_19  and  O_21
REMARK                            x       y       z     vdW  Elec       q    Type
REMARK                         _______ _______ _______ _____ _____    ______ ____
ROOT
ATOM      1  C   UNL     1       7.809   0.676  -2.034  0.00  0.00    +0.162 A 
ATOM      2  C   UNL     1       6.881   0.188  -1.129  0.00  0.00    +0.050 A 
ATOM      3  C   UNL     1       6.017   1.057  -0.494  0.00  0.00    +0.008 A 
ATOM      4  C   UNL     1       6.069   2.418  -0.756  0.00  0.00    -0.031 A 
ATOM      5  C   UNL     1       6.989   2.911  -1.657  0.00  0.00    +0.015 A 
ATOM      6  C   UNL     1       7.862   2.039  -2.298  0.00  0.00    +0.163 A 
ATOM      7  C   UNL     1       7.080   4.380  -1.978  0.00  0.00    +0.120 C 
ATOM      8  N   UNL     1       6.404   5.173  -0.947  0.00  0.00    -0.311 NA
ATOM      9  C   UNL     1       5.034   4.678  -0.743  0.00  0.00    +0.094 C 
ATOM     10  C   UNL     1       5.106   3.326  -0.034  0.00  0.00    +0.063 C 
ATOM     11  H   UNL     1       6.960   5.095  -0.001  0.00  0.00    +0.122 HD
ENDROOT
BRANCH  10  12
ATOM     12  C   UNL     1       3.738   2.693  -0.020  0.00  0.00    -0.035 A 
ATOM     13  C   UNL     1       3.098   2.410  -1.212  0.00  0.00    +0.008 A 
ATOM     14  C   UNL     1       1.843   1.830  -1.205  0.00  0.00    +0.049 A 
ATOM     15  C   UNL     1       1.224   1.533  -0.001  0.00  0.00    +0.158 A 
ATOM     16  C   UNL     1       1.866   1.824   1.198  0.00  0.00    +0.158 A 
ATOM     17  C   UNL     1       3.126   2.399   1.184  0.00  0.00    +0.053 A 
BRANCH  16  18
ATOM     18  O   UNL     1       1.260   1.539   2.382  0.00  0.00    -0.503 OA
ATOM     19  H   UNL     1       1.769   1.770   3.330  0.00  0.00    +0.292 HD
ENDBRANCH  16  18
BRANCH  15  20
ATOM     20  O   UNL     1      -0.011   0.963   0.007  0.00  0.00    -0.503 OA
ATOM     21  H   UNL     1      -0.501   0.727   0.963  0.00  0.00    +0.292 HD
ENDBRANCH  15  20
ENDBRANCH  10  12
BRANCH   1  23
ATOM     22  C   UNL     1       8.552  -1.562  -2.340  0.00  0.00    +0.277 C 
ATOM     23  O   UNL     1       8.665  -0.174  -2.661  0.00  0.00    -0.491 OA
ENDBRANCH   1  23
BRANCH   6  24
ATOM     24  O   UNL     1       8.772   2.523  -3.186  0.00  0.00    -0.503 OA
ATOM     25  H   UNL     1       8.816   3.602  -3.396  0.00  0.00    +0.292 HD
ENDBRANCH   6  24
TORSDOF 5
