REMARK  Name = ZINC20466381
REMARK  15 active torsions:
REMARK  status: ('A' for Active; 'I' for Inactive)
REMARK    1  A    between atoms: C_1  and  C_2
REMARK    2  A    between atoms: C_4  and  N_28
REMARK    3  A    between atoms: C_8  and  C_27
REMARK    4  A    between atoms: C_11  and  O_26
REMARK    5  A    between atoms: C_13  and  C_17
REMARK    6  A    between atoms: C_17  and  C_19
REMARK    7  A    between atoms: C_17  and  C_20
REMARK    8  A    between atoms: N_22  and  C_23
REMARK    9  A    between atoms: C_23  and  C_24
REMARK   10  A    between atoms: C_23  and  C_25
REMARK   11  A    between atoms: C_29  and  C_31
REMARK   12  A    between atoms: C_31  and  C_32
REMARK   13  A    between atoms: C_32  and  C_33
REMARK   14  A    between atoms: C_32  and  C_34
REMARK   15  A    between atoms: C_32  and  C_35
REMARK                            x       y       z     vdW  Elec       q    Type
REMARK                         _______ _______ _______ _____ _____    ______ ____
ROOT
ATOM      1  C   UNL     1       3.366   2.472   1.522  0.00  0.00    +0.010 C 
ATOM      2  C   UNL     1       1.912   1.997   1.550  0.00  0.00    +0.012 C 
ATOM      3  C   UNL     1       1.871   0.473   1.423  0.00  0.00    +0.076 C 
ATOM      4  C   UNL     1       0.417  -0.002   1.450  0.00  0.00    +0.023 C 
ATOM      5  C   UNL     1      -0.347   0.627   0.284  0.00  0.00    +0.009 C 
ATOM      6  C   UNL     1      -0.306   2.152   0.410  0.00  0.00    -0.027 C 
ATOM      7  C   UNL     1       1.148   2.627   0.383  0.00  0.00    +0.028 C 
ATOM      8  C   UNL     1       1.189   4.151   0.510  0.00  0.00    +0.122 C 
ATOM      9  C   UNL     1       0.425   4.780  -0.657  0.00  0.00    +0.029 C 
ATOM     10  C   UNL     1      -1.029   4.305  -0.630  0.00  0.00    +0.007 C 
ATOM     11  C   UNL     1      -1.070   2.781  -0.756  0.00  0.00    +0.007 C 
ATOM     12  C   UNL     1      -0.955   2.571   1.731  0.00  0.00    +0.011 C 
ENDROOT
BRANCH   3  13
ATOM     13  N   UNL     1       2.603  -0.130   2.540  0.00  0.00    -0.312 N 
ATOM     14  C   UNL     1       3.138  -1.360   2.409  0.00  0.00    +0.214 C 
ATOM     15  O   UNL     1       3.014  -1.968   1.368  0.00  0.00    -0.276 OA
ATOM     16  H   UNL     1       2.716   0.422   3.485  0.00  0.00    +0.149 HD
BRANCH  14  17
ATOM     17  C   UNL     1       3.891  -1.980   3.558  0.00  0.00    +0.102 C 
BRANCH  17  18
ATOM     18  C   UNL     1       4.391  -3.367   3.151  0.00  0.00    -0.029 C 
ATOM     19  C   UNL     1       5.320  -3.240   1.942  0.00  0.00    +0.011 C 
ATOM     20  C   UNL     1       5.155  -3.997   4.318  0.00  0.00    +0.011 C 
ATOM     21  C   UNL     1       3.197  -4.252   2.787  0.00  0.00    +0.011 C 
ENDBRANCH  17  18
ENDBRANCH  14  17
ENDBRANCH   3  13
BRANCH   9  22
ATOM     22  C   UNL     1       1.074   4.361  -1.977  0.00  0.00    +0.077 C 
ATOM     23  C   UNL     1       2.551   4.760  -1.969  0.00  0.00    +0.017 C 
BRANCH  22  24
ATOM     24  C   UNL     1       0.374   5.048  -3.122  0.00  0.00    +0.216 C 
ATOM     25  O   UNL     1      -0.552   5.799  -2.903  0.00  0.00    -0.276 OA
ATOM     26  N   UNL     1       0.778   4.827  -4.388  0.00  0.00    -0.313 N 
ATOM     27  H   UNL     1       1.618   4.146  -4.587  0.00  0.00    +0.149 HD
BRANCH  26  28
ATOM     28  C   UNL     1       0.098   5.495  -5.501  0.00  0.00    +0.067 C 
ATOM     29  C   UNL     1       1.053   5.604  -6.691  0.00  0.00    +0.027 C 
ATOM     30  C   UNL     1      -1.133   4.683  -5.907  0.00  0.00    +0.027 C 
ENDBRANCH  26  28
ENDBRANCH  22  24
ENDBRANCH   9  22
BRANCH   8  31
ATOM     31  O   UNL     1       2.547   4.595   0.484  0.00  0.00    -0.391 OA
ATOM     32  H   UNL     1       2.777   5.667   0.564  0.00  0.00    +0.210 HD
ENDBRANCH   8  31
TORSDOF 7
