REMARK  Name = ZINC25049051
REMARK  8 active torsions:
REMARK  status: ('A' for Active; 'I' for Inactive)
REMARK    1  A    between atoms: C_1  and  C_2
REMARK    2  A    between atoms: C_5  and  C_8
REMARK    3  A    between atoms: C_8  and  C_10
REMARK    4  A    between atoms: C_8  and  N_15
REMARK    5  A    between atoms: N_15  and  C_16
REMARK    6  A    between atoms: C_16  and  C_18
REMARK    7  A    between atoms: C_16  and  C_19
REMARK    8  A    between atoms: N_21  and  C_22
REMARK                            x       y       z     vdW  Elec       q    Type
REMARK                         _______ _______ _______ _____ _____    ______ ____
ROOT
ATOM      1  C   UNL     1       1.468  -6.101   0.712  0.00  0.00    +0.138 C 
ATOM      2  C   UNL     1       2.691  -5.979  -0.200  0.00  0.00    +0.034 C 
ENDROOT
BRANCH   1   3
ATOM      3  C   UNL     1       1.860  -6.806   1.985  0.00  0.00    +0.234 C 
ATOM      4  O   UNL     1       1.728  -6.247   3.053  0.00  0.00    -0.274 OA
ATOM      5  N   UNL     1       2.356  -8.058   1.937  0.00  0.00    -0.284 N 
ATOM      6  H   UNL     1       2.399  -8.530   1.091  0.00  0.00    +0.155 HD
BRANCH   5   7
ATOM      7  C   UNL     1       2.810  -8.678   3.108  0.00  0.00    +0.036 A 
ATOM      8  C   UNL     1       3.907  -9.530   3.062  0.00  0.00    +0.025 A 
ATOM      9  C   UNL     1       4.360 -10.143   4.213  0.00  0.00    +0.029 A 
ATOM     10  C   UNL     1       3.718  -9.909   5.420  0.00  0.00    +0.067 A 
ATOM     11  C   UNL     1       2.615  -9.053   5.470  0.00  0.00    +0.069 A 
ATOM     12  C   UNL     1       2.167  -8.435   4.313  0.00  0.00    +0.051 A 
ATOM     13  N   UNL     1       2.193  -9.018   6.797  0.00  0.00    -0.306 N 
ATOM     14  H   UNL     1       1.444  -8.506   7.140  0.00  0.00    +0.170 HD
ATOM     15  C   UNL     1       3.001  -9.815   7.521  0.00  0.00    +0.325 A 
ATOM     16  O   UNL     1       2.904 -10.007   8.719  0.00  0.00    -0.247 OA
ATOM     17  N   UNL     1       3.931 -10.367   6.720  0.00  0.00    -0.306 N 
ATOM     18  H   UNL     1       4.630 -10.979   6.999  0.00  0.00    +0.170 HD
ENDBRANCH   5   7
ENDBRANCH   1   3
BRANCH   1  19
ATOM     19  N   UNL     1       0.960  -4.760   1.032  0.00  0.00    -0.295 NA
ATOM     20  H   UNL     1       1.718  -4.111   1.179  0.00  0.00    +0.124 HD
BRANCH  19  21
ATOM     21  C   UNL     1       0.051  -4.278  -0.017  0.00  0.00    +0.122 C 
BRANCH  21  26
ATOM     22  C   UNL     1      -0.019   1.500  -0.002  0.00  0.00    +0.044 C 
ATOM     23  C   UNL     1      -0.001  -0.007  -0.006  0.00  0.00    -0.050 A 
ATOM     24  C   UNL     1      -0.007  -0.695  -1.205  0.00  0.00    +0.004 A 
ATOM     25  C   UNL     1       0.010  -2.077  -1.208  0.00  0.00    +0.006 A 
ATOM     26  C   UNL     1       0.033  -2.771  -0.013  0.00  0.00    -0.026 A 
ATOM     27  C   UNL     1       0.040  -2.083   1.186  0.00  0.00    +0.006 A 
ATOM     28  C   UNL     1       0.027  -0.701   1.189  0.00  0.00    +0.004 A 
ENDBRANCH  21  26
BRANCH  21  29
ATOM     29  C   UNL     1      -1.339  -4.797   0.246  0.00  0.00    +0.011 A 
ATOM     30  C   UNL     1      -2.256  -5.268  -0.635  0.00  0.00    +0.013 A 
ATOM     31  C   UNL     1      -3.482  -5.697  -0.162  0.00  0.00    +0.008 A 
ATOM     32  C   UNL     1      -3.731  -5.635   1.168  0.00  0.00    +0.045 A 
ATOM     33  S   UNL     1      -2.204  -4.960   1.800  0.00  0.00    -0.100 S 
ENDBRANCH  21  29
ENDBRANCH  19  21
ENDBRANCH   1  19
TORSDOF 6
