REMARK  Name = ZINC24538158
REMARK  11 active torsions:
REMARK  status: ('A' for Active; 'I' for Inactive)
REMARK    1  A    between atoms: C_1  and  C_2
REMARK    2  A    between atoms: C_3  and  S_8
REMARK    3  A    between atoms: C_4  and  C_7
REMARK    4  A    between atoms: S_8  and  N_11
REMARK    5  A    between atoms: C_15  and  C_18
REMARK    6  A    between atoms: N_20  and  C_21
REMARK    7  A    between atoms: N_20  and  C_22
REMARK    8  A    between atoms: C_22  and  C_24
REMARK    9  A    between atoms: C_22  and  C_25
REMARK   10  A    between atoms: C_28  and  S_31
REMARK   11  A    between atoms: S_31  and  N_34
REMARK                            x       y       z     vdW  Elec       q    Type
REMARK                         _______ _______ _______ _____ _____    ______ ____
ROOT
ATOM      1  C   UNL     1      -0.003   1.171  -0.290  0.00  0.00    +0.220 C 
ATOM      2  O   UNL     1       0.010  -0.031  -0.448  0.00  0.00    -0.275 OA
ATOM      3  N   UNL     1      -1.164   1.805  -0.034  0.00  0.00    -0.297 N 
ATOM      4  C   UNL     1      -1.179   3.257   0.158  0.00  0.00    +0.132 C 
ENDROOT
BRANCH   1   9
ATOM      5  N   UNL     1       3.657   1.800  -0.912  0.00  0.00    -0.176 NA
ATOM      6  C   UNL     1       3.626   2.882  -1.906  0.00  0.00    +0.109 C 
ATOM      7  C   UNL     1       2.451   3.812  -1.585  0.00  0.00    +0.018 C 
ATOM      8  C   UNL     1       1.162   2.991  -1.508  0.00  0.00    +0.015 C 
ATOM      9  C   UNL     1       1.280   1.957  -0.386  0.00  0.00    +0.091 C 
ATOM     10  C   UNL     1       2.441   1.006  -0.694  0.00  0.00    +0.122 C 
BRANCH   5  11
ATOM     11  S   UNL     1       5.038   1.481  -0.056  0.00  0.00    +0.066 S 
ATOM     12  O   UNL     1       4.954   0.125   0.361  0.00  0.00    -0.153 OA
ATOM     13  O   UNL     1       6.121   1.973  -0.833  0.00  0.00    -0.153 OA
BRANCH  11  16
ATOM     14  C   UNL     1       3.763   0.822   3.034  0.00  0.00    +0.071 C 
ATOM     15  C   UNL     1       4.432   2.120   2.664  0.00  0.00    +0.107 A 
ATOM     16  C   UNL     1       4.982   2.462   1.407  0.00  0.00    +0.170 A 
ATOM     17  C   UNL     1       5.461   3.716   1.589  0.00  0.00    +0.161 A 
ATOM     18  O   UNL     1       5.186   4.046   2.859  0.00  0.00    -0.358 OA
ATOM     19  N   UNL     1       4.619   3.150   3.439  0.00  0.00    -0.081 NA
ATOM     20  C   UNL     1       6.162   4.571   0.566  0.00  0.00    +0.091 C 
ENDBRANCH  11  16
ENDBRANCH   5  11
ENDBRANCH   1   9
BRANCH   3  21
ATOM     21  C   UNL     1      -2.411   1.042   0.054  0.00  0.00    +0.103 C 
ATOM     22  C   UNL     1      -3.103   1.345   1.384  0.00  0.00    +0.033 C 
BRANCH  21  23
ATOM     23  C   UNL     1      -3.319   1.431  -1.085  0.00  0.00    -0.027 A 
ATOM     24  C   UNL     1      -3.717   2.746  -1.233  0.00  0.00    +0.007 A 
ATOM     25  C   UNL     1      -4.546   3.104  -2.280  0.00  0.00    +0.029 A 
ATOM     26  C   UNL     1      -4.985   2.144  -3.172  0.00  0.00    +0.105 A 
ATOM     27  C   UNL     1      -4.592   0.828  -3.021  0.00  0.00    +0.029 A 
ATOM     28  C   UNL     1      -3.759   0.471  -1.977  0.00  0.00    +0.007 A 
BRANCH  26  29
ATOM     29  S   UNL     1      -6.048   2.599  -4.502  0.00  0.00    +0.056 S 
ATOM     30  O   UNL     1      -5.829   3.983  -4.742  0.00  0.00    -0.153 OA
ATOM     31  O   UNL     1      -5.877   1.615  -5.513  0.00  0.00    -0.153 OA
BRANCH  29  32
ATOM     32  N   UNL     1      -7.604   2.454  -3.957  0.00  0.00    -0.204 NA
ATOM     33  H   UNL     1      -8.302   2.730  -4.762  0.00  0.00    +0.144 HD
ATOM     34  H   UNL     1      -7.755   3.121  -3.096  0.00  0.00    +0.144 HD
ENDBRANCH  29  32
ENDBRANCH  26  29
ENDBRANCH  21  23
ENDBRANCH   3  21
TORSDOF 7
