REMARK  Name = ZINC37895765
REMARK  6 active torsions:
REMARK  status: ('A' for Active; 'I' for Inactive)
REMARK    1  A    between atoms: C_1  and  C_2
REMARK    2  A    between atoms: C_2  and  C_4
REMARK    3  A    between atoms: C_2  and  N_16
REMARK    4  A    between atoms: C_11  and  C_13
REMARK    5  A    between atoms: C_13  and  C_14
REMARK    6  A    between atoms: C_14  and  O_15
REMARK                            x       y       z     vdW  Elec       q    Type
REMARK                         _______ _______ _______ _____ _____    ______ ____
ROOT
ATOM      1  C   UNL     1      -1.399  -0.532   0.155  0.00  0.00    +0.236 C 
ATOM      2  O   UNL     1      -1.758  -0.991   1.219  0.00  0.00    -0.274 OA
ATOM      3  N   UNL     1      -2.250  -0.509  -0.890  0.00  0.00    -0.297 N 
ATOM      4  C   UNL     1      -1.799  -0.056  -2.212  0.00  0.00    +0.108 C 
ATOM      5  C   UNL     1      -2.740   1.050  -2.702  0.00  0.00    +0.019 C 
ATOM      6  C   UNL     1      -4.182   0.538  -2.670  0.00  0.00    +0.003 C 
ATOM      7  C   UNL     1      -4.566   0.179  -1.233  0.00  0.00    +0.022 C 
ATOM      8  C   UNL     1      -3.645  -0.943  -0.729  0.00  0.00    +0.078 C 
ENDROOT
BRANCH   1  10
ATOM      9  C   UNL     1      -0.046   1.540   0.007  0.00  0.00    +0.038 C 
ATOM     10  C   UNL     1      -0.002   0.011   0.001  0.00  0.00    +0.157 C 
BRANCH  10  11
ATOM     11  N   UNL     1       0.830  -0.458   1.112  0.00  0.00    -0.289 N 
ATOM     12  C   UNL     1       2.166  -0.548   0.962  0.00  0.00    +0.298 C 
ATOM     13  O   UNL     1       2.682  -0.239  -0.095  0.00  0.00    -0.253 OA
ATOM     14  N   UNL     1       2.932  -0.979   1.984  0.00  0.00    -0.313 N 
ATOM     15  H   UNL     1       0.419  -0.704   1.955  0.00  0.00    +0.151 HD
ATOM     16  H   UNL     1       2.521  -1.225   2.828  0.00  0.00    +0.146 HD
ATOM     17  H   UNL     1       3.893  -1.044   1.876  0.00  0.00    +0.146 HD
ENDBRANCH  10  11
ENDBRANCH   1  10
BRANCH   8  18
ATOM     18  C   UNL     1      -3.929  -1.217   0.749  0.00  0.00    +0.050 C 
BRANCH  18  19
ATOM     19  C   UNL     1      -5.390  -1.639   0.918  0.00  0.00    +0.157 C 
BRANCH  19  20
ATOM     20  O   UNL     1      -5.625  -2.013   2.277  0.00  0.00    -0.395 OA
ATOM     21  H   UNL     1      -6.532  -2.293   2.457  0.00  0.00    +0.209 HD
ENDBRANCH  19  20
ENDBRANCH  18  19
ENDBRANCH   8  18
TORSDOF 5
