REMARK  Name = ZINC60751146
REMARK  6 active torsions:
REMARK  status: ('A' for Active; 'I' for Inactive)
REMARK    1  A    between atoms: C_1  and  O_2
REMARK    2  A    between atoms: O_2  and  C_3
REMARK    3  A    between atoms: C_6  and  N_13
REMARK    4  A    between atoms: C_8  and  S_9
REMARK    5  A    between atoms: S_9  and  N_12
REMARK    6  A    between atoms: C_14  and  C_16
REMARK                            x       y       z     vdW  Elec       q    Type
REMARK                         _______ _______ _______ _____ _____    ______ ____
ROOT
ATOM      1  C   UNL     1       0.640  -0.620   1.033  0.00  0.00    +0.146 A 
ATOM      2  C   UNL     1       1.803  -0.081   1.563  0.00  0.00    +0.049 A 
ATOM      3  C   UNL     1       2.432  -0.704   2.623  0.00  0.00    +0.027 A 
ATOM      4  C   UNL     1       1.901  -1.871   3.157  0.00  0.00    +0.035 A 
ATOM      5  C   UNL     1       0.737  -2.409   2.626  0.00  0.00    +0.055 A 
ATOM      6  C   UNL     1       0.106  -1.782   1.569  0.00  0.00    +0.148 A 
ENDROOT
BRANCH   4   7
ATOM      7  N   UNL     1       2.539  -2.503   4.232  0.00  0.00    -0.285 N 
ATOM      8  C   UNL     1       3.186  -1.769   5.159  0.00  0.00    +0.221 C 
ATOM      9  O   UNL     1       3.135  -0.558   5.116  0.00  0.00    -0.275 OA
ATOM     10  H   UNL     1       2.515  -3.470   4.309  0.00  0.00    +0.155 HD
BRANCH   8  11
ATOM     11  C   UNL     1       3.972  -2.453   6.248  0.00  0.00    +0.081 C 
ATOM     12  C   UNL     1       3.037  -3.344   7.068  0.00  0.00    +0.002 C 
ATOM     13  C   UNL     1       3.835  -4.039   8.174  0.00  0.00    +0.008 C 
ATOM     14  C   UNL     1       4.466  -2.985   9.086  0.00  0.00    -0.010 C 
ATOM     15  C   UNL     1       3.365  -2.128   9.713  0.00  0.00    +0.007 C 
ATOM     16  C   UNL     1       2.567  -1.434   8.608  0.00  0.00    -0.010 C 
ATOM     17  C   UNL     1       1.936  -2.487   7.696  0.00  0.00    +0.008 C 
ATOM     18  C   UNL     1       3.501  -0.542   7.787  0.00  0.00    +0.008 C 
ATOM     19  C   UNL     1       4.603  -1.399   7.160  0.00  0.00    +0.002 C 
ATOM     20  C   UNL     1       5.401  -2.093   8.265  0.00  0.00    +0.008 C 
ENDBRANCH   8  11
ENDBRANCH   4   7
BRANCH   6  21
ATOM     21  S   UNL     1      -1.375  -2.462   0.899  0.00  0.00    +0.059 S 
ATOM     22  O   UNL     1      -1.198  -2.511  -0.510  0.00  0.00    -0.153 OA
ATOM     23  O   UNL     1      -1.676  -3.618   1.669  0.00  0.00    -0.153 OA
BRANCH  21  24
ATOM     24  N   UNL     1      -2.588  -1.373   1.187  0.00  0.00    -0.203 NA
ATOM     25  H   UNL     1      -3.338  -1.309   0.575  0.00  0.00    +0.144 HD
ATOM     26  H   UNL     1      -2.549  -0.798   1.967  0.00  0.00    +0.144 HD
ENDBRANCH  21  24
ENDBRANCH   6  21
BRANCH   1  28
ATOM     27  C   UNL     1       0.626   1.187  -0.513  0.00  0.00    +0.277 C 
ATOM     28  O   UNL     1       0.021  -0.006  -0.010  0.00  0.00    -0.493 OA
ENDBRANCH   1  28
TORSDOF 5
