REMARK  Name = ZINC61750887
REMARK  4 active torsions:
REMARK  status: ('A' for Active; 'I' for Inactive)
REMARK    1  A    between atoms: C_10  and  C_11
REMARK    2  A    between atoms: C_11  and  C_12
REMARK    3  A    between atoms: N_19  and  C_20
REMARK    4  A    between atoms: C_24  and  C_26
REMARK                            x       y       z     vdW  Elec       q    Type
REMARK                         _______ _______ _______ _____ _____    ______ ____
ROOT
ATOM      1  C   UNL     1       5.464   0.547   1.357  0.00  0.00    +0.082 C 
ATOM      2  C   UNL     1       6.689   1.477   1.231  0.00  0.00    +0.024 C 
ATOM      3  C   UNL     1       7.615   0.990   2.377  0.00  0.00    +0.021 C 
ATOM      4  C   UNL     1       7.342  -0.535   2.369  0.00  0.00    +0.110 C 
ATOM      5  N   UNL     1       5.904  -0.660   2.071  0.00  0.00    -0.282 N 
ATOM      6  C   UNL     1       5.122  -1.708   2.399  0.00  0.00    +0.307 C 
ATOM      7  O   UNL     1       3.966  -1.744   2.024  0.00  0.00    -0.252 OA
ATOM      8  N   UNL     1       5.621  -2.714   3.143  0.00  0.00    -0.269 N 
ATOM      9  H   UNL     1       6.561  -2.720   3.383  0.00  0.00    +0.156 HD
ENDROOT
BRANCH   8  10
ATOM     10  C   UNL     1       4.782  -3.752   3.570  0.00  0.00    +0.036 A 
ATOM     11  C   UNL     1       3.756  -4.200   2.746  0.00  0.00    +0.026 A 
ATOM     12  C   UNL     1       2.926  -5.223   3.160  0.00  0.00    +0.041 A 
ATOM     13  C   UNL     1       3.109  -5.809   4.400  0.00  0.00    +0.136 A 
ATOM     14  C   UNL     1       4.138  -5.365   5.236  0.00  0.00    +0.073 A 
ATOM     15  C   UNL     1       4.979  -4.335   4.811  0.00  0.00    +0.039 A 
ATOM     16  F   UNL     1       2.295  -6.809   4.802  0.00  0.00    -0.205 F 
BRANCH  14  17
ATOM     17  C   UNL     1       4.338  -5.987   6.560  0.00  0.00    +0.244 C 
ATOM     18  O   UNL     1       3.607  -6.887   6.926  0.00  0.00    -0.270 OA
ATOM     19  N   UNL     1       5.331  -5.557   7.364  0.00  0.00    -0.325 N 
ATOM     20  H   UNL     1       5.914  -4.838   7.072  0.00  0.00    +0.145 HD
ATOM     21  H   UNL     1       5.462  -5.965   8.234  0.00  0.00    +0.145 HD
ENDBRANCH  14  17
ENDBRANCH   8  10
BRANCH   1  22
ATOM     22  C   UNL     1       4.950   0.171  -0.034  0.00  0.00    +0.058 C 
BRANCH  22  32
ATOM     23  C   UNL     1       6.676   3.590  -3.430  0.00  0.00    +0.001 A 
ATOM     24  C   UNL     1       7.215   2.461  -2.815  0.00  0.00    +0.001 A 
ATOM     25  C   UNL     1       6.486   1.733  -1.926  0.00  0.00    +0.009 A 
ATOM     26  C   UNL     1       5.170   2.122  -1.622  0.00  0.00    -0.015 A 
ATOM     27  C   UNL     1       4.622   3.269  -2.248  0.00  0.00    -0.018 A 
ATOM     28  C   UNL     1       5.406   3.996  -3.160  0.00  0.00    +0.008 A 
ATOM     29  C   UNL     1       3.307   3.659  -1.943  0.00  0.00    +0.008 A 
ATOM     30  C   UNL     1       2.578   2.930  -1.054  0.00  0.00    +0.001 A 
ATOM     31  C   UNL     1       3.116   1.802  -0.439  0.00  0.00    +0.004 A 
ATOM     32  C   UNL     1       4.387   1.395  -0.709  0.00  0.00    -0.038 A 
ENDBRANCH  22  32
ENDBRANCH   1  22
TORSDOF 4
