REMARK  Name = ZINC32507802
REMARK  3 active torsions:
REMARK  status: ('A' for Active; 'I' for Inactive)
REMARK    1  A    between atoms: C_4  and  C_7
REMARK    2  A    between atoms: C_7  and  O_25
REMARK    3  A    between atoms: C_16  and  C_18
REMARK                            x       y       z     vdW  Elec       q    Type
REMARK                         _______ _______ _______ _____ _____    ______ ____
ROOT
ATOM      1  C   UNL     1      -3.275  -0.064  -1.024  0.00  0.00    +0.108 C 
ATOM      2  C   UNL     1      -2.832  -1.523  -1.311  0.00  0.00    +0.060 C 
ATOM      3  C   UNL     1      -1.306  -1.441  -1.058  0.00  0.00    +0.110 C 
ATOM      4  N   UNL     1      -1.162  -0.516   0.086  0.00  0.00    -0.309 N 
ATOM      5  C   UNL     1      -2.347   0.360   0.134  0.00  0.00    +0.146 C 
ATOM      6  C   UNL     1       0.007   0.232  -0.021  0.00  0.00    +0.162 A 
ATOM      7  C   UNL     1       0.992   0.142   0.974  0.00  0.00    +0.157 A 
ATOM      8  N   UNL     1       2.103   0.855   0.870  0.00  0.00    -0.235 NA
ATOM      9  C   UNL     1       2.286   1.651  -0.171  0.00  0.00    +0.143 A 
ATOM     10  C   UNL     1       1.312   1.743  -1.159  0.00  0.00    +0.111 A 
ATOM     11  N   UNL     1       0.192   1.028  -1.060  0.00  0.00    -0.225 NA
ATOM     12  N   UNL     1       0.802  -0.694   2.070  0.00  0.00    -0.340 N 
ATOM     13  H   UNL     1       1.574  -0.764   2.850  0.00  0.00    +0.144 HD
ATOM     14  H   UNL     1      -0.122  -1.286   2.156  0.00  0.00    +0.144 HD
ENDROOT
BRANCH   1  18
ATOM     15  C   UNL     1      -7.367   0.069   0.195  0.00  0.00    +0.000 A 
ATOM     16  C   UNL     1      -6.925   0.881  -0.832  0.00  0.00    +0.000 A 
ATOM     17  C   UNL     1      -5.601   0.838  -1.227  0.00  0.00    +0.006 A 
ATOM     18  C   UNL     1      -4.719  -0.017  -0.594  0.00  0.00    -0.015 A 
ATOM     19  C   UNL     1      -5.162  -0.834   0.430  0.00  0.00    +0.006 A 
ATOM     20  C   UNL     1      -6.485  -0.787   0.827  0.00  0.00    +0.000 A 
ENDBRANCH   1  18
BRANCH  10  21
ATOM     21  C   UNL     1       1.521   2.636  -2.324  0.00  0.00    +0.112 A 
ATOM     22  C   UNL     1       0.624   2.827  -3.394  0.00  0.00    +0.051 A 
ATOM     23  C   UNL     1       1.180   3.715  -4.247  0.00  0.00    +0.105 A 
ATOM     24  N   UNL     1       2.380   4.079  -3.746  0.00  0.00    -0.284 N 
ATOM     25  H   UNL     1       3.008   4.799  -4.292  0.00  0.00    +0.188 HD
ATOM     26  N   UNL     1       2.574   3.397  -2.538  0.00  0.00    -0.172 NA
ENDBRANCH  10  21
BRANCH   1  27
ATOM     27  O   UNL     1      -3.064   0.763  -2.170  0.00  0.00    -0.382 OA
ATOM     28  H   UNL     1      -2.061   0.843  -2.614  0.00  0.00    +0.211 HD
ENDBRANCH   1  27
TORSDOF 3
