REMARK  Name = ZINC14655924
REMARK  9 active torsions:
REMARK  status: ('A' for Active; 'I' for Inactive)
REMARK    1  A    between atoms: C_1  and  C_2
REMARK    2  A    between atoms: C_2  and  C_3
REMARK    3  A    between atoms: C_3  and  C_4
REMARK    4  A    between atoms: C_4  and  N_5
REMARK    5  A    between atoms: C_6  and  N_27
REMARK    6  A    between atoms: C_7  and  N_14
REMARK    7  A    between atoms: N_14  and  C_15
REMARK    8  A    between atoms: C_16  and  C_18
REMARK    9  A    between atoms: C_19  and  C_20
REMARK                            x       y       z     vdW  Elec       q    Type
REMARK                         _______ _______ _______ _____ _____    ______ ____
ROOT
ATOM      1  N   UNL     1      -1.213   2.822  -0.299  0.00  0.00    -0.280 N 
ATOM      2  C   UNL     1      -0.103   3.634  -0.263  0.00  0.00    +0.127 A 
ATOM      3  C   UNL     1       1.133   3.073  -0.015  0.00  0.00    +0.140 A 
ATOM      4  C   UNL     1       1.220   1.683   0.193  0.00  0.00    +0.277 A 
ATOM      5  O   UNL     1       2.300   1.162   0.415  0.00  0.00    -0.266 OA
ATOM      6  N   UNL     1       0.102   0.934   0.148  0.00  0.00    -0.273 N 
ATOM      7  H   UNL     1       0.161  -0.053   0.300  0.00  0.00    +0.173 HD
ATOM      8  C   UNL     1      -1.094   1.497  -0.101  0.00  0.00    +0.331 A 
ATOM      9  O   UNL     1      -2.087   0.795  -0.142  0.00  0.00    -0.246 OA
ENDROOT
BRANCH   3  10
ATOM     10  N   UNL     1       2.290   3.878   0.028  0.00  0.00    -0.264 N 
ATOM     11  C   UNL     1       2.455   4.867   1.097  0.00  0.00    +0.139 C 
ATOM     12  C   UNL     1       3.244   3.739  -0.913  0.00  0.00    +0.244 C 
ATOM     13  O   UNL     1       3.150   2.859  -1.750  0.00  0.00    -0.270 OA
BRANCH  12  14
ATOM     14  C   UNL     1       4.394   4.645  -0.931  0.00  0.00    +0.068 C 
ATOM     15  C   UNL     1       5.348   4.505  -1.873  0.00  0.00    +0.014 C 
BRANCH  15  16
ATOM     16  C   UNL     1       6.504   5.417  -1.890  0.00  0.00    -0.011 A 
ATOM     17  C   UNL     1       6.616   6.429  -0.931  0.00  0.00    +0.009 A 
ATOM     18  C   UNL     1       7.701   7.278  -0.954  0.00  0.00    +0.001 A 
ATOM     19  C   UNL     1       8.680   7.131  -1.922  0.00  0.00    +0.001 A 
ATOM     20  C   UNL     1       8.577   6.134  -2.875  0.00  0.00    +0.016 A 
ATOM     21  C   UNL     1       7.499   5.271  -2.862  0.00  0.00    +0.025 A 
ATOM     22 BR   UNL     1       7.365   3.903  -4.160  0.00  0.00    -0.050 Br
ENDBRANCH  15  16
ENDBRANCH  12  14
ENDBRANCH   3  10
BRANCH   2  23
ATOM     23  N   UNL     1      -0.224   4.987  -0.471  0.00  0.00    -0.343 N 
ATOM     24  H   UNL     1       0.570   5.541  -0.534  0.00  0.00    +0.144 HD
ATOM     25  H   UNL     1      -1.103   5.388  -0.555  0.00  0.00    +0.144 HD
ENDBRANCH   2  23
BRANCH   1  26
ATOM     26  C   UNL     1      -2.532   3.403  -0.561  0.00  0.00    +0.128 C 
BRANCH  26  27
ATOM     27  C   UNL     1      -2.799   3.405  -2.067  0.00  0.00    +0.021 C 
BRANCH  27  29
ATOM     28  C   UNL     1      -4.443   4.014  -3.847  0.00  0.00    +0.004 C 
ATOM     29  C   UNL     1      -4.176   4.012  -2.341  0.00  0.00    -0.002 C 
ENDBRANCH  27  29
ENDBRANCH  26  27
ENDBRANCH   1  26
TORSDOF 7
