REMARK  Name = ZINC46670864
REMARK  13 active torsions:
REMARK  status: ('A' for Active; 'I' for Inactive)
REMARK    1  A    between atoms: C_1  and  C_2
REMARK    2  A    between atoms: C_2  and  C_4
REMARK    3  A    between atoms: C_2  and  N_16
REMARK    4  A    between atoms: C_7  and  O_12
REMARK    5  A    between atoms: C_8  and  O_10
REMARK    6  A    between atoms: O_10  and  C_11
REMARK    7  A    between atoms: O_12  and  C_13
REMARK    8  A    between atoms: C_13  and  C_14
REMARK    9  A    between atoms: C_13  and  C_15
REMARK   10  A    between atoms: N_19  and  N_20
REMARK   11  A    between atoms: N_20  and  C_21
REMARK   12  A    between atoms: C_21  and  N_23
REMARK   13  A    between atoms: N_23  and  C_24
REMARK                            x       y       z     vdW  Elec       q    Type
REMARK                         _______ _______ _______ _____ _____    ______ ____
ROOT
ATOM      1  N   UNL     1      -1.540  -1.560  -0.026  0.00  0.00    -0.292 N 
ATOM      2  C   UNL     1      -2.189  -1.893  -1.159  0.00  0.00    +0.316 C 
ATOM      3  O   UNL     1      -1.717  -1.599  -2.240  0.00  0.00    -0.251 OA
ATOM      4  N   UNL     1      -3.364  -2.552  -1.094  0.00  0.00    -0.219 N 
ATOM      5  H   UNL     1      -1.917  -1.795   0.836  0.00  0.00    +0.151 HD
ATOM      6  H   UNL     1      -3.831  -2.791  -1.909  0.00  0.00    +0.174 HD
ENDROOT
BRANCH   1   8
ATOM      7  C   UNL     1      -0.528   0.659  -0.213  0.00  0.00    +0.033 C 
ATOM      8  C   UNL     1      -0.264  -0.844  -0.097  0.00  0.00    +0.102 C 
BRANCH   8   9
ATOM      9  C   UNL     1       0.536  -1.118   1.151  0.00  0.00    -0.024 A 
ATOM     10  C   UNL     1      -0.098  -1.175   2.378  0.00  0.00    +0.009 A 
ATOM     11  C   UNL     1       0.632  -1.426   3.525  0.00  0.00    +0.050 A 
ATOM     12  C   UNL     1       2.001  -1.623   3.446  0.00  0.00    +0.162 A 
ATOM     13  C   UNL     1       2.639  -1.567   2.211  0.00  0.00    +0.162 A 
ATOM     14  C   UNL     1       1.901  -1.319   1.064  0.00  0.00    +0.054 A 
BRANCH  13  15
ATOM     15  O   UNL     1       3.983  -1.759   2.128  0.00  0.00    -0.491 OA
ATOM     16  C   UNL     1       4.570  -1.687   0.827  0.00  0.00    +0.277 C 
ENDBRANCH  13  15
BRANCH  12  17
ATOM     17  O   UNL     1       2.720  -1.870   4.574  0.00  0.00    -0.486 OA
BRANCH  17  18
ATOM     18  C   UNL     1       2.022  -1.795   5.818  0.00  0.00    +0.167 C 
ATOM     19  C   UNL     1       1.339  -3.135   6.101  0.00  0.00    +0.051 C 
ATOM     20  C   UNL     1       3.012  -1.480   6.941  0.00  0.00    +0.051 C 
ENDBRANCH  17  18
ENDBRANCH  12  17
ENDBRANCH   8   9
ENDBRANCH   1   8
BRANCH   4  21
ATOM     21  N   UNL     1      -3.908  -2.891   0.152  0.00  0.00    -0.245 N 
ATOM     22  H   UNL     1      -3.441  -2.651   0.967  0.00  0.00    +0.172 HD
BRANCH  21  23
ATOM     23  C   UNL     1      -5.082  -3.550   0.217  0.00  0.00    +0.147 C 
ATOM     24  S   UNL     1      -5.748  -3.964   1.739  0.00  0.00    -0.017 S 
BRANCH  23  25
ATOM     25  N   UNL     1      -5.732  -3.882  -0.916  0.00  0.00    -0.323 N 
ATOM     26  H   UNL     1      -5.355  -3.648  -1.778  0.00  0.00    +0.148 HD
BRANCH  25  27
ATOM     27  C   UNL     1      -7.008  -4.599  -0.845  0.00  0.00    +0.072 C 
ATOM     28  C   UNL     1      -6.758  -6.120  -0.799  0.00  0.00    +0.022 C 
ATOM     29  C   UNL     1      -7.910  -6.720  -1.644  0.00  0.00    +0.002 C 
ATOM     30  C   UNL     1      -8.060  -5.693  -2.794  0.00  0.00    +0.002 C 
ATOM     31  C   UNL     1      -7.836  -4.327  -2.114  0.00  0.00    +0.022 C 
ENDBRANCH  25  27
ENDBRANCH  23  25
ENDBRANCH  21  23
ENDBRANCH   4  21
TORSDOF 9
