REMARK  Name = ZINC56851928
REMARK  8 active torsions:
REMARK  status: ('A' for Active; 'I' for Inactive)
REMARK    1  A    between atoms: C_1  and  C_2
REMARK    2  A    between atoms: C_2  and  C_4
REMARK    3  A    between atoms: C_2  and  N_13
REMARK    4  A    between atoms: N_13  and  C_14
REMARK    5  A    between atoms: C_14  and  C_16
REMARK    6  A    between atoms: C_14  and  C_17
REMARK    7  A    between atoms: N_19  and  C_20
REMARK    8  A    between atoms: C_23  and  C_26
REMARK                            x       y       z     vdW  Elec       q    Type
REMARK                         _______ _______ _______ _____ _____    ______ ____
ROOT
ATOM      1  C   UNL     1      -1.899  -0.597   1.383  0.00  0.00    +0.138 C 
ATOM      2  C   UNL     1      -1.482  -1.929   2.009  0.00  0.00    +0.034 C 
ENDROOT
BRANCH   1   3
ATOM      3  C   UNL     1      -3.402  -0.504   1.354  0.00  0.00    +0.234 C 
ATOM      4  O   UNL     1      -3.982  -0.382   0.295  0.00  0.00    -0.274 OA
ATOM      5  N   UNL     1      -4.104  -0.557   2.503  0.00  0.00    -0.284 N 
ATOM      6  H   UNL     1      -3.647  -0.722   3.343  0.00  0.00    +0.155 HD
BRANCH   5   7
ATOM      7  C   UNL     1      -5.486  -0.375   2.486  0.00  0.00    +0.033 A 
ATOM      8  C   UNL     1      -6.236  -0.853   1.416  0.00  0.00    +0.024 A 
ATOM      9  C   UNL     1      -7.601  -0.676   1.395  0.00  0.00    +0.015 A 
ATOM     10  C   UNL     1      -8.233  -0.015   2.452  0.00  0.00    +0.037 A 
ATOM     11  C   UNL     1      -7.477   0.464   3.525  0.00  0.00    +0.015 A 
ATOM     12  C   UNL     1      -6.113   0.279   3.542  0.00  0.00    +0.024 A 
BRANCH  10  13
ATOM     13  C   UNL     1      -9.696   0.178   2.433  0.00  0.00    +0.242 C 
ATOM     14  O   UNL     1     -10.353  -0.238   1.498  0.00  0.00    -0.270 OA
ATOM     15  N   UNL     1     -10.305   0.816   3.453  0.00  0.00    -0.325 N 
ATOM     16  H   UNL     1      -9.781   1.149   4.198  0.00  0.00    +0.145 HD
ATOM     17  H   UNL     1     -11.267   0.943   3.440  0.00  0.00    +0.145 HD
ENDBRANCH  10  13
ENDBRANCH   5   7
ENDBRANCH   1   3
BRANCH   1  18
ATOM     18  N   UNL     1      -1.376  -0.515   0.013  0.00  0.00    -0.299 NA
ATOM     19  H   UNL     1      -1.971   0.058  -0.568  0.00  0.00    +0.123 HD
BRANCH  18  21
ATOM     20  C   UNL     1      -0.006   1.515   0.022  0.00  0.00    +0.029 C 
ATOM     21  C   UNL     1       0.005  -0.015   0.005  0.00  0.00    +0.083 C 
BRANCH  21  22
ATOM     22  C   UNL     1       0.708  -0.498  -1.238  0.00  0.00    -0.010 A 
ATOM     23  C   UNL     1      -0.025  -0.814  -2.366  0.00  0.00    +0.046 A 
ATOM     24  C   UNL     1       0.620  -1.258  -3.508  0.00  0.00    +0.142 A 
ATOM     25  C   UNL     1       2.000  -1.384  -3.518  0.00  0.00    +0.077 A 
ATOM     26  C   UNL     1       2.731  -1.067  -2.389  0.00  0.00    +0.043 A 
ATOM     27  C   UNL     1       2.086  -0.619  -1.250  0.00  0.00    +0.047 A 
ATOM     28 CL   UNL     1       3.005  -0.215   0.167  0.00  0.00    -0.083 Cl
ATOM     29 CL   UNL     1       2.810  -1.941  -4.949  0.00  0.00    -0.081 Cl
ATOM     30  F   UNL     1      -0.096  -1.567  -4.611  0.00  0.00    -0.204 F 
ENDBRANCH  21  22
ENDBRANCH  18  21
ENDBRANCH   1  18
TORSDOF 6
