REMARK  Name = ZINC45592885
REMARK  7 active torsions:
REMARK  status: ('A' for Active; 'I' for Inactive)
REMARK    1  A    between atoms: C_1  and  C_2
REMARK    2  A    between atoms: C_5  and  S_7
REMARK    3  A    between atoms: S_7  and  C_8
REMARK    4  A    between atoms: C_8  and  C_9
REMARK    5  A    between atoms: C_9  and  C_10
REMARK    6  A    between atoms: C_9  and  C_16
REMARK    7  A    between atoms: C_9  and  N_19
REMARK                            x       y       z     vdW  Elec       q    Type
REMARK                         _______ _______ _______ _____ _____    ______ ____
ROOT
ATOM      1  C   UNL     1       0.091  -6.743  -0.466  0.00  0.00    +0.128 C 
ENDROOT
BRANCH   1   2
ATOM      2  C   UNL     1       0.220  -7.487  -1.769  0.00  0.00    -0.018 A 
ATOM      3  C   UNL     1       0.897  -6.913  -2.829  0.00  0.00    +0.006 A 
ATOM      4  C   UNL     1       1.016  -7.596  -4.025  0.00  0.00    +0.000 A 
ATOM      5  C   UNL     1       0.458  -8.853  -4.161  0.00  0.00    +0.000 A 
ATOM      6  C   UNL     1      -0.218  -9.428  -3.101  0.00  0.00    +0.000 A 
ATOM      7  C   UNL     1      -0.333  -8.747  -1.904  0.00  0.00    +0.006 A 
ENDBRANCH   1   2
BRANCH   1   8
ATOM      8  C   UNL     1       1.263  -7.077   0.422  0.00  0.00    +0.236 C 
ATOM      9  O   UNL     1       2.309  -7.444  -0.068  0.00  0.00    -0.274 OA
ATOM     10  N   UNL     1       1.147  -6.967   1.760  0.00  0.00    -0.327 N 
ATOM     11  H   UNL     1       0.310  -6.673   2.152  0.00  0.00    +0.145 HD
ATOM     12  H   UNL     1       1.901  -7.182   2.331  0.00  0.00    +0.145 HD
ENDBRANCH   1   8
BRANCH   1  13
ATOM     13  N   UNL     1      -1.157  -7.137   0.202  0.00  0.00    -0.313 NA
ATOM     14  H   UNL     1      -1.958  -6.924  -0.373  0.00  0.00    +0.119 HD
ATOM     15  H   UNL     1      -1.140  -8.115   0.450  0.00  0.00    +0.119 HD
ENDBRANCH   1  13
BRANCH   1  16
ATOM     16  C   UNL     1       0.070  -5.237  -0.738  0.00  0.00    +0.112 C 
BRANCH  16  17
ATOM     17  S   UNL     1       0.064  -4.338   0.838  0.00  0.00    -0.094 S 
BRANCH  17  22
ATOM     18  C   UNL     1      -0.018   1.503   0.010  0.00  0.00    +0.075 C 
ATOM     19  C   UNL     1       0.002  -0.004   0.002  0.00  0.00    +0.100 A 
ATOM     20  N   UNL     1       0.010  -0.845  -1.012  0.00  0.00    -0.146 NA
ATOM     21  N   UNL     1       0.027  -2.095  -0.849  0.00  0.00    -0.135 NA
ATOM     22  C   UNL     1       0.039  -2.642   0.360  0.00  0.00    +0.159 A 
ATOM     23  S   UNL     1       0.031  -1.162   1.368  0.00  0.00    -0.044 S 
ENDBRANCH  17  22
ENDBRANCH  16  17
ENDBRANCH   1  16
TORSDOF 6
