REMARK  Name = ZINC45626251
REMARK  3 active torsions:
REMARK  status: ('A' for Active; 'I' for Inactive)
REMARK    1  A    between atoms: C_4  and  C_8
REMARK    2  A    between atoms: C_6  and  N_7
REMARK    3  A    between atoms: N_12  and  C_13
REMARK                            x       y       z     vdW  Elec       q    Type
REMARK                         _______ _______ _______ _____ _____    ______ ____
ROOT
ATOM      1  C   UNL     1       3.704  -0.677  -0.005  0.00  0.00    +0.188 A 
ATOM      2  N   UNL     1       3.881  -1.980   0.058  0.00  0.00    -0.108 NA
ATOM      3  N   UNL     1       5.129  -2.270  -0.024  0.00  0.00    -0.022 NA
ATOM      4  N   UNL     1       5.836  -1.200  -0.145  0.00  0.00    -0.039 NA
ATOM      5  N   UNL     1       4.940  -0.116  -0.144  0.00  0.00    -0.191 N 
ENDROOT
BRANCH   5   6
ATOM      6  C   UNL     1       5.250   1.247  -0.257  0.00  0.00    +0.088 A 
ATOM      7  C   UNL     1       4.704   2.160   0.634  0.00  0.00    +0.031 A 
ATOM      8  C   UNL     1       5.011   3.502   0.521  0.00  0.00    +0.022 A 
ATOM      9  C   UNL     1       5.861   3.937  -0.481  0.00  0.00    +0.042 A 
ATOM     10  C   UNL     1       6.407   3.029  -1.371  0.00  0.00    +0.042 A 
ATOM     11  C   UNL     1       6.108   1.684  -1.258  0.00  0.00    +0.068 A 
ATOM     12 CL   UNL     1       6.799   0.544  -2.371  0.00  0.00    -0.081 Cl
ATOM     13 CL   UNL     1       6.244   5.625  -0.621  0.00  0.00    -0.083 Cl
ENDBRANCH   5   6
BRANCH   1  17
ATOM     14  C   UNL     1      -0.012   1.384   0.177  0.00  0.00    +0.024 A 
ATOM     15  C   UNL     1       0.282   0.408   1.110  0.00  0.00    +0.018 A 
ATOM     16  C   UNL     1       1.487  -0.264   1.056  0.00  0.00    +0.029 A 
ATOM     17  C   UNL     1       2.412   0.041   0.055  0.00  0.00    +0.037 A 
ATOM     18  C   UNL     1       2.115   1.026  -0.886  0.00  0.00    +0.035 A 
ATOM     19  C   UNL     1       0.902   1.695  -0.823  0.00  0.00    +0.025 A 
ATOM     20 BR   UNL     1       1.885  -1.597   2.336  0.00  0.00    -0.050 Br
BRANCH  19  21
ATOM     21  N   UNL     1       0.599   2.683  -1.764  0.00  0.00    -0.358 N 
ATOM     22  H   UNL     1      -0.249   3.151  -1.719  0.00  0.00    +0.142 HD
ATOM     23  H   UNL     1       1.238   2.900  -2.461  0.00  0.00    +0.142 HD
ENDBRANCH  19  21
ENDBRANCH   1  17
TORSDOF 3
