REMARK  Name = ZINC40547873
REMARK  9 active torsions:
REMARK  status: ('A' for Active; 'I' for Inactive)
REMARK    1  A    between atoms: C_1  and  C_2
REMARK    2  A    between atoms: C_2  and  O_3
REMARK    3  A    between atoms: O_3  and  C_4
REMARK    4  A    between atoms: C_6  and  C_11
REMARK    5  A    between atoms: C_9  and  O_10
REMARK    6  A    between atoms: C_14  and  C_30
REMARK    7  A    between atoms: N_21  and  C_22
REMARK    8  A    between atoms: C_32  and  C_37
REMARK    9  A    between atoms: C_35  and  O_36
REMARK                            x       y       z     vdW  Elec       q    Type
REMARK                         _______ _______ _______ _____ _____    ______ ____
ROOT
ATOM      1  C   UNL     1       0.823  -4.965   0.000  0.00  0.00    +0.142 C 
ATOM      2  C   UNL     1       0.883  -5.600  -1.362  0.00  0.00    +0.035 A 
ATOM      3  C   UNL     1       1.008  -5.418  -2.744  0.00  0.00    +0.102 A 
ATOM      4  N   UNL     1       0.960  -6.610  -3.304  0.00  0.00    -0.173 NA
ATOM      5  N   UNL     1       0.816  -7.526  -2.414  0.00  0.00    -0.272 N 
ATOM      6  H   UNL     1       0.756  -8.477  -2.598  0.00  0.00    +0.189 HD
ATOM      7  C   UNL     1       0.760  -6.963  -1.171  0.00  0.00    +0.126 A 
ATOM      8  C   UNL     1       0.625  -7.222   0.266  0.00  0.00    +0.266 C 
ATOM      9  O   UNL     1       0.498  -8.325   0.764  0.00  0.00    -0.268 OA
ATOM     10  N   UNL     1       0.661  -6.067   0.957  0.00  0.00    -0.280 N 
ENDROOT
BRANCH  10  11
ATOM     11  C   UNL     1       0.555  -5.932   2.412  0.00  0.00    +0.100 C 
ATOM     12  C   UNL     1      -0.786  -6.518   2.884  0.00  0.00    +0.047 C 
ATOM     13  C   UNL     1      -0.739  -6.649   4.433  0.00  0.00    +0.168 C 
ATOM     14  S   UNL     1       0.984  -7.257   4.668  0.00  0.00    -0.029 S 
ATOM     15  O   UNL     1       1.583  -6.545   5.742  0.00  0.00    -0.174 OA
ATOM     16  O   UNL     1       0.974  -8.678   4.690  0.00  0.00    -0.174 OA
ATOM     17  C   UNL     1       1.726  -6.688   3.085  0.00  0.00    +0.188 C 
ENDBRANCH  10  11
BRANCH   3  18
ATOM     18  C   UNL     1       1.166  -4.121  -3.448  0.00  0.00    +0.044 A 
ATOM     19  C   UNL     1       2.083  -3.181  -2.985  0.00  0.00    +0.017 A 
ATOM     20  C   UNL     1       2.226  -1.976  -3.643  0.00  0.00    -0.050 A 
ATOM     21  C   UNL     1       1.462  -1.699  -4.764  0.00  0.00    +0.007 A 
ATOM     22  C   UNL     1       0.550  -2.626  -5.232  0.00  0.00    +0.046 A 
ATOM     23  C   UNL     1       0.401  -3.841  -4.583  0.00  0.00    +0.126 A 
ATOM     24  C   UNL     1       3.218  -0.959  -3.140  0.00  0.00    +0.044 C 
BRANCH  23  25
ATOM     25  O   UNL     1      -0.491  -4.756  -5.046  0.00  0.00    -0.506 OA
ATOM     26  H   UNL     1      -1.395  -4.620  -4.729  0.00  0.00    +0.292 HD
ENDBRANCH  23  25
ENDBRANCH   3  18
BRANCH   1  29
ATOM     27  C   UNL     1      -1.225  -1.797   0.200  0.00  0.00    +0.162 A 
ATOM     28  C   UNL     1      -0.145  -2.661   0.123  0.00  0.00    +0.055 A 
ATOM     29  C   UNL     1      -0.353  -4.027   0.084  0.00  0.00    -0.019 A 
ATOM     30  C   UNL     1      -1.639  -4.534   0.122  0.00  0.00    +0.009 A 
ATOM     31  C   UNL     1      -2.721  -3.678   0.199  0.00  0.00    +0.049 A 
ATOM     32  C   UNL     1      -2.519  -2.308   0.244  0.00  0.00    +0.158 A 
BRANCH  32  33
ATOM     33  O   UNL     1      -3.582  -1.464   0.326  0.00  0.00    -0.503 OA
ATOM     34  H   UNL     1      -3.933  -1.189  -0.533  0.00  0.00    +0.292 HD
ENDBRANCH  32  33
BRANCH  27  35
ATOM     35  O   UNL     1      -1.022  -0.453   0.238  0.00  0.00    -0.489 OA
BRANCH  35  37
ATOM     36  C   UNL     1       0.361   1.529   0.243  0.00  0.00    +0.048 C 
ATOM     37  C   UNL     1       0.333   0.000   0.189  0.00  0.00    +0.226 C 
ENDBRANCH  35  37
ENDBRANCH  27  35
ENDBRANCH   1  29
TORSDOF 7
