REMARK  Name = ZINC59598655
REMARK  6 active torsions:
REMARK  status: ('A' for Active; 'I' for Inactive)
REMARK    1  A    between atoms: C_2  and  C_3
REMARK    2  A    between atoms: C_3  and  O_4
REMARK    3  A    between atoms: O_4  and  C_5
REMARK    4  A    between atoms: C_8  and  C_11
REMARK    5  A    between atoms: N_12  and  N_13
REMARK    6  A    between atoms: N_16  and  C_17
REMARK                            x       y       z     vdW  Elec       q    Type
REMARK                         _______ _______ _______ _____ _____    ______ ____
ROOT
ATOM      1  N   UNL     1       3.338   9.431   0.021  0.00  0.00    -0.191 N 
ATOM      2  C   UNL     1       4.576   9.963  -0.001  0.00  0.00    +0.323 C 
ATOM      3  O   UNL     1       4.719  11.171  -0.004  0.00  0.00    -0.251 OA
ATOM      4  N   UNL     1       5.656   9.157  -0.018  0.00  0.00    -0.268 N 
ATOM      5  H   UNL     1       2.561  10.011   0.034  0.00  0.00    +0.179 HD
ATOM      6  H   UNL     1       5.545   8.196   0.053  0.00  0.00    +0.156 HD
ENDROOT
BRANCH   4   7
ATOM      7  C   UNL     1       6.938   9.706  -0.138  0.00  0.00    +0.035 A 
ATOM      8  C   UNL     1       7.918   9.034  -0.857  0.00  0.00    +0.024 A 
ATOM      9  C   UNL     1       9.182   9.579  -0.974  0.00  0.00    +0.017 A 
ATOM     10  C   UNL     1       9.472  10.793  -0.376  0.00  0.00    +0.018 A 
ATOM     11  C   UNL     1       8.497  11.464   0.341  0.00  0.00    +0.017 A 
ATOM     12  C   UNL     1       7.230  10.927   0.456  0.00  0.00    +0.024 A 
ATOM     13 BR   UNL     1      11.204  11.535  -0.539  0.00  0.00    -0.050 Br
ENDBRANCH   4   7
BRANCH   1  15
ATOM     14  C   UNL     1       1.982   7.527   0.047  0.00  0.00    +0.138 C 
ATOM     15  N   UNL     1       3.174   8.040   0.026  0.00  0.00    -0.186 NA
BRANCH  14  19
ATOM     16  C   UNL     1       1.484   3.311   0.059  0.00  0.00    +0.122 A 
ATOM     17  C   UNL     1       0.370   4.140   0.078  0.00  0.00    +0.046 A 
ATOM     18  C   UNL     1       0.527   5.509   0.074  0.00  0.00    +0.013 A 
ATOM     19  C   UNL     1       1.809   6.063   0.051  0.00  0.00    -0.005 A 
ATOM     20  C   UNL     1       2.927   5.225   0.033  0.00  0.00    +0.013 A 
ATOM     21  C   UNL     1       2.761   3.857   0.042  0.00  0.00    +0.046 A 
BRANCH  16  22
ATOM     22  O   UNL     1       1.325   1.962   0.063  0.00  0.00    -0.480 OA
BRANCH  22  23
ATOM     23  C   UNL     1      -0.016   1.467   0.081  0.00  0.00    +0.317 C 
BRANCH  23  25
ATOM     24  C   UNL     1       0.021  -1.179   0.084  0.00  0.00    +0.007 C 
ATOM     25  C   UNL     1       0.004  -0.005   0.082  0.00  0.00    -0.065 C 
ENDBRANCH  23  25
ENDBRANCH  22  23
ENDBRANCH  16  22
ENDBRANCH  14  19
ENDBRANCH   1  15
TORSDOF 6
