REMARK  Name = ZINC06552777
REMARK  9 active torsions:
REMARK  status: ('A' for Active; 'I' for Inactive)
REMARK    1  A    between atoms: C_1  and  C_2
REMARK    2  A    between atoms: C_2  and  C_3
REMARK    3  A    between atoms: C_2  and  C_4
REMARK    4  A    between atoms: C_7  and  C_10
REMARK    5  A    between atoms: C_10  and  C_28
REMARK    6  A    between atoms: N_13  and  C_17
REMARK    7  A    between atoms: C_17  and  C_18
REMARK    8  A    between atoms: N_20  and  C_21
REMARK    9  A    between atoms: C_21  and  C_26
REMARK                            x       y       z     vdW  Elec       q    Type
REMARK                         _______ _______ _______ _____ _____    ______ ____
ROOT
ATOM      1  C   UNL     1       2.707  -1.868  -4.752  0.00  0.00    +0.135 C 
ATOM      2  C   UNL     1       3.292  -3.248  -4.526  0.00  0.00    +0.251 C 
ATOM      3  O   UNL     1       4.134  -3.562  -3.712  0.00  0.00    -0.272 OA
ATOM      4  N   UNL     1       2.682  -4.053  -5.418  0.00  0.00    -0.215 N 
ATOM      5  C   UNL     1       1.801  -3.381  -6.168  0.00  0.00    +0.310 C 
ATOM      6  O   UNL     1       1.128  -3.893  -7.041  0.00  0.00    -0.252 OA
ATOM      7  N   UNL     1       1.744  -2.076  -5.848  0.00  0.00    -0.281 N 
ATOM      8  C   UNL     1       3.796  -0.880  -5.173  0.00  0.00    +0.047 C 
ATOM      9  H   UNL     1       1.179  -1.403  -6.258  0.00  0.00    +0.152 HD
ENDROOT
BRANCH   1  13
ATOM     10  C   UNL     1       0.707  -0.490  -1.238  0.00  0.00    -0.045 A 
ATOM     11  C   UNL     1       0.222  -0.151  -2.487  0.00  0.00    +0.004 A 
ATOM     12  C   UNL     1       0.869  -0.597  -3.624  0.00  0.00    +0.006 A 
ATOM     13  C   UNL     1       2.002  -1.381  -3.513  0.00  0.00    -0.015 A 
ATOM     14  C   UNL     1       2.488  -1.720  -2.263  0.00  0.00    +0.006 A 
ATOM     15  C   UNL     1       1.843  -1.270  -1.126  0.00  0.00    +0.004 A 
BRANCH  10  17
ATOM     16  C   UNL     1      -0.019   1.526   0.010  0.00  0.00    +0.012 C 
ATOM     17  C   UNL     1       0.002  -0.004   0.002  0.00  0.00    +0.013 C 
ATOM     18  C   UNL     1      -1.433  -0.534   0.013  0.00  0.00    +0.012 C 
ENDBRANCH  10  17
ENDBRANCH   1  13
BRANCH   4  19
ATOM     19  C   UNL     1       2.950  -5.488  -5.550  0.00  0.00    +0.213 C 
BRANCH  19  20
ATOM     20  C   UNL     1       2.022  -6.257  -4.645  0.00  0.00    +0.232 C 
ATOM     21  O   UNL     1       1.216  -5.666  -3.958  0.00  0.00    -0.274 OA
ATOM     22  N   UNL     1       2.087  -7.603  -4.600  0.00  0.00    -0.296 N 
ATOM     23  H   UNL     1       2.732  -8.075  -5.149  0.00  0.00    +0.150 HD
BRANCH  22  24
ATOM     24  C   UNL     1       1.185  -8.351  -3.721  0.00  0.00    +0.121 C 
ATOM     25  C   UNL     1       1.454  -7.979  -2.248  0.00  0.00    +0.041 C 
ATOM     26  C   UNL     1       1.268  -9.311  -1.480  0.00  0.00    +0.003 C 
ATOM     27  C   UNL     1       1.879 -10.353  -2.450  0.00  0.00    +0.003 C 
ATOM     28  C   UNL     1       1.456  -9.860  -3.849  0.00  0.00    +0.041 C 
BRANCH  24  29
ATOM     29  C   UNL     1      -0.215  -8.058  -4.069  0.00  0.00    +0.088 C 
ATOM     30  N   UNL     1      -1.295  -7.833  -4.338  0.00  0.00    -0.194 NA
ENDBRANCH  24  29
ENDBRANCH  22  24
ENDBRANCH  19  20
ENDBRANCH   4  19
TORSDOF 6
