REMARK  Name = ZINC28294027
REMARK  12 active torsions:
REMARK  status: ('A' for Active; 'I' for Inactive)
REMARK    1  A    between atoms: C_1  and  C_2
REMARK    2  A    between atoms: C_2  and  N_3
REMARK    3  A    between atoms: N_3  and  C_4
REMARK    4  A    between atoms: C_4  and  C_5
REMARK    5  A    between atoms: N_8  and  C_9
REMARK    6  A    between atoms: C_9  and  C_11
REMARK    7  A    between atoms: C_9  and  N_15
REMARK    8  A    between atoms: N_15  and  C_16
REMARK    9  A    between atoms: C_16  and  N_18
REMARK   10  A    between atoms: N_18  and  C_19
REMARK   11  A    between atoms: C_22  and  N_25
REMARK   12  A    between atoms: C_26  and  C_28
REMARK                            x       y       z     vdW  Elec       q    Type
REMARK                         _______ _______ _______ _____ _____    ______ ____
ROOT
ATOM      1  N   UNL     1      -5.875   5.852  -0.172  0.00  0.00    -0.305 N 
ATOM      2  H   UNL     1      -6.842   5.334  -0.097  0.00  0.00    +0.150 HD
ENDROOT
BRANCH   1   3
ATOM      3  C   UNL     1      -4.726   5.152  -0.086  0.00  0.00    +0.136 C 
ATOM      4  S   UNL     1      -3.221   5.958  -0.202  0.00  0.00    -0.019 S 
BRANCH   3   5
ATOM      5  N   UNL     1      -4.763   3.816   0.091  0.00  0.00    -0.297 N 
ATOM      6  H   UNL     1      -5.729   3.306   0.227  0.00  0.00    +0.154 HD
BRANCH   5   7
ATOM      7  C   UNL     1      -3.573   3.078   0.101  0.00  0.00    +0.033 A 
ATOM      8  C   UNL     1      -2.471   3.548   0.802  0.00  0.00    +0.025 A 
ATOM      9  C   UNL     1      -1.298   2.820   0.813  0.00  0.00    +0.025 A 
ATOM     10  C   UNL     1      -1.221   1.617   0.123  0.00  0.00    +0.033 A 
ATOM     11  C   UNL     1      -2.322   1.150  -0.582  0.00  0.00    +0.025 A 
ATOM     12  C   UNL     1      -3.496   1.875  -0.589  0.00  0.00    +0.025 A 
BRANCH  10  13
ATOM     13  N   UNL     1      -0.030   0.879   0.133  0.00  0.00    -0.286 N 
ATOM     14  C   UNL     1       0.733   0.847   1.243  0.00  0.00    +0.214 C 
ATOM     15  O   UNL     1       0.414   1.496   2.218  0.00  0.00    -0.276 OA
ATOM     16  C   UNL     1       1.983   0.006   1.274  0.00  0.00    +0.109 C 
ATOM     17  H   UNL     1       0.281   0.325  -0.765  0.00  0.00    +0.155 HD
ENDBRANCH  10  13
ENDBRANCH   5   7
ENDBRANCH   3   5
ENDBRANCH   1   3
BRANCH   1  18
ATOM     18  C   UNL     1      -5.834   7.304  -0.364  0.00  0.00    +0.212 C 
BRANCH  18  22
ATOM     19  N   UNL     1      -5.551   8.289  -3.895  0.00  0.00    -0.286 N 
ATOM     20  C   UNL     1      -5.227   7.995  -2.620  0.00  0.00    +0.304 C 
ATOM     21  O   UNL     1      -4.069   8.066  -2.255  0.00  0.00    -0.253 OA
ATOM     22  N   UNL     1      -6.186   7.623  -1.750  0.00  0.00    -0.277 N 
ATOM     23  H   UNL     1      -7.234   7.559  -2.080  0.00  0.00    +0.152 HD
BRANCH  19  25
ATOM     24  C   UNL     1      -7.632   9.553  -4.119  0.00  0.00    +0.024 C 
ATOM     25  C   UNL     1      -6.946   8.203  -4.335  0.00  0.00    +0.106 C 
ENDBRANCH  19  25
BRANCH  19  26
ATOM     26  C   UNL     1      -4.508   8.693  -4.841  0.00  0.00    +0.106 C 
ATOM     27  C   UNL     1      -3.944   7.454  -5.539  0.00  0.00    +0.024 C 
ENDBRANCH  19  26
ENDBRANCH  18  22
BRANCH  18  28
ATOM     28  C   UNL     1      -6.833   7.972   0.583  0.00  0.00    +0.225 C 
ATOM     29 CL   UNL     1      -6.400   7.579   2.288  0.00  0.00    -0.080 Cl
ATOM     30 CL   UNL     1      -6.784   9.758   0.346  0.00  0.00    -0.080 Cl
ATOM     31 CL   UNL     1      -8.494   7.365   0.230  0.00  0.00    -0.080 Cl
ENDBRANCH  18  28
ENDBRANCH   1  18
TORSDOF 9
