REMARK  Name = ZINC39361852
REMARK  10 active torsions:
REMARK  status: ('A' for Active; 'I' for Inactive)
REMARK    1  A    between atoms: C_1  and  C_2
REMARK    2  A    between atoms: C_5  and  N_8
REMARK    3  A    between atoms: C_9  and  C_11
REMARK    4  A    between atoms: C_11  and  S_12
REMARK    5  A    between atoms: S_12  and  C_13
REMARK    6  A    between atoms: C_16  and  C_27
REMARK    7  A    between atoms: N_18  and  C_19
REMARK    8  A    between atoms: C_21  and  C_26
REMARK    9  A    between atoms: C_24  and  C_25
REMARK   10  A    between atoms: C_27  and  C_28
REMARK                            x       y       z     vdW  Elec       q    Type
REMARK                         _______ _______ _______ _____ _____    ______ ____
ROOT
ATOM      1  C   UNL     1       0.880  -9.329   2.744  0.00  0.00    +0.180 C 
ATOM      2  N   UNL     1       0.807 -10.005   1.648  0.00  0.00    -0.162 NA
ATOM      3  N   UNL     1       0.562 -11.361   1.897  0.00  0.00    -0.246 N 
ATOM      4  C   UNL     1       0.478 -11.501   3.361  0.00  0.00    +0.187 C 
ATOM      5  N   UNL     1       0.701 -10.133   3.860  0.00  0.00    -0.258 N 
ATOM      6  H   UNL     1       0.466 -12.066   1.238  0.00  0.00    +0.170 HD
ENDROOT
BRANCH   5   7
ATOM      7  C   UNL     1       0.724  -9.725   5.197  0.00  0.00    +0.041 A 
ATOM      8  C   UNL     1       1.934  -9.620   5.871  0.00  0.00    +0.027 A 
ATOM      9  C   UNL     1       1.953  -9.217   7.192  0.00  0.00    -0.049 A 
ATOM     10  C   UNL     1       0.770  -8.917   7.842  0.00  0.00    +0.004 A 
ATOM     11  C   UNL     1      -0.436  -9.020   7.174  0.00  0.00    +0.005 A 
ATOM     12  C   UNL     1      -0.462  -9.418   5.851  0.00  0.00    -0.029 A 
ATOM     13  C   UNL     1      -1.776  -9.524   5.122  0.00  0.00    +0.045 C 
ATOM     14  C   UNL     1       3.265  -9.102   7.925  0.00  0.00    +0.044 C 
ENDBRANCH   5   7
BRANCH   1  15
ATOM     15  S   UNL     1       1.178  -7.594   2.815  0.00  0.00    -0.079 S 
BRANCH  15  16
ATOM     16  C   UNL     1       1.325  -7.102   1.075  0.00  0.00    +0.173 C 
BRANCH  16  18
ATOM     17  N   UNL     1       1.730  -5.027  -0.209  0.00  0.00    -0.285 N 
ATOM     18  C   UNL     1       1.585  -5.620   0.993  0.00  0.00    +0.227 C 
ATOM     19  O   UNL     1       1.664  -4.960   2.008  0.00  0.00    -0.275 OA
ATOM     20  H   UNL     1       1.597  -5.539  -1.022  0.00  0.00    +0.155 HD
BRANCH  17  25
ATOM     21  C   UNL     1       3.123   0.464  -0.515  0.00  0.00    +0.044 C 
ATOM     22  C   UNL     1       2.753  -0.995  -0.434  0.00  0.00    -0.050 A 
ATOM     23  C   UNL     1       3.235  -1.772   0.604  0.00  0.00    +0.005 A 
ATOM     24  C   UNL     1       2.898  -3.109   0.681  0.00  0.00    +0.023 A 
ATOM     25  C   UNL     1       2.074  -3.673  -0.284  0.00  0.00    +0.033 A 
ATOM     26  C   UNL     1       1.591  -2.889  -1.324  0.00  0.00    +0.023 A 
ATOM     27  C   UNL     1       1.928  -1.552  -1.393  0.00  0.00    +0.005 A 
ENDBRANCH  17  25
ENDBRANCH  16  18
ENDBRANCH  15  16
ENDBRANCH   1  15
BRANCH   4  28
ATOM     28  C   UNL     1       1.570 -12.442   3.873  0.00  0.00    +0.097 C 
BRANCH  28  29
ATOM     29  C   UNL     1       1.383 -13.808   3.265  0.00  0.00    +0.029 A 
ATOM     30  N   UNL     1       0.520 -14.703   3.837  0.00  0.00    -0.311 N 
ATOM     31  C   UNL     1       0.345 -15.924   3.301  0.00  0.00    +0.327 A 
ATOM     32  O   UNL     1      -0.426 -16.704   3.825  0.00  0.00    -0.247 OA
ATOM     33  N   UNL     1       1.012 -16.295   2.192  0.00  0.00    -0.275 N 
ATOM     34  C   UNL     1       1.871 -15.442   1.598  0.00  0.00    +0.254 A 
ATOM     35  O   UNL     1       2.474 -15.777   0.595  0.00  0.00    -0.268 OA
ATOM     36  C   UNL     1       2.061 -14.152   2.149  0.00  0.00    +0.091 A 
ATOM     37  H   UNL     1       0.874 -17.180   1.819  0.00  0.00    +0.173 HD
ATOM     38  H   UNL     1       0.030 -14.454   4.636  0.00  0.00    +0.170 HD
ENDBRANCH  28  29
ENDBRANCH   4  28
TORSDOF 7
