REMARK  Name = ZINC35230712
REMARK  12 active torsions:
REMARK  status: ('A' for Active; 'I' for Inactive)
REMARK    1  A    between atoms: C_1  and  C_2
REMARK    2  A    between atoms: C_2  and  C_3
REMARK    3  A    between atoms: C_3  and  C_4
REMARK    4  A    between atoms: C_4  and  N_5
REMARK    5  A    between atoms: N_5  and  C_6
REMARK    6  A    between atoms: C_6  and  C_7
REMARK    7  A    between atoms: C_21  and  C_23
REMARK    8  A    between atoms: C_25  and  O_31
REMARK    9  A    between atoms: C_28  and  O_29
REMARK   10  A    between atoms: O_29  and  C_30
REMARK   11  A    between atoms: O_31  and  C_32
REMARK   12  A    between atoms: C_33  and  C_35
REMARK                            x       y       z     vdW  Elec       q    Type
REMARK                         _______ _______ _______ _____ _____    ______ ____
ROOT
ATOM      1  C   UNL     1      -3.190  -4.353  -1.807  0.00  0.00    +0.238 C 
ATOM      2  O   UNL     1      -3.528  -3.226  -1.513  0.00  0.00    -0.273 OA
ATOM      3  N   UNL     1      -3.534  -4.870  -3.004  0.00  0.00    -0.255 N 
ATOM      4  C   UNL     1      -4.192  -4.070  -3.948  0.00  0.00    +0.061 A 
ATOM      5  C   UNL     1      -5.013  -3.030  -3.540  0.00  0.00    +0.025 A 
ATOM      6  C   UNL     1      -5.648  -2.242  -4.482  0.00  0.00    +0.002 A 
ATOM      7  C   UNL     1      -5.469  -2.483  -5.832  0.00  0.00    +0.002 A 
ATOM      8  C   UNL     1      -4.656  -3.522  -6.250  0.00  0.00    +0.028 A 
ATOM      9  C   UNL     1      -4.022  -4.316  -5.314  0.00  0.00    +0.068 A 
ATOM     10  N   UNL     1      -3.209  -5.395  -5.689  0.00  0.00    -0.316 N 
ATOM     11  C   UNL     1      -2.692  -5.721  -6.897  0.00  0.00    +0.092 A 
ATOM     12  C   UNL     1      -1.965  -6.852  -6.753  0.00  0.00    +0.020 A 
ATOM     13  C   UNL     1      -2.040  -7.237  -5.397  0.00  0.00    +0.025 A 
ATOM     14  C   UNL     1      -2.804  -6.338  -4.768  0.00  0.00    +0.049 A 
ATOM     15  C   UNL     1      -3.212  -6.271  -3.320  0.00  0.00    +0.162 C 
ENDROOT
BRANCH  15  16
ATOM     16  C   UNL     1      -4.425  -7.137  -3.095  0.00  0.00    +0.024 A 
ATOM     17  C   UNL     1      -5.690  -6.587  -3.171  0.00  0.00    +0.055 A 
ATOM     18  C   UNL     1      -6.806  -7.383  -2.965  0.00  0.00    +0.121 A 
ATOM     19  C   UNL     1      -6.653  -8.732  -2.682  0.00  0.00    +0.049 A 
ATOM     20  C   UNL     1      -5.388  -9.282  -2.606  0.00  0.00    +0.049 A 
ATOM     21  C   UNL     1      -4.272  -8.487  -2.817  0.00  0.00    +0.126 A 
BRANCH  21  22
ATOM     22  O   UNL     1      -3.027  -9.029  -2.748  0.00  0.00    -0.495 OA
ATOM     23  C   UNL     1      -2.943 -10.426  -2.458  0.00  0.00    +0.277 C 
ENDBRANCH  21  22
BRANCH  18  24
ATOM     24  O   UNL     1      -8.051  -6.841  -3.039  0.00  0.00    -0.495 OA
ATOM     25  C   UNL     1      -9.156  -7.720  -2.816  0.00  0.00    +0.277 C 
ENDBRANCH  18  24
ENDBRANCH  15  16
BRANCH   1  26
ATOM     26  C   UNL     1      -2.385  -5.176  -0.835  0.00  0.00    +0.204 C 
BRANCH  26  27
ATOM     27  N   UNL     1      -2.043  -4.359   0.332  0.00  0.00    -0.288 N 
ATOM     28  C   UNL     1      -0.955  -3.564   0.302  0.00  0.00    +0.254 C 
ATOM     29  O   UNL     1      -0.614  -2.962   1.304  0.00  0.00    -0.269 OA
BRANCH  28  30
ATOM     30  C   UNL     1      -0.183  -3.424  -0.936  0.00  0.00    +0.074 A 
ATOM     31  C   UNL     1       1.011  -2.753  -1.150  0.00  0.00    +0.021 A 
ATOM     32  C   UNL     1       1.500  -2.798  -2.434  0.00  0.00    +0.008 A 
ATOM     33  C   UNL     1       0.803  -3.475  -3.380  0.00  0.00    +0.046 A 
ATOM     34  S   UNL     1      -0.531  -4.078  -2.557  0.00  0.00    -0.092 S 
ENDBRANCH  28  30
BRANCH  27  35
ATOM     35  C   UNL     1      -2.885  -4.405   1.530  0.00  0.00    +0.108 C 
BRANCH  35  36
ATOM     36  C   UNL     1      -2.453  -5.579   2.411  0.00  0.00    +0.019 C 
BRANCH  36  38
ATOM     37  C   UNL     1      -2.901  -6.801   4.544  0.00  0.00    +0.004 C 
ATOM     38  C   UNL     1      -3.332  -5.627   3.663  0.00  0.00    -0.002 C 
ENDBRANCH  36  38
ENDBRANCH  35  36
ENDBRANCH  27  35
ENDBRANCH  26  27
ENDBRANCH   1  26
TORSDOF 9
