REMARK  Name = ZINC59894579
REMARK  6 active torsions:
REMARK  status: ('A' for Active; 'I' for Inactive)
REMARK    1  A    between atoms: C_1  and  C_2
REMARK    2  A    between atoms: C_2  and  C_4
REMARK    3  A    between atoms: C_2  and  N_14
REMARK    4  A    between atoms: C_7  and  N_10
REMARK    5  A    between atoms: C_15  and  C_17
REMARK    6  A    between atoms: C_23  and  C_25
REMARK                            x       y       z     vdW  Elec       q    Type
REMARK                         _______ _______ _______ _____ _____    ______ ____
ROOT
ATOM      1  N   UNL     1       0.737  -0.997  -1.290  0.00  0.00    -0.307 N 
ATOM      2  C   UNL     1      -0.035  -1.070  -2.393  0.00  0.00    +0.234 C 
ATOM      3  O   UNL     1      -1.209  -0.774  -2.332  0.00  0.00    -0.274 OA
ATOM      4  H   UNL     1       1.676  -1.234  -1.338  0.00  0.00    +0.149 HD
ENDROOT
BRANCH   2   5
ATOM      5  C   UNL     1       0.562  -1.520  -3.701  0.00  0.00    +0.162 C 
ATOM      6  C   UNL     1       1.091  -2.963  -3.569  0.00  0.00    +0.033 C 
ATOM      7  C   UNL     1      -0.070  -3.814  -4.149  0.00  0.00    +0.021 C 
ATOM      8  C   UNL     1      -0.591  -2.896  -5.283  0.00  0.00    +0.108 C 
ATOM      9  N   UNL     1      -0.471  -1.524  -4.747  0.00  0.00    -0.289 N 
ATOM     10  C   UNL     1      -1.189  -0.456  -5.147  0.00  0.00    +0.222 C 
ATOM     11  O   UNL     1      -0.946   0.642  -4.693  0.00  0.00    -0.275 OA
BRANCH  10  12
ATOM     12  C   UNL     1      -2.294  -0.626  -6.157  0.00  0.00    +0.048 C 
ATOM     13  C   UNL     1      -3.390  -1.517  -5.570  0.00  0.00    +0.019 C 
ATOM     14  C   UNL     1      -4.512  -1.689  -6.596  0.00  0.00    -0.009 C 
ATOM     15  C   UNL     1      -5.099  -0.320  -6.944  0.00  0.00    +0.007 C 
ATOM     16  C   UNL     1      -4.003   0.571  -7.532  0.00  0.00    -0.009 C 
ATOM     17  C   UNL     1      -2.881   0.743  -6.506  0.00  0.00    +0.019 C 
ATOM     18  C   UNL     1      -3.441  -0.080  -8.798  0.00  0.00    +0.007 C 
ATOM     19  C   UNL     1      -2.853  -1.450  -8.449  0.00  0.00    -0.009 C 
ATOM     20  C   UNL     1      -3.950  -2.340  -7.861  0.00  0.00    +0.007 C 
ATOM     21  C   UNL     1      -1.731  -1.277  -7.423  0.00  0.00    +0.019 C 
ENDBRANCH  10  12
ENDBRANCH   2   5
BRANCH   1  23
ATOM     22  C   UNL     1       0.169   0.968   0.051  0.00  0.00    +0.033 C 
ATOM     23  C   UNL     1       0.156  -0.561  -0.018  0.00  0.00    +0.100 C 
BRANCH  23  24
ATOM     24  C   UNL     1       0.966  -1.121   1.123  0.00  0.00    -0.027 A 
ATOM     25  C   UNL     1       2.346  -1.158   1.037  0.00  0.00    +0.007 A 
ATOM     26  C   UNL     1       3.091  -1.671   2.081  0.00  0.00    +0.023 A 
ATOM     27  C   UNL     1       2.453  -2.151   3.217  0.00  0.00    +0.035 A 
ATOM     28  C   UNL     1       1.067  -2.113   3.300  0.00  0.00    +0.023 A 
ATOM     29  C   UNL     1       0.328  -1.593   2.256  0.00  0.00    +0.007 A 
BRANCH  27  30
ATOM     30  N   UNL     1       3.205  -2.672   4.276  0.00  0.00    -0.270 N 
ATOM     31  C   UNL     1       4.420  -2.159   4.556  0.00  0.00    +0.301 C 
ATOM     32  O   UNL     1       4.821  -1.183   3.953  0.00  0.00    -0.253 OA
ATOM     33  N   UNL     1       5.189  -2.729   5.505  0.00  0.00    -0.313 N 
ATOM     34  H   UNL     1       2.852  -3.402   4.808  0.00  0.00    +0.156 HD
ATOM     35  H   UNL     1       4.868  -3.508   5.986  0.00  0.00    +0.146 HD
ATOM     36  H   UNL     1       6.063  -2.360   5.707  0.00  0.00    +0.146 HD
ENDBRANCH  27  30
ENDBRANCH  23  24
ENDBRANCH   1  23
TORSDOF 5
