REMARK  Name = ZINC13808067
REMARK  3 active torsions:
REMARK  status: ('A' for Active; 'I' for Inactive)
REMARK    1  A    between atoms: C_3  and  S_6
REMARK    2  A    between atoms: S_6  and  N_9
REMARK    3  A    between atoms: C_10  and  N_11
REMARK                            x       y       z     vdW  Elec       q    Type
REMARK                         _______ _______ _______ _____ _____    ______ ____
ROOT
ATOM      1  S   UNL     1       4.001   1.932  -0.026  0.00  0.00    +0.108 S 
ATOM      2  O   UNL     1       4.799   0.900  -0.590  0.00  0.00    -0.146 OA
ATOM      3  O   UNL     1       3.957   3.244  -0.570  0.00  0.00    -0.146 OA
ENDROOT
BRANCH   1   6
ATOM      4  C   UNL     1      -0.016   1.351   0.009  0.00  0.00    +0.010 A 
ATOM      5  C   UNL     1       1.183   2.038   0.002  0.00  0.00    +0.037 A 
ATOM      6  C   UNL     1       2.343   1.336  -0.013  0.00  0.00    +0.150 A 
ATOM      7  S   UNL     1       1.754  -0.349  -0.017  0.00  0.00    -0.076 S 
ATOM      8  C   UNL     1       0.002  -0.004   0.002  0.00  0.00    +0.047 A 
ENDBRANCH   1   6
BRANCH   1   9
ATOM      9  N   UNL     1       4.477   2.089   1.552  0.00  0.00    -0.091 NA
ATOM     10  C   UNL     1       5.676   2.518   1.831  0.00  0.00    +0.233 C 
ATOM     11  N   UNL     1       6.071   2.648   3.142  0.00  0.00    -0.367 N 
ATOM     12  H   UNL     1       5.458   2.422   3.858  0.00  0.00    +0.159 HD
ATOM     13  H   UNL     1       6.963   2.967   3.349  0.00  0.00    +0.159 HD
BRANCH  10  14
ATOM     14  N   UNL     1       6.545   2.839   0.816  0.00  0.00    -0.266 NA
ATOM     15  H   UNL     1       7.437   3.157   1.024  0.00  0.00    +0.190 HD
ENDBRANCH  10  14
ENDBRANCH   1   9
TORSDOF 3
