REMARK  Name = ZINC02858349
REMARK  10 active torsions:
REMARK  status: ('A' for Active; 'I' for Inactive)
REMARK    1  A    between atoms: C_1  and  O_2
REMARK    2  A    between atoms: O_2  and  C_3
REMARK    3  A    between atoms: C_3  and  C_5
REMARK    4  A    between atoms: C_10  and  N_14
REMARK    5  A    between atoms: N_14  and  C_15
REMARK    6  A    between atoms: C_15  and  N_17
REMARK    7  A    between atoms: N_17  and  N_18
REMARK    8  A    between atoms: N_18  and  C_19
REMARK    9  A    between atoms: C_19  and  N_21
REMARK   10  A    between atoms: N_21  and  C_22
REMARK                            x       y       z     vdW  Elec       q    Type
REMARK                         _______ _______ _______ _____ _____    ______ ____
ROOT
ATOM      1  N   UNL     1       0.085  -2.725  -0.013  0.00  0.00    -0.296 N 
ATOM      2  H   UNL     1      -0.727  -2.232  -0.210  0.00  0.00    +0.154 HD
ENDROOT
BRANCH   1   8
ATOM      3  C   UNL     1      -0.490  -8.776  -1.710  0.00  0.00    +0.116 A 
ATOM      4  C   UNL     1       0.091  -8.310  -0.569  0.00  0.00    +0.070 A 
ATOM      5  C   UNL     1       0.146  -6.925  -0.326  0.00  0.00    +0.008 A 
ATOM      6  C   UNL     1       0.705  -6.253   0.793  0.00  0.00    +0.012 A 
ATOM      7  C   UNL     1       0.676  -4.900   0.877  0.00  0.00    +0.024 A 
ATOM      8  C   UNL     1       0.101  -4.118  -0.127  0.00  0.00    +0.034 A 
ATOM      9  C   UNL     1      -0.461  -4.737  -1.234  0.00  0.00    +0.039 A 
ATOM     10  C   UNL     1      -0.431  -6.110  -1.329  0.00  0.00    +0.023 A 
ATOM     11  S   UNL     1      -1.009  -7.280  -2.533  0.00  0.00    -0.080 S 
ATOM     12 CL   UNL     1       0.763  -9.422   0.582  0.00  0.00    -0.082 Cl
BRANCH   3  13
ATOM     13  C   UNL     1      -0.650 -10.164  -2.151  0.00  0.00    +0.347 C 
ATOM     14  O   UNL     1      -0.234 -11.073  -1.460  0.00  0.00    -0.244 OA
BRANCH  13  16
ATOM     15  C   UNL     1      -1.383 -11.830  -3.699  0.00  0.00    +0.280 C 
ATOM     16  O   UNL     1      -1.260 -10.432  -3.324  0.00  0.00    -0.464 OA
ENDBRANCH  13  16
ENDBRANCH   3  13
ENDBRANCH   1   8
BRANCH   1  17
ATOM     17  C   UNL     1       1.198  -2.068   0.369  0.00  0.00    +0.151 C 
ATOM     18  S   UNL     1       2.597  -2.944   0.821  0.00  0.00    -0.017 S 
BRANCH  17  19
ATOM     19  N   UNL     1       1.209  -0.720   0.395  0.00  0.00    -0.246 N 
ATOM     20  H   UNL     1       2.010  -0.247   0.669  0.00  0.00    +0.172 HD
BRANCH  19  21
ATOM     21  N   UNL     1       0.064  -0.003   0.024  0.00  0.00    -0.247 N 
ATOM     22  H   UNL     1      -0.737  -0.476  -0.251  0.00  0.00    +0.172 HD
BRANCH  21  23
ATOM     23  C   UNL     1       0.075   1.344   0.050  0.00  0.00    +0.147 C 
ATOM     24  S   UNL     1      -1.322   2.221  -0.409  0.00  0.00    -0.017 S 
BRANCH  23  25
ATOM     25  N   UNL     1       1.187   2.002   0.432  0.00  0.00    -0.323 N 
ATOM     26  H   UNL     1       1.980   1.505   0.689  0.00  0.00    +0.148 HD
BRANCH  25  27
ATOM     27  C   UNL     1       1.200   3.467   0.460  0.00  0.00    +0.072 C 
ATOM     28  C   UNL     1       1.539   4.001  -0.933  0.00  0.00    +0.022 C 
ATOM     29  C   UNL     1       1.552   5.530  -0.903  0.00  0.00    +0.002 C 
ATOM     30  C   UNL     1       2.603   6.013   0.098  0.00  0.00    +0.000 C 
ATOM     31  C   UNL     1       2.263   5.479   1.491  0.00  0.00    +0.002 C 
ATOM     32  C   UNL     1       2.251   3.949   1.462  0.00  0.00    +0.022 C 
ENDBRANCH  25  27
ENDBRANCH  23  25
ENDBRANCH  21  23
ENDBRANCH  19  21
ENDBRANCH  17  19
ENDBRANCH   1  17
TORSDOF 9
