REMARK  Name = ZINC04637734
REMARK  15 active torsions:
REMARK  status: ('A' for Active; 'I' for Inactive)
REMARK    1  A    between atoms: C_1  and  C_2
REMARK    2  A    between atoms: C_2  and  O_3
REMARK    3  A    between atoms: O_3  and  C_4
REMARK    4  A    between atoms: C_4  and  C_6
REMARK    5  A    between atoms: C_8  and  C_34
REMARK    6  A    between atoms: C_15  and  C_26
REMARK    7  A    between atoms: C_17  and  C_21
REMARK    8  A    between atoms: C_18  and  C_20
REMARK    9  A    between atoms: C_21  and  O_23
REMARK   10  A    between atoms: O_23  and  C_24
REMARK   11  A    between atoms: C_24  and  C_25
REMARK   12  A    between atoms: C_29  and  O_32
REMARK   13  A    between atoms: O_32  and  C_33
REMARK   14  A    between atoms: C_39  and  O_40
REMARK   15  A    between atoms: O_40  and  C_41
REMARK                            x       y       z     vdW  Elec       q    Type
REMARK                         _______ _______ _______ _____ _____    ______ ____
ROOT
ATOM      1  C   UNL     1      -2.751  -2.756   0.025  0.00  0.00    +0.176 C 
ATOM      2  C   UNL     1      -2.577  -4.249   0.320  0.00  0.00    +0.049 C 
ATOM      3  C   UNL     1      -3.964  -4.886   0.429  0.00  0.00    +0.060 C 
ATOM      4  C   UNL     1      -4.752  -4.200   1.518  0.00  0.00    +0.016 C 
ATOM      5  C   UNL     1      -4.548  -2.898   1.808  0.00  0.00    +0.025 C 
ATOM      6  C   UNL     1      -3.595  -2.137   1.106  0.00  0.00    +0.176 C 
ATOM      7  O   UNL     1      -3.450  -0.962   1.377  0.00  0.00    -0.291 OA
ATOM      8  C   UNL     1      -5.337  -2.219   2.900  0.00  0.00    +0.092 C 
ATOM      9  C   UNL     1      -6.564  -3.010   3.248  0.00  0.00    +0.065 C 
ATOM     10  C   UNL     1      -6.684  -4.302   2.898  0.00  0.00    +0.016 C 
ATOM     11  N   UNL     1      -5.685  -4.928   2.206  0.00  0.00    -0.321 N 
ATOM     12  C   UNL     1      -7.928  -5.067   3.273  0.00  0.00    +0.061 C 
ATOM     13  H   UNL     1      -5.637  -5.897   2.203  0.00  0.00    +0.152 HD
ENDROOT
BRANCH   8  14
ATOM     14  C   UNL     1      -4.472  -2.086   4.126  0.00  0.00    -0.035 A 
ATOM     15  C   UNL     1      -3.951  -3.215   4.730  0.00  0.00    +0.008 A 
ATOM     16  C   UNL     1      -3.158  -3.096   5.854  0.00  0.00    +0.046 A 
ATOM     17  C   UNL     1      -2.883  -1.841   6.378  0.00  0.00    +0.120 A 
ATOM     18  C   UNL     1      -3.407  -0.709   5.770  0.00  0.00    +0.046 A 
ATOM     19  C   UNL     1      -4.195  -0.833   4.642  0.00  0.00    +0.008 A 
BRANCH  17  20
ATOM     20  O   UNL     1      -2.104  -1.720   7.484  0.00  0.00    -0.495 OA
ATOM     21  C   UNL     1      -1.863  -0.397   7.967  0.00  0.00    +0.277 C 
ENDBRANCH  17  20
ENDBRANCH   8  14
BRANCH   2  22
ATOM     22  C   UNL     1      -1.804  -4.899  -0.799  0.00  0.00    -0.001 A 
ATOM     23  C   UNL     1      -2.296  -4.866  -2.090  0.00  0.00    +0.007 A 
ATOM     24  C   UNL     1      -1.587  -5.463  -3.116  0.00  0.00    +0.001 A 
ATOM     25  C   UNL     1      -0.384  -6.093  -2.854  0.00  0.00    +0.004 A 
ATOM     26  C   UNL     1       0.112  -6.129  -1.565  0.00  0.00    +0.046 A 
ATOM     27  C   UNL     1      -0.595  -5.526  -0.534  0.00  0.00    +0.124 A 
BRANCH  27  28
ATOM     28  O   UNL     1      -0.107  -5.555   0.734  0.00  0.00    -0.495 OA
ATOM     29  C   UNL     1       1.144  -6.218   0.932  0.00  0.00    +0.277 C 
ENDBRANCH  27  28
ENDBRANCH   2  22
BRANCH   1  30
ATOM     30  C   UNL     1      -1.400  -2.087  -0.004  0.00  0.00    +0.318 C 
ATOM     31  O   UNL     1      -0.400  -2.737   0.187  0.00  0.00    -0.250 OA
BRANCH  30  32
ATOM     32  O   UNL     1      -1.309  -0.769  -0.241  0.00  0.00    -0.464 OA
BRANCH  32  34
ATOM     33  C   UNL     1      -0.093   1.298  -0.539  0.00  0.00    +0.048 C 
ATOM     34  C   UNL     1       0.003  -0.202  -0.255  0.00  0.00    +0.229 C 
ENDBRANCH  32  34
ENDBRANCH  30  32
ENDBRANCH   1  30
BRANCH   9  35
ATOM     35  C   UNL     1      -7.615  -2.383   3.957  0.00  0.00    +0.338 C 
ATOM     36  O   UNL     1      -8.664  -2.973   4.139  0.00  0.00    -0.245 OA
BRANCH  35  37
ATOM     37  O   UNL     1      -7.455  -1.130   4.432  0.00  0.00    -0.462 OA
BRANCH  37  38
ATOM     38  C   UNL     1      -8.558  -0.558   5.139  0.00  0.00    +0.229 C 
ATOM     39  C   UNL     1      -8.192   0.855   5.598  0.00  0.00    +0.048 C 
ENDBRANCH  37  38
ENDBRANCH  35  37
ENDBRANCH   9  35
TORSDOF 10
