REMARK  Name = ZINC06528599
REMARK  4 active torsions:
REMARK  status: ('A' for Active; 'I' for Inactive)
REMARK    1  A    between atoms: C_5  and  C_7
REMARK    2  A    between atoms: C_10  and  C_17
REMARK    3  A    between atoms: C_10  and  O_21
REMARK    4  A    between atoms: C_12  and  C_14
REMARK                            x       y       z     vdW  Elec       q    Type
REMARK                         _______ _______ _______ _____ _____    ______ ____
ROOT
ATOM      1  C   UNL     1       2.439   1.659  -4.685  0.00  0.00    +0.270 C 
ATOM      2  O   UNL     1       3.348   1.611  -5.491  0.00  0.00    -0.268 OA
ATOM      3  N   UNL     1       2.617   1.175  -3.439  0.00  0.00    -0.148 N 
ATOM      4  C   UNL     1       3.822   0.485  -2.950  0.00  0.00    +0.257 C 
ATOM      5  C   UNL     1       3.474   0.161  -1.484  0.00  0.00    +0.119 C 
ATOM      6  C   UNL     1       2.079   0.720  -1.312  0.00  0.00    +0.045 C 
ATOM      7  N   UNL     1       1.688   1.241  -2.402  0.00  0.00    -0.183 NA
ENDROOT
BRANCH   1  12
ATOM      8  C   UNL     1      -1.071   2.977  -4.479  0.00  0.00    +0.001 A 
ATOM      9  C   UNL     1      -1.296   3.349  -5.793  0.00  0.00    +0.001 A 
ATOM     10  C   UNL     1      -0.311   3.173  -6.748  0.00  0.00    +0.016 A 
ATOM     11  C   UNL     1       0.906   2.624  -6.395  0.00  0.00    +0.030 A 
ATOM     12  C   UNL     1       1.140   2.247  -5.070  0.00  0.00    +0.053 A 
ATOM     13  C   UNL     1       0.138   2.423  -4.114  0.00  0.00    +0.014 A 
ATOM     14 BR   UNL     1       2.252   2.383  -7.701  0.00  0.00    -0.050 Br
ENDBRANCH   1  12
BRANCH   4  15
ATOM     15  C   UNL     1       5.040   1.408  -3.025  0.00  0.00    +0.438 C 
ATOM     16  F   UNL     1       6.138   0.780  -2.427  0.00  0.00    -0.166 F 
ATOM     17  F   UNL     1       5.334   1.685  -4.364  0.00  0.00    -0.166 F 
ATOM     18  F   UNL     1       4.762   2.602  -2.352  0.00  0.00    -0.166 F 
ENDBRANCH   4  15
BRANCH   6  19
ATOM     19  C   UNL     1       1.272   0.662  -0.041  0.00  0.00    +0.035 C 
ATOM     20  C   UNL     1      -0.076   1.386  -0.026  0.00  0.00    +0.010 C 
ATOM     21  C   UNL     1      -0.029  -0.143  -0.066  0.00  0.00    +0.010 C 
ENDBRANCH   6  19
BRANCH   4  22
ATOM     22  O   UNL     1       4.051  -0.716  -3.691  0.00  0.00    -0.363 OA
ATOM     23  H   UNL     1       4.274  -0.568  -4.620  0.00  0.00    +0.212 HD
ENDBRANCH   4  22
TORSDOF 4
