REMARK  Name = ZINC58370953
REMARK  8 active torsions:
REMARK  status: ('A' for Active; 'I' for Inactive)
REMARK    1  A    between atoms: C_1  and  N_2
REMARK    2  A    between atoms: C_5  and  C_13
REMARK    3  A    between atoms: C_6  and  N_12
REMARK    4  A    between atoms: N_14  and  O_15
REMARK    5  A    between atoms: O_15  and  C_16
REMARK    6  A    between atoms: C_16  and  C_17
REMARK    7  A    between atoms: C_17  and  O_18
REMARK    8  A    between atoms: O_18  and  C_19
REMARK                            x       y       z     vdW  Elec       q    Type
REMARK                         _______ _______ _______ _____ _____    ______ ____
ROOT
ATOM      1  C   UNL     1       0.037  -3.325  -1.646  0.00  0.00    +0.169 C 
ATOM      2  N   UNL     1       0.154  -4.543  -1.199  0.00  0.00    -0.069 NA
ATOM      3  N   UNL     1      -0.079  -3.094  -3.007  0.00  0.00    -0.340 N 
ATOM      4  H   UNL     1      -0.092  -2.185  -3.345  0.00  0.00    +0.144 HD
ATOM      5  H   UNL     1      -0.146  -3.842  -3.621  0.00  0.00    +0.144 HD
ENDROOT
BRANCH   1  10
ATOM      6  C   UNL     1      -0.010   1.464   0.057  0.00  0.00    +0.133 C 
ATOM      7  N   UNL     1       0.005  -0.001   0.027  0.00  0.00    -0.289 N 
ATOM      8  C   UNL     1       0.010  -0.776  -1.077  0.00  0.00    +0.252 C 
ATOM      9  O   UNL     1       0.003  -0.358  -2.220  0.00  0.00    -0.270 OA
ATOM     10  C   UNL     1       0.027  -2.191  -0.703  0.00  0.00    +0.098 C 
ATOM     11  C   UNL     1       0.031  -2.294   0.663  0.00  0.00    +0.041 C 
ATOM     12  C   UNL     1       0.022  -0.886   1.184  0.00  0.00    +0.076 C 
ATOM     13  C   UNL     1       1.238  -0.613   2.087  0.00  0.00    +0.032 C 
ATOM     14  C   UNL     1       0.788   0.568   2.976  0.00  0.00    +0.003 C 
ATOM     15  C   UNL     1      -0.751   0.551   2.986  0.00  0.00    +0.003 C 
ATOM     16  C   UNL     1      -1.186  -0.639   2.103  0.00  0.00    +0.032 C 
BRANCH  11  17
ATOM     17  N   UNL     1       0.045  -3.439   1.397  0.00  0.00    -0.359 N 
ATOM     18  H   UNL     1       0.128  -4.298   0.954  0.00  0.00    +0.142 HD
ATOM     19  H   UNL     1      -0.028  -3.397   2.363  0.00  0.00    +0.142 HD
ENDBRANCH  11  17
ENDBRANCH   1  10
BRANCH   2  20
ATOM     20  O   UNL     1       0.164  -5.632  -2.105  0.00  0.00    -0.389 OA
BRANCH  20  21
ATOM     21  C   UNL     1       0.299  -6.909  -1.478  0.00  0.00    +0.303 C 
BRANCH  21  22
ATOM     22  C   UNL     1       0.298  -8.004  -2.546  0.00  0.00    +0.273 C 
BRANCH  22  23
ATOM     23  O   UNL     1       1.455  -7.865  -3.373  0.00  0.00    -0.486 OA
BRANCH  23  24
ATOM     24  C   UNL     1       1.606  -8.767  -4.379  0.00  0.00    +0.157 A 
ATOM     25  C   UNL     1       2.293  -9.951  -4.153  0.00  0.00    +0.084 A 
ATOM     26  C   UNL     1       2.446 -10.866  -5.178  0.00  0.00    +0.024 A 
ATOM     27  C   UNL     1       1.915 -10.602  -6.427  0.00  0.00    +0.003 A 
ATOM     28  C   UNL     1       1.230  -9.423  -6.655  0.00  0.00    +0.024 A 
ATOM     29  C   UNL     1       1.069  -8.507  -5.632  0.00  0.00    +0.084 A 
ATOM     30 CL   UNL     1       0.203  -7.030  -5.917  0.00  0.00    -0.080 Cl
ATOM     31 CL   UNL     1       2.961 -10.283  -2.586  0.00  0.00    -0.080 Cl
ENDBRANCH  23  24
ENDBRANCH  22  23
ENDBRANCH  21  22
ENDBRANCH  20  21
ENDBRANCH   2  20
TORSDOF 7
