REMARK  Name = ZINC04523145
REMARK  8 active torsions:
REMARK  status: ('A' for Active; 'I' for Inactive)
REMARK    1  A    between atoms: C_1  and  C_2
REMARK    2  A    between atoms: C_4  and  C_22
REMARK    3  A    between atoms: C_5  and  N_11
REMARK    4  A    between atoms: C_6  and  S_8
REMARK    5  A    between atoms: N_12  and  C_13
REMARK    6  A    between atoms: C_15  and  C_21
REMARK    7  A    between atoms: C_16  and  N_20
REMARK    8  A    between atoms: C_18  and  N_19
REMARK                            x       y       z     vdW  Elec       q    Type
REMARK                         _______ _______ _______ _____ _____    ______ ____
ROOT
ATOM      1  N   UNL     1       1.090   2.017   0.022  0.00  0.00    -0.147 NA
ATOM      2  N   UNL     1       0.287   1.363   0.791  0.00  0.00    -0.147 NA
ENDROOT
BRANCH   1   7
ATOM      3  C   UNL     1       1.017   7.661   0.015  0.00  0.00    +0.044 C 
ATOM      4  C   UNL     1       1.036   6.154   0.017  0.00  0.00    -0.048 A 
ATOM      5  C   UNL     1      -0.151   5.449  -0.081  0.00  0.00    +0.009 A 
ATOM      6  C   UNL     1      -0.141   4.071  -0.080  0.00  0.00    -0.021 A 
ATOM      7  C   UNL     1       1.073   3.384   0.020  0.00  0.00    +0.116 A 
ATOM      8  C   UNL     1       2.267   4.102   0.123  0.00  0.00    +0.147 A 
ATOM      9  C   UNL     1       2.241   5.481   0.116  0.00  0.00    +0.035 A 
ATOM     10  C   UNL     1      -1.435   3.305  -0.187  0.00  0.00    +0.046 C 
BRANCH   8  11
ATOM     11  S   UNL     1       3.802   3.247   0.258  0.00  0.00    +0.142 S 
ATOM     12  O   UNL     1       4.109   3.179   1.643  0.00  0.00    -0.140 OA
ATOM     13  O   UNL     1       3.694   2.088  -0.557  0.00  0.00    -0.140 OA
ATOM     14  O   UNL     1       4.865   4.130  -0.380  0.00  0.00    -0.043 OA
ENDBRANCH   8  11
ENDBRANCH   1   7
BRANCH   2  15
ATOM     15  C   UNL     1       0.304   0.002   0.793  0.00  0.00    +0.107 A 
ATOM     16  C   UNL     1       1.193  -0.691  -0.037  0.00  0.00    +0.036 A 
ATOM     17  C   UNL     1       1.210  -2.056  -0.034  0.00  0.00    -0.028 A 
ATOM     18  C   UNL     1       0.345  -2.771   0.793  0.00  0.00    +0.029 A 
ATOM     19  C   UNL     1      -0.544  -2.100   1.623  0.00  0.00    +0.048 A 
ATOM     20  C   UNL     1      -0.567  -0.715   1.634  0.00  0.00    +0.054 A 
ATOM     21  C   UNL     1       2.170  -2.795  -0.931  0.00  0.00    +0.046 C 
BRANCH  20  22
ATOM     22  N   UNL     1      -1.451  -0.036   2.467  0.00  0.00    -0.356 N 
ATOM     23  H   UNL     1      -1.467   0.934   2.469  0.00  0.00    +0.142 HD
ATOM     24  H   UNL     1      -2.050  -0.533   3.046  0.00  0.00    +0.142 HD
ENDBRANCH  20  22
BRANCH  18  25
ATOM     25  N   UNL     1       0.372  -4.163   0.786  0.00  0.00    -0.358 N 
ATOM     26  H   UNL     1       0.992  -4.633   0.207  0.00  0.00    +0.142 HD
ATOM     27  H   UNL     1      -0.229  -4.662   1.361  0.00  0.00    +0.142 HD
ENDBRANCH  18  25
ENDBRANCH   2  15
TORSDOF 5
