REMARK  Name = ZINC13123395
REMARK  5 active torsions:
REMARK  status: ('A' for Active; 'I' for Inactive)
REMARK    1  A    between atoms: C_3  and  N_8
REMARK    2  A    between atoms: C_5  and  O_7
REMARK    3  A    between atoms: N_8  and  C_9
REMARK    4  A    between atoms: C_9  and  N_11
REMARK    5  A    between atoms: N_11  and  N_12
REMARK                            x       y       z     vdW  Elec       q    Type
REMARK                         _______ _______ _______ _____ _____    ______ ____
ROOT
ATOM      1  N   UNL     1       4.718   4.160  -0.227  0.00  0.00    -0.217 N 
ATOM      2  H   UNL     1       4.704   5.128  -0.295  0.00  0.00    +0.176 HD
ENDROOT
BRANCH   1   3
ATOM      3  N   UNL     1       5.940   3.475  -0.242  0.00  0.00    -0.175 NA
ATOM      4  C   UNL     1       7.065   4.141  -0.349  0.00  0.00    +0.153 C 
ATOM      5  C   UNL     1       8.440   3.591  -0.389  0.00  0.00    +0.029 A 
ATOM      6  C   UNL     1       8.950   2.299  -0.329  0.00  0.00    +0.027 A 
ATOM      7  C   UNL     1      10.315   2.098  -0.391  0.00  0.00    +0.019 A 
ATOM      8  C   UNL     1      11.171   3.181  -0.511  0.00  0.00    +0.017 A 
ATOM      9  C   UNL     1      10.674   4.467  -0.570  0.00  0.00    +0.025 A 
ATOM     10  C   UNL     1       9.302   4.688  -0.510  0.00  0.00    +0.043 A 
ATOM     11  N   UNL     1       8.553   5.859  -0.548  0.00  0.00    -0.280 N 
ATOM     12  C   UNL     1       7.236   5.603  -0.463  0.00  0.00    +0.269 C 
ATOM     13  O   UNL     1       6.343   6.429  -0.474  0.00  0.00    -0.268 OA
ATOM     14 BR   UNL     1      11.017   0.344  -0.311  0.00  0.00    -0.050 Br
ATOM     15  H   UNL     1       8.932   6.748  -0.628  0.00  0.00    +0.155 HD
ENDBRANCH   1   3
BRANCH   1  16
ATOM     16  C   UNL     1       3.563   3.475  -0.117  0.00  0.00    +0.154 C 
ATOM     17  S   UNL     1       2.070   4.312  -0.098  0.00  0.00    -0.017 S 
BRANCH  16  18
ATOM     18  N   UNL     1       3.583   2.131  -0.022  0.00  0.00    -0.296 N 
ATOM     19  H   UNL     1       4.429   1.662   0.048  0.00  0.00    +0.154 HD
BRANCH  18  22
ATOM     20  C   UNL     1       0.179   1.052  -0.904  0.00  0.00    +0.005 A 
ATOM     21  C   UNL     1       1.364   1.763  -0.901  0.00  0.00    +0.023 A 
ATOM     22  C   UNL     1       2.383   1.412  -0.025  0.00  0.00    +0.036 A 
ATOM     23  C   UNL     1       2.210   0.346   0.847  0.00  0.00    +0.068 A 
ATOM     24  C   UNL     1       1.020  -0.364   0.841  0.00  0.00    +0.119 A 
ATOM     25  C   UNL     1       0.005  -0.009  -0.037  0.00  0.00    +0.045 A 
BRANCH  24  26
ATOM     26  O   UNL     1       0.847  -1.409   1.693  0.00  0.00    -0.507 OA
ATOM     27  H   UNL     1       0.466  -1.161   2.547  0.00  0.00    +0.292 HD
ENDBRANCH  24  26
ENDBRANCH  18  22
ENDBRANCH  16  18
ENDBRANCH   1  16
TORSDOF 5
