REMARK  Name = ZINC39098591
REMARK  2 active torsions:
REMARK  status: ('A' for Active; 'I' for Inactive)
REMARK    1  A    between atoms: C_3  and  C_10
REMARK    2  A    between atoms: N_12  and  N_13
REMARK                            x       y       z     vdW  Elec       q    Type
REMARK                         _______ _______ _______ _____ _____    ______ ____
ROOT
ATOM      1  C   UNL     1       3.314   3.163  -0.013  0.00  0.00    +0.260 C 
ATOM      2  O   UNL     1       2.844   4.280  -0.096  0.00  0.00    -0.269 OA
ATOM      3  N   UNL     1       4.649   2.997   0.074  0.00  0.00    -0.229 N 
ATOM      4  H   UNL     1       5.028   2.105   0.066  0.00  0.00    +0.173 HD
ENDROOT
BRANCH   1   7
ATOM      5  C   UNL     1      -0.017   1.372   0.027  0.00  0.00    +0.005 A 
ATOM      6  C   UNL     1       1.058   2.259   0.017  0.00  0.00    +0.013 A 
ATOM      7  C   UNL     1       2.419   1.982  -0.009  0.00  0.00    +0.042 A 
ATOM      8  C   UNL     1       3.061   0.734  -0.032  0.00  0.00    +0.068 A 
ATOM      9  C   UNL     1       2.493  -0.524  -0.034  0.00  0.00    +0.226 A 
ATOM     10  C   UNL     1       1.117  -0.867  -0.014  0.00  0.00    +0.225 A 
ATOM     11  O   UNL     1       0.865  -2.063  -0.021  0.00  0.00    -0.284 OA
ATOM     12  C   UNL     1       0.002  -0.004   0.014  0.00  0.00    +0.055 A 
ATOM     13  O   UNL     1       3.361  -1.565  -0.059  0.00  0.00    -0.284 OA
ENDBRANCH   1   7
BRANCH   3  14
ATOM     14  N   UNL     1       5.488   4.114   0.177  0.00  0.00    -0.218 N 
ATOM     15  C   UNL     1       6.822   3.949   0.265  0.00  0.00    +0.313 C 
ATOM     16  O   UNL     1       7.551   4.919   0.354  0.00  0.00    -0.252 OA
ATOM     17  N   UNL     1       7.350   2.709   0.253  0.00  0.00    -0.312 N 
ATOM     18  H   UNL     1       5.108   5.007   0.186  0.00  0.00    +0.174 HD
ATOM     19  H   UNL     1       6.769   1.935   0.182  0.00  0.00    +0.147 HD
ATOM     20  H   UNL     1       8.310   2.590   0.317  0.00  0.00    +0.147 HD
ENDBRANCH   3  14
TORSDOF 2
