REMARK  Name = ZINC28910109
REMARK  9 active torsions:
REMARK  status: ('A' for Active; 'I' for Inactive)
REMARK    1  A    between atoms: C_1  and  C_2
REMARK    2  A    between atoms: C_2  and  C_4
REMARK    3  A    between atoms: C_2  and  N_20
REMARK    4  A    between atoms: N_9  and  C_10
REMARK    5  A    between atoms: N_20  and  C_21
REMARK    6  A    between atoms: C_24  and  N_27
REMARK    7  A    between atoms: C_28  and  C_30
REMARK    8  A    between atoms: C_30  and  C_31
REMARK    9  A    between atoms: C_30  and  C_32
REMARK                            x       y       z     vdW  Elec       q    Type
REMARK                         _______ _______ _______ _____ _____    ______ ____
ROOT
ATOM      1  C   UNL     1       0.736  -0.293   1.195  0.00  0.00    +0.240 C 
ATOM      2  O   UNL     1       0.275  -1.124   1.948  0.00  0.00    -0.273 OA
ATOM      3  N   UNL     1       1.974   0.196   1.409  0.00  0.00    -0.239 N 
ATOM      4  C   UNL     1       2.698  -0.237   2.459  0.00  0.00    +0.306 C 
ATOM      5  O   UNL     1       2.236  -1.070   3.214  0.00  0.00    -0.252 OA
ATOM      6  N   UNL     1       3.936   0.253   2.672  0.00  0.00    -0.294 N 
ATOM      7  H   UNL     1       2.343   0.861   0.806  0.00  0.00    +0.159 HD
ATOM      8  H   UNL     1       4.305   0.917   2.070  0.00  0.00    +0.151 HD
ENDROOT
BRANCH   6   9
ATOM      9  C   UNL     1       4.723  -0.218   3.814  0.00  0.00    +0.037 C 
ATOM     10  C   UNL     1       3.975   0.090   5.112  0.00  0.00    +0.029 C 
ATOM     11  C   UNL     1       4.798  -0.402   6.305  0.00  0.00    -0.008 C 
ATOM     12  C   UNL     1       6.153   0.307   6.317  0.00  0.00    +0.007 C 
ATOM     13  C   UNL     1       6.902  -0.001   5.019  0.00  0.00    -0.008 C 
ATOM     14  C   UNL     1       6.079   0.491   3.826  0.00  0.00    +0.029 C 
ATOM     15  C   UNL     1       7.117  -1.512   4.901  0.00  0.00    +0.007 C 
ATOM     16  C   UNL     1       5.762  -2.221   4.889  0.00  0.00    -0.008 C 
ATOM     17  C   UNL     1       5.013  -1.912   6.187  0.00  0.00    +0.007 C 
ATOM     18  C   UNL     1       4.939  -1.729   3.696  0.00  0.00    +0.029 C 
ENDBRANCH   6   9
BRANCH   1  20
ATOM     19  C   UNL     1      -0.289   1.701   0.139  0.00  0.00    +0.038 C 
ATOM     20  C   UNL     1      -0.074   0.191   0.021  0.00  0.00    +0.154 C 
BRANCH  20  21
ATOM     21  N   UNL     1      -1.372  -0.488   0.009  0.00  0.00    -0.333 N 
ATOM     22  H   UNL     1      -1.743  -0.839   0.834  0.00  0.00    +0.147 HD
BRANCH  21  23
ATOM     23  C   UNL     1      -2.076  -0.630  -1.191  0.00  0.00    +0.028 A 
ATOM     24  C   UNL     1      -1.542  -0.133  -2.373  0.00  0.00    +0.025 A 
ATOM     25  C   UNL     1      -2.238  -0.273  -3.557  0.00  0.00    +0.025 A 
ATOM     26  C   UNL     1      -3.471  -0.912  -3.567  0.00  0.00    +0.034 A 
ATOM     27  C   UNL     1      -4.005  -1.409  -2.385  0.00  0.00    +0.025 A 
ATOM     28  C   UNL     1      -3.307  -1.274  -1.202  0.00  0.00    +0.025 A 
BRANCH  26  29
ATOM     29  N   UNL     1      -4.177  -1.054  -4.769  0.00  0.00    -0.285 N 
ATOM     30  C   UNL     1      -3.508  -1.223  -5.927  0.00  0.00    +0.220 C 
ATOM     31  O   UNL     1      -2.302  -1.348  -5.918  0.00  0.00    -0.275 OA
ATOM     32  H   UNL     1      -5.146  -1.031  -4.768  0.00  0.00    +0.155 HD
BRANCH  30  33
ATOM     33  C   UNL     1      -4.260  -1.256  -7.233  0.00  0.00    +0.069 C 
ATOM     34  C   UNL     1      -5.006   0.065  -7.426  0.00  0.00    +0.017 C 
ATOM     35  C   UNL     1      -3.272  -1.458  -8.384  0.00  0.00    +0.017 C 
ENDBRANCH  30  33
ENDBRANCH  26  29
ENDBRANCH  21  23
ENDBRANCH  20  21
ENDBRANCH   1  20
TORSDOF 6
