REMARK  Name = ZINC37335853
REMARK  3 active torsions:
REMARK  status: ('A' for Active; 'I' for Inactive)
REMARK    1  A    between atoms: C_1  and  C_2
REMARK    2  A    between atoms: C_4  and  N_9
REMARK    3  A    between atoms: C_10  and  C_15
REMARK                            x       y       z     vdW  Elec       q    Type
REMARK                         _______ _______ _______ _____ _____    ______ ____
ROOT
ATOM      1  N   UNL     1       0.003  -2.736  -2.444  0.00  0.00    -0.270 N 
ATOM      2  C   UNL     1      -0.915  -3.671  -2.870  0.00  0.00    +0.169 A 
ATOM      3  N   UNL     1      -0.499  -4.117  -4.033  0.00  0.00    -0.128 NA
ATOM      4  N   UNL     1       0.600  -3.535  -4.359  0.00  0.00    -0.121 NA
ATOM      5  C   UNL     1       0.951  -2.676  -3.427  0.00  0.00    +0.207 A 
ATOM      6  S   UNL     1       2.379  -1.644  -3.442  0.00  0.00    -0.009 SA
ENDROOT
BRANCH   1  10
ATOM      7  C   UNL     1      -0.509   1.589  -0.159  0.00  0.00    +0.045 C 
ATOM      8  C   UNL     1      -0.278   0.101  -0.117  0.00  0.00    -0.035 A 
ATOM      9  C   UNL     1      -0.244  -0.626  -1.292  0.00  0.00    +0.030 A 
ATOM     10  C   UNL     1      -0.030  -1.996  -1.253  0.00  0.00    +0.051 A 
ATOM     11  C   UNL     1       0.150  -2.634  -0.033  0.00  0.00    +0.027 A 
ATOM     12  C   UNL     1       0.116  -1.904   1.138  0.00  0.00    +0.017 A 
ATOM     13  C   UNL     1      -0.092  -0.536   1.097  0.00  0.00    +0.021 A 
ATOM     14 BR   UNL     1      -0.131   0.462   2.702  0.00  0.00    -0.050 Br
ENDBRANCH   1  10
BRANCH   2  15
ATOM     15  C   UNL     1      -2.137  -4.092  -2.154  0.00  0.00    +0.022 A 
ATOM     16  C   UNL     1      -2.673  -3.310  -1.124  0.00  0.00    +0.031 A 
ATOM     17  C   UNL     1      -3.815  -3.741  -0.482  0.00  0.00    +0.111 A 
ATOM     18  N   UNL     1      -4.400  -4.873  -0.827  0.00  0.00    -0.263 NA
ATOM     19  C   UNL     1      -3.928  -5.640  -1.792  0.00  0.00    +0.111 A 
ATOM     20  C   UNL     1      -2.794  -5.282  -2.490  0.00  0.00    +0.031 A 
ENDBRANCH   2  15
TORSDOF 2
