REMARK  Name = ZINC09459094
REMARK  5 active torsions:
REMARK  status: ('A' for Active; 'I' for Inactive)
REMARK    1  A    between atoms: C_1  and  C_2
REMARK    2  A    between atoms: N_4  and  C_5
REMARK    3  A    between atoms: C_11  and  N_15
REMARK    4  A    between atoms: N_15  and  C_16
REMARK    5  A    between atoms: N_23  and  C_26
REMARK                            x       y       z     vdW  Elec       q    Type
REMARK                         _______ _______ _______ _____ _____    ______ ____
ROOT
ATOM      1  C   UNL     1      -4.785  -0.282  -0.198  0.00  0.00    +0.090 C 
ATOM      2  C   UNL     1      -4.843   1.089  -0.371  0.00  0.00    +0.113 C 
ATOM      3  C   UNL     1      -3.619   1.904  -0.470  0.00  0.00    +0.256 C 
ATOM      4  O   UNL     1      -2.518   1.390  -0.402  0.00  0.00    -0.270 OA
ATOM      5  N   UNL     1      -3.752   3.236  -0.640  0.00  0.00    -0.263 N 
ATOM      6  C   UNL     1      -4.958   3.815  -0.717  0.00  0.00    +0.150 C 
ATOM      7  S   UNL     1      -5.030   5.512  -0.932  0.00  0.00    -0.018 S 
ATOM      8  N   UNL     1      -6.111   3.136  -0.635  0.00  0.00    -0.217 N 
ATOM      9  C   UNL     1      -6.131   1.797  -0.472  0.00  0.00    +0.263 C 
ATOM     10  O   UNL     1      -7.184   1.192  -0.404  0.00  0.00    -0.269 OA
ATOM     11  H   UNL     1      -2.956   3.787  -0.707  0.00  0.00    +0.157 HD
ENDROOT
BRANCH   8  12
ATOM     12  C   UNL     1      -7.324   3.833  -0.727  0.00  0.00    +0.043 A 
ATOM     13  C   UNL     1      -7.683   4.449  -1.919  0.00  0.00    +0.025 A 
ATOM     14  C   UNL     1      -8.878   5.135  -2.007  0.00  0.00    +0.022 A 
ATOM     15  C   UNL     1      -9.718   5.208  -0.909  0.00  0.00    +0.041 A 
ATOM     16  C   UNL     1      -9.362   4.595   0.279  0.00  0.00    +0.022 A 
ATOM     17  C   UNL     1      -8.170   3.903   0.371  0.00  0.00    +0.025 A 
ATOM     18 CL   UNL     1     -11.220   6.071  -1.024  0.00  0.00    -0.084 Cl
ENDBRANCH   8  12
BRANCH   1  19
ATOM     19  N   UNL     1      -3.601  -0.881   0.049  0.00  0.00    -0.319 N 
ATOM     20  H   UNL     1      -2.805  -0.344   0.186  0.00  0.00    +0.152 HD
BRANCH  19  27
ATOM     21  C   UNL     1      -1.783  -2.141   1.838  0.00  0.00    +0.043 A 
ATOM     22  C   UNL     1      -0.919  -2.791   2.694  0.00  0.00    +0.024 A 
ATOM     23  C   UNL     1      -0.866  -4.181   2.729  0.00  0.00    +0.002 A 
ATOM     24  C   UNL     1      -1.661  -4.936   1.921  0.00  0.00    +0.009 A 
ATOM     25  C   UNL     1      -2.554  -4.311   1.034  0.00  0.00    -0.014 A 
ATOM     26  C   UNL     1      -2.622  -2.897   0.995  0.00  0.00    +0.024 A 
ATOM     27  C   UNL     1      -3.522  -2.272   0.108  0.00  0.00    +0.041 A 
ATOM     28  C   UNL     1      -4.326  -3.049  -0.701  0.00  0.00    +0.024 A 
ATOM     29  C   UNL     1      -4.255  -4.438  -0.649  0.00  0.00    +0.002 A 
ATOM     30  C   UNL     1      -3.386  -5.066   0.190  0.00  0.00    +0.009 A 
BRANCH  21  34
ATOM     31  C   UNL     1      -0.743   1.472   1.947  0.00  0.00    +0.109 C 
ATOM     32  C   UNL     1      -0.688  -0.032   1.863  0.00  0.00    +0.214 C 
ATOM     33  O   UNL     1       0.383  -0.600   1.843  0.00  0.00    -0.276 OA
ATOM     34  N   UNL     1      -1.830  -0.746   1.810  0.00  0.00    -0.285 N 
ATOM     35  H   UNL     1      -2.685  -0.291   1.754  0.00  0.00    +0.155 HD
ENDBRANCH  21  34
ENDBRANCH  19  27
ENDBRANCH   1  19
TORSDOF 4
