REMARK  Name = ZINC05032877
REMARK  9 active torsions:
REMARK  status: ('A' for Active; 'I' for Inactive)
REMARK    1  A    between atoms: C_1  and  C_2
REMARK    2  A    between atoms: C_2  and  C_4
REMARK    3  A    between atoms: C_2  and  O_16
REMARK    4  A    between atoms: N_6  and  C_7
REMARK    5  A    between atoms: C_10  and  C_13
REMARK    6  A    between atoms: C_13  and  C_15
REMARK    7  A    between atoms: O_16  and  C_17
REMARK    8  A    between atoms: C_17  and  C_19
REMARK    9  A    between atoms: C_24  and  N_25
REMARK                            x       y       z     vdW  Elec       q    Type
REMARK                         _______ _______ _______ _____ _____    ______ ____
ROOT
ATOM      1  C   UNL     1       0.194   1.573  -0.502  0.00  0.00    +0.062 C 
ATOM      2  C   UNL     1       0.179   0.043  -0.507  0.00  0.00    +0.259 C 
ENDROOT
BRANCH   2   3
ATOM      3  C   UNL     1       1.014  -0.471   0.637  0.00  0.00    +0.258 C 
ATOM      4  O   UNL     1       0.491  -1.089   1.540  0.00  0.00    -0.271 OA
ATOM      5  N   UNL     1       2.342  -0.244   0.657  0.00  0.00    -0.282 N 
ATOM      6  H   UNL     1       2.770   0.198  -0.093  0.00  0.00    +0.155 HD
BRANCH   5   7
ATOM      7  C   UNL     1       3.101  -0.643   1.756  0.00  0.00    +0.034 A 
ATOM      8  C   UNL     1       4.176   0.136   2.176  0.00  0.00    +0.024 A 
ATOM      9  C   UNL     1       4.925  -0.253   3.257  0.00  0.00    +0.013 A 
ATOM     10  C   UNL     1       4.607  -1.435   3.938  0.00  0.00    +0.017 A 
ATOM     11  C   UNL     1       3.525  -2.215   3.511  0.00  0.00    +0.013 A 
ATOM     12  C   UNL     1       2.778  -1.815   2.433  0.00  0.00    +0.024 A 
BRANCH  10  13
ATOM     13  C   UNL     1       5.407  -1.855   5.096  0.00  0.00    +0.160 C 
ATOM     14  O   UNL     1       6.284  -1.134   5.521  0.00  0.00    -0.292 OA
ATOM     15  C   UNL     1       5.138  -3.184   5.755  0.00  0.00    +0.091 C 
ENDBRANCH  10  13
ENDBRANCH   5   7
ENDBRANCH   2   3
BRANCH   2  16
ATOM     16  O   UNL     1      -1.165  -0.420  -0.361  0.00  0.00    -0.449 OA
BRANCH  16  17
ATOM     17  C   UNL     1      -1.871  -0.613  -1.493  0.00  0.00    +0.342 C 
ATOM     18  O   UNL     1      -1.360  -0.394  -2.573  0.00  0.00    -0.245 OA
BRANCH  17  19
ATOM     19  C   UNL     1      -3.263  -1.090  -1.419  0.00  0.00    +0.082 A 
ATOM     20  C   UNL     1      -3.897  -1.224  -0.180  0.00  0.00    +0.037 A 
ATOM     21  C   UNL     1      -5.199  -1.671  -0.118  0.00  0.00    +0.043 A 
ATOM     22  C   UNL     1      -5.886  -1.990  -1.280  0.00  0.00    +0.042 A 
ATOM     23  C   UNL     1      -5.275  -1.863  -2.511  0.00  0.00    +0.064 A 
ATOM     24  C   UNL     1      -3.963  -1.408  -2.594  0.00  0.00    +0.057 A 
ATOM     25 CL   UNL     1      -6.146  -2.265  -3.958  0.00  0.00    -0.082 Cl
ATOM     26 CL   UNL     1      -5.983  -1.836   1.422  0.00  0.00    -0.083 Cl
BRANCH  24  27
ATOM     27  N   UNL     1      -3.347  -1.273  -3.832  0.00  0.00    -0.356 N 
ATOM     28  H   UNL     1      -2.407  -1.041  -3.883  0.00  0.00    +0.142 HD
ATOM     29  H   UNL     1      -3.858  -1.411  -4.645  0.00  0.00    +0.142 HD
ENDBRANCH  24  27
ENDBRANCH  17  19
ENDBRANCH  16  17
ENDBRANCH   2  16
TORSDOF 7
