REMARK  Name = ZINC54259914
REMARK  8 active torsions:
REMARK  status: ('A' for Active; 'I' for Inactive)
REMARK    1  A    between atoms: C_1  and  C_2
REMARK    2  A    between atoms: C_5  and  C_30
REMARK    3  A    between atoms: N_8  and  C_10
REMARK    4  A    between atoms: C_10  and  C_11
REMARK    5  A    between atoms: C_10  and  C_12
REMARK    6  A    between atoms: C_10  and  C_13
REMARK    7  A    between atoms: C_13  and  N_14
REMARK    8  A    between atoms: C_15  and  C_17
REMARK                            x       y       z     vdW  Elec       q    Type
REMARK                         _______ _______ _______ _____ _____    ______ ____
ROOT
ATOM      1  N   UNL     1       3.474  -2.390   0.904  0.00  0.00    -0.313 N 
ATOM      2  C   UNL     1       4.768  -2.196   0.578  0.00  0.00    +0.244 C 
ATOM      3  O   UNL     1       5.535  -1.721   1.392  0.00  0.00    -0.270 OA
ATOM      4  H   UNL     1       2.862  -2.769   0.254  0.00  0.00    +0.149 HD
ENDROOT
BRANCH   2   5
ATOM      5  C   UNL     1       5.254  -2.561  -0.772  0.00  0.00    +0.039 A 
ATOM      6  C   UNL     1       4.362  -3.104  -1.710  0.00  0.00    +0.014 A 
ATOM      7  C   UNL     1       4.785  -3.448  -2.957  0.00  0.00    +0.016 A 
ATOM      8  C   UNL     1       6.127  -3.261  -3.317  0.00  0.00    +0.065 A 
ATOM      9  C   UNL     1       7.041  -2.713  -2.379  0.00  0.00    +0.080 A 
ATOM     10  C   UNL     1       6.585  -2.359  -1.100  0.00  0.00    +0.041 A 
ATOM     11  N   UNL     1       8.321  -2.539  -2.738  0.00  0.00    -0.223 NA
ATOM     12  C   UNL     1       8.734  -2.873  -3.951  0.00  0.00    +0.180 A 
ATOM     13  N   UNL     1       7.910  -3.394  -4.874  0.00  0.00    -0.301 N 
ATOM     14  H   UNL     1       8.257  -3.624  -5.751  0.00  0.00    +0.171 HD
ATOM     15  C   UNL     1       6.604  -3.604  -4.599  0.00  0.00    +0.260 A 
ATOM     16  O   UNL     1       5.780  -4.126  -5.524  0.00  0.00    -0.267 OA
ATOM     17  S   UNL     1      10.380  -2.631  -4.357  0.00  0.00    -0.011 S 
ENDBRANCH   2   5
BRANCH   1  18
ATOM     18  C   UNL     1       2.993  -2.028   2.239  0.00  0.00    +0.092 C 
BRANCH  18  19
ATOM     19  C   UNL     1       1.478  -2.227   2.306  0.00  0.00    -0.055 C 
ATOM     20  C   UNL     1       0.963  -1.768   3.672  0.00  0.00    -0.008 C 
ATOM     21  C   UNL     1       1.148  -3.707   2.108  0.00  0.00    -0.008 C 
BRANCH  19  27
ATOM     22  C   UNL     1       0.932   2.275   0.461  0.00  0.00    +0.005 C 
ATOM     23  C   UNL     1       0.574   0.799   0.278  0.00  0.00    -0.031 C 
ATOM     24  C   UNL     1      -0.949   0.636   0.288  0.00  0.00    +0.003 C 
ATOM     25  C   UNL     1      -1.294  -0.852   0.182  0.00  0.00    -0.031 C 
ATOM     26  C   UNL     1      -0.623  -1.609   1.330  0.00  0.00    -0.075 C 
ATOM     27  N   UNL     1       0.833  -1.436   1.250  0.00  0.00    +0.384 N 
ATOM     28  C   UNL     1       1.177  -0.019   1.421  0.00  0.00    -0.075 C 
ATOM     29  C   UNL     1      -0.792  -1.399  -1.155  0.00  0.00    +0.005 C 
ATOM     30  H   UNL     1       1.159  -1.753   0.349  0.00  0.00    -0.081 HD
ENDBRANCH  19  27
ENDBRANCH  18  19
ENDBRANCH   1  18
TORSDOF 4
