REMARK  Name = ZINC37366979
REMARK  3 active torsions:
REMARK  status: ('A' for Active; 'I' for Inactive)
REMARK    1  A    between atoms: C_5  and  C_8
REMARK    2  A    between atoms: C_5  and  N_11
REMARK    3  A    between atoms: C_12  and  C_14
REMARK                            x       y       z     vdW  Elec       q    Type
REMARK                         _______ _______ _______ _____ _____    ______ ____
ROOT
ATOM      1  N   UNL     1       2.469  -0.548  -0.387  0.00  0.00    -0.298 N 
ATOM      2  C   UNL     1       2.115  -1.620  -1.124  0.00  0.00    +0.235 C 
ATOM      3  O   UNL     1       1.561  -2.562  -0.597  0.00  0.00    -0.274 OA
ATOM      4  H   UNL     1       2.912   0.204  -0.808  0.00  0.00    +0.150 HD
ENDROOT
BRANCH   1   9
ATOM      5  C   UNL     1      -0.053   1.408   0.004  0.00  0.00    +0.000 C 
ATOM      6  C   UNL     1       1.354   2.040  -0.009  0.00  0.00    +0.000 C 
ATOM      7  C   UNL     1       1.905   2.008   1.391  0.00  0.00    +0.003 C 
ATOM      8  C   UNL     1       2.779   0.766   1.652  0.00  0.00    +0.037 C 
ATOM      9  C   UNL     1       2.183  -0.521   1.050  0.00  0.00    +0.136 C 
ATOM     10  C   UNL     1       0.694  -0.615   1.252  0.00  0.00    +0.037 C 
ATOM     11  C   UNL     1      -0.007  -0.047   0.001  0.00  0.00    +0.003 C 
BRANCH   9  12
ATOM     12  C   UNL     1       2.839  -1.712   1.698  0.00  0.00    +0.379 C 
ATOM     13  O   UNL     1       2.754  -1.874   2.903  0.00  0.00    -0.244 OA
ATOM     14  O   UNL     1       3.456  -2.514   1.017  0.00  0.00    -0.244 OA
ENDBRANCH   9  12
ENDBRANCH   1   9
BRANCH   2  15
ATOM     15  C   UNL     1       2.410  -1.649  -2.601  0.00  0.00    +0.170 C 
ATOM     16  C   UNL     1       1.355  -0.789  -3.346  0.00  0.00    +0.110 C 
ATOM     17  S   UNL     1       1.222  -1.780  -4.894  0.00  0.00    -0.065 S 
ATOM     18  C   UNL     1       1.851  -3.326  -4.261  0.00  0.00    +0.273 C 
ATOM     19  O   UNL     1       1.803  -4.417  -4.795  0.00  0.00    -0.263 OA
ATOM     20  N   UNL     1       2.388  -3.025  -3.064  0.00  0.00    -0.294 N 
ATOM     21  H   UNL     1       2.762  -3.728  -2.511  0.00  0.00    +0.150 HD
ENDBRANCH   2  15
TORSDOF 3
