REMARK  Name = ZINC03265426
REMARK  8 active torsions:
REMARK  status: ('A' for Active; 'I' for Inactive)
REMARK    1  A    between atoms: C_1  and  O_2
REMARK    2  A    between atoms: O_2  and  C_3
REMARK    3  A    between atoms: C_6  and  C_12
REMARK    4  A    between atoms: C_8  and  N_9
REMARK    5  A    between atoms: N_14  and  C_15
REMARK    6  A    between atoms: C_15  and  N_17
REMARK    7  A    between atoms: N_17  and  C_18
REMARK    8  A    between atoms: C_27  and  O_28
REMARK                            x       y       z     vdW  Elec       q    Type
REMARK                         _______ _______ _______ _____ _____    ______ ____
ROOT
ATOM      1  C   UNL     1      -4.906   3.815  -0.318  0.00  0.00    +0.141 C 
ATOM      2  S   UNL     1      -5.016   5.452  -0.808  0.00  0.00    -0.018 S 
ENDROOT
BRANCH   1   5
ATOM      3  C   UNL     1      -2.608   3.847  -0.728  0.00  0.00    +0.250 C 
ATOM      4  O   UNL     1      -2.686   5.009  -1.076  0.00  0.00    -0.270 OA
ATOM      5  N   UNL     1      -3.714   3.187  -0.330  0.00  0.00    -0.264 N 
ATOM      6  H   UNL     1      -3.651   2.260  -0.052  0.00  0.00    +0.157 HD
BRANCH   3  10
ATOM      7  C   UNL     1       1.149   1.869  -0.763  0.00  0.00    +0.150 A 
ATOM      8  C   UNL     1       0.009   1.186  -0.353  0.00  0.00    +0.049 A 
ATOM      9  C   UNL     1      -1.212   1.822  -0.345  0.00  0.00    +0.017 A 
ATOM     10  C   UNL     1      -1.303   3.160  -0.740  0.00  0.00    +0.039 A 
ATOM     11  C   UNL     1      -0.155   3.843  -1.152  0.00  0.00    +0.049 A 
ATOM     12  C   UNL     1       1.061   3.197  -1.162  0.00  0.00    +0.168 A 
BRANCH  12  13
ATOM     13  N   UNL     1       2.277   3.920  -1.599  0.00  0.00    +0.060 N 
ATOM     14  O   UNL     1       2.202   5.084  -1.949  0.00  0.00    -0.126 OA
ATOM     15  O   UNL     1       3.354   3.350  -1.607  0.00  0.00    -0.126 OA
ENDBRANCH  12  13
BRANCH   7  17
ATOM     16  C   UNL     1       2.368  -0.128  -0.351  0.00  0.00    +0.277 C 
ATOM     17  O   UNL     1       2.349   1.237  -0.774  0.00  0.00    -0.493 OA
ENDBRANCH   7  17
ENDBRANCH   3  10
ENDBRANCH   1   5
BRANCH   1  18
ATOM     18  N   UNL     1      -6.012   3.155   0.080  0.00  0.00    -0.296 N 
ATOM     19  H   UNL     1      -5.964   2.207   0.281  0.00  0.00    +0.154 HD
BRANCH  18  20
ATOM     20  C   UNL     1      -7.225   3.835   0.201  0.00  0.00    +0.040 A 
ATOM     21  C   UNL     1      -7.271   5.071   0.809  0.00  0.00    +0.024 A 
ATOM     22  C   UNL     1      -8.475   5.759   0.929  0.00  0.00    +0.003 A 
ATOM     23  C   UNL     1      -9.639   5.228   0.462  0.00  0.00    +0.012 A 
ATOM     24  C   UNL     1      -9.634   3.968  -0.158  0.00  0.00    +0.025 A 
ATOM     25  C   UNL     1      -8.415   3.260  -0.292  0.00  0.00    +0.007 A 
ATOM     26  C   UNL     1      -8.414   2.000  -0.913  0.00  0.00    +0.010 A 
ATOM     27  C   UNL     1      -9.580   1.474  -1.378  0.00  0.00    +0.004 A 
ATOM     28  C   UNL     1     -10.782   2.165  -1.249  0.00  0.00    +0.046 A 
ATOM     29  C   UNL     1     -10.824   3.393  -0.651  0.00  0.00    +0.125 A 
BRANCH  29  30
ATOM     30  O   UNL     1     -12.004   4.055  -0.532  0.00  0.00    -0.506 OA
ATOM     31  H   UNL     1     -12.483   3.861   0.285  0.00  0.00    +0.292 HD
ENDBRANCH  29  30
ENDBRANCH  18  20
ENDBRANCH   1  18
TORSDOF 7
