REMARK  Name = ZINC40286257
REMARK  5 active torsions:
REMARK  status: ('A' for Active; 'I' for Inactive)
REMARK    1  A    between atoms: N_7  and  C_8
REMARK    2  A    between atoms: C_8  and  C_9
REMARK    3  A    between atoms: N_11  and  C_12
REMARK    4  A    between atoms: C_15  and  S_18
REMARK    5  A    between atoms: S_18  and  N_21
REMARK                            x       y       z     vdW  Elec       q    Type
REMARK                         _______ _______ _______ _____ _____    ______ ____
ROOT
ATOM      1  C   UNL     1       4.161   3.773   1.396  0.00  0.00    +0.237 C 
ATOM      2  O   UNL     1       3.853   3.041   2.313  0.00  0.00    -0.274 OA
ATOM      3  N   UNL     1       4.534   5.044   1.644  0.00  0.00    -0.284 N 
ATOM      4  H   UNL     1       4.843   5.609   0.919  0.00  0.00    +0.155 HD
ENDROOT
BRANCH   3   5
ATOM      5  C   UNL     1       4.473   5.549   2.948  0.00  0.00    +0.034 A 
ATOM      6  C   UNL     1       4.128   6.877   3.164  0.00  0.00    +0.025 A 
ATOM      7  C   UNL     1       4.070   7.372   4.452  0.00  0.00    +0.030 A 
ATOM      8  C   UNL     1       4.354   6.548   5.525  0.00  0.00    +0.105 A 
ATOM      9  C   UNL     1       4.698   5.226   5.313  0.00  0.00    +0.030 A 
ATOM     10  C   UNL     1       4.753   4.722   4.028  0.00  0.00    +0.025 A 
BRANCH   8  11
ATOM     11  S   UNL     1       4.278   7.184   7.167  0.00  0.00    +0.056 S 
ATOM     12  O   UNL     1       5.118   6.358   7.962  0.00  0.00    -0.153 OA
ATOM     13  O   UNL     1       4.465   8.589   7.067  0.00  0.00    -0.153 OA
BRANCH  11  14
ATOM     14  N   UNL     1       2.732   6.950   7.712  0.00  0.00    -0.204 NA
ATOM     15  H   UNL     1       2.074   6.527   7.138  0.00  0.00    +0.144 HD
ATOM     16  H   UNL     1       2.484   7.236   8.605  0.00  0.00    +0.144 HD
ENDBRANCH  11  14
ENDBRANCH   8  11
ENDBRANCH   3   5
BRANCH   1  17
ATOM     17  C   UNL     1       4.126   3.261  -0.021  0.00  0.00    +0.217 C 
BRANCH  17  24
ATOM     18  C   UNL     1      -0.015   1.393  -0.015  0.00  0.00    +0.003 A 
ATOM     19  C   UNL     1       1.162   2.109  -0.015  0.00  0.00    +0.026 A 
ATOM     20  C   UNL     1       2.381   1.440  -0.021  0.00  0.00    +0.051 A 
ATOM     21  C   UNL     1       2.398   0.033  -0.026  0.00  0.00    +0.018 A 
ATOM     22  C   UNL     1       3.811  -0.355  -0.032  0.00  0.00    +0.029 A 
ATOM     23  C   UNL     1       4.529   0.779  -0.030  0.00  0.00    +0.087 A 
ATOM     24  N   UNL     1       3.692   1.861  -0.024  0.00  0.00    -0.338 N 
ATOM     25  C   UNL     1       1.196  -0.678  -0.025  0.00  0.00    +0.050 A 
ATOM     26  C   UNL     1       0.000   0.005  -0.020  0.00  0.00    +0.021 A 
ATOM     27 CL   UNL     1       1.210  -2.414  -0.032  0.00  0.00    -0.083 Cl
ENDBRANCH  17  24
ENDBRANCH   1  17
TORSDOF 5
