REMARK  Name = ZINC40531123
REMARK  3 active torsions:
REMARK  status: ('A' for Active; 'I' for Inactive)
REMARK    1  A    between atoms: C_2  and  C_14
REMARK    2  A    between atoms: N_9  and  C_10
REMARK    3  A    between atoms: C_10  and  C_11
REMARK                            x       y       z     vdW  Elec       q    Type
REMARK                         _______ _______ _______ _____ _____    ______ ____
ROOT
ATOM      1  C   UNL     1      -0.023   1.844   0.012  0.00  0.00    +0.105 C 
ATOM      2  C   UNL     1       1.498   2.132  -0.001  0.00  0.00    +0.201 C 
ATOM      3  N   UNL     1       2.314   1.033  -0.488  0.00  0.00    -0.262 N 
ATOM      4  C   UNL     1       1.593  -0.184  -0.919  0.00  0.00    +0.179 C 
ATOM      5  S   UNL     1       0.002  -0.004   0.002  0.00  0.00    -0.139 S 
ATOM      6  C   UNL     1       3.658   1.118  -0.544  0.00  0.00    +0.304 C 
ATOM      7  O   UNL     1       4.219   2.134  -0.181  0.00  0.00    -0.253 OA
ATOM      8  N   UNL     1       4.381   0.077  -1.003  0.00  0.00    -0.291 N 
ATOM      9  H   UNL     1       3.933  -0.734  -1.292  0.00  0.00    +0.151 HD
ENDROOT
BRANCH   2  10
ATOM     10  C   UNL     1       1.750   3.334  -0.875  0.00  0.00    +0.377 C 
ATOM     11  O   UNL     1       1.416   4.444  -0.497  0.00  0.00    -0.244 OA
ATOM     12  O   UNL     1       2.288   3.196  -1.960  0.00  0.00    -0.244 OA
ENDBRANCH   2  10
BRANCH   8  13
ATOM     13  C   UNL     1       5.841   0.169  -1.064  0.00  0.00    +0.201 C 
BRANCH  13  14
ATOM     14  C   UNL     1       6.404  -1.119  -1.608  0.00  0.00    +0.228 C 
ATOM     15  O   UNL     1       5.658  -2.024  -1.915  0.00  0.00    -0.274 OA
ATOM     16  N   UNL     1       7.736  -1.264  -1.754  0.00  0.00    -0.328 N 
ATOM     17  H   UNL     1       8.332  -0.539  -1.509  0.00  0.00    +0.145 HD
ATOM     18  H   UNL     1       8.098  -2.092  -2.105  0.00  0.00    +0.145 HD
ENDBRANCH  13  14
ENDBRANCH   8  13
TORSDOF 3
