REMARK  Name = ZINC60864016
REMARK  8 active torsions:
REMARK  status: ('A' for Active; 'I' for Inactive)
REMARK    1  A    between atoms: C_1  and  N_2
REMARK    2  A    between atoms: C_6  and  N_7
REMARK    3  A    between atoms: N_7  and  C_8
REMARK    4  A    between atoms: C_11  and  O_18
REMARK    5  A    between atoms: C_12  and  S_14
REMARK    6  A    between atoms: S_14  and  N_17
REMARK    7  A    between atoms: O_18  and  C_19
REMARK    8  A    between atoms: N_22  and  C_25
REMARK                            x       y       z     vdW  Elec       q    Type
REMARK                         _______ _______ _______ _____ _____    ______ ____
ROOT
ATOM      1  N   UNL     1       0.150  -4.209  -2.282  0.00  0.00    -0.320 N 
ATOM      2  H   UNL     1       0.161  -4.665  -1.426  0.00  0.00    +0.152 HD
ENDROOT
BRANCH   1   8
ATOM      3  C   UNL     1       0.047   1.462   0.008  0.00  0.00    +0.143 C 
ATOM      4  N   UNL     1       0.040  -0.003   0.001  0.00  0.00    -0.224 N 
ATOM      5  C   UNL     1       0.039  -0.656  -1.180  0.00  0.00    +0.260 C 
ATOM      6  O   UNL     1       0.043  -0.045  -2.232  0.00  0.00    -0.269 OA
ATOM      7  C   UNL     1       0.032  -2.129  -1.160  0.00  0.00    +0.113 C 
ATOM      8  C   UNL     1       0.030  -2.867  -2.331  0.00  0.00    +0.090 C 
ATOM      9  C   UNL     1       0.027  -2.783   0.160  0.00  0.00    +0.260 C 
ATOM     10  O   UNL     1       0.022  -3.996   0.257  0.00  0.00    -0.269 OA
ATOM     11  N   UNL     1       0.030  -2.001   1.259  0.00  0.00    -0.224 N 
ATOM     12  C   UNL     1       0.041  -0.663   1.167  0.00  0.00    +0.317 C 
ATOM     13  O   UNL     1       0.048  -0.016   2.195  0.00  0.00    -0.252 OA
ATOM     14  C   UNL     1       0.025  -2.627   2.583  0.00  0.00    +0.143 C 
ENDBRANCH   1   8
BRANCH   1  15
ATOM     15  C   UNL     1       0.261  -4.945  -3.467  0.00  0.00    +0.033 A 
ATOM     16  C   UNL     1       0.252  -4.292  -4.694  0.00  0.00    +0.027 A 
ATOM     17  C   UNL     1       0.361  -5.019  -5.862  0.00  0.00    +0.049 A 
ATOM     18  C   UNL     1       0.480  -6.401  -5.812  0.00  0.00    +0.146 A 
ATOM     19  C   UNL     1       0.488  -7.053  -4.588  0.00  0.00    +0.148 A 
ATOM     20  C   UNL     1       0.385  -6.327  -3.418  0.00  0.00    +0.055 A 
BRANCH  19  21
ATOM     21  S   UNL     1       0.638  -8.807  -4.526  0.00  0.00    +0.059 S 
ATOM     22  O   UNL     1       1.731  -9.152  -5.367  0.00  0.00    -0.153 OA
ATOM     23  O   UNL     1       0.589  -9.171  -3.153  0.00  0.00    -0.153 OA
BRANCH  21  24
ATOM     24  N   UNL     1      -0.719  -9.440  -5.232  0.00  0.00    -0.203 NA
ATOM     25  H   UNL     1      -0.675 -10.294  -5.690  0.00  0.00    +0.144 HD
ATOM     26  H   UNL     1      -1.559  -8.956  -5.189  0.00  0.00    +0.144 HD
ENDBRANCH  21  24
ENDBRANCH  19  21
BRANCH  18  27
ATOM     27  O   UNL     1       0.587  -7.115  -6.964  0.00  0.00    -0.493 OA
ATOM     28  C   UNL     1       0.570  -6.379  -8.189  0.00  0.00    +0.277 C 
ENDBRANCH  18  27
ENDBRANCH   1  15
TORSDOF 5
