REMARK  Name = ZINC44925493
REMARK  4 active torsions:
REMARK  status: ('A' for Active; 'I' for Inactive)
REMARK    1  A    between atoms: C_3  and  N_9
REMARK    2  A    between atoms: C_4  and  N_8
REMARK    3  A    between atoms: N_9  and  C_10
REMARK    4  A    between atoms: C_10  and  C_11
REMARK                            x       y       z     vdW  Elec       q    Type
REMARK                         _______ _______ _______ _____ _____    ______ ____
ROOT
ATOM      1  C   UNL     1      -0.017   1.379   0.010  0.00  0.00    +0.017 A 
ATOM      2  C   UNL     1       1.169   2.090   0.002  0.00  0.00    +0.026 A 
ATOM      3  C   UNL     1       2.381   1.418  -0.013  0.00  0.00    +0.048 A 
ATOM      4  C   UNL     1       2.401   0.023  -0.021  0.00  0.00    +0.047 A 
ATOM      5  C   UNL     1       1.208  -0.683  -0.013  0.00  0.00    +0.039 A 
ATOM      6  C   UNL     1       0.002  -0.004   0.002  0.00  0.00    +0.020 A 
ATOM      7 BR   UNL     1      -1.624  -0.969   0.012  0.00  0.00    -0.050 Br
ENDROOT
BRANCH   4   8
ATOM      8  N   UNL     1       3.622  -0.662  -0.036  0.00  0.00    -0.357 N 
ATOM      9  H   UNL     1       4.456  -0.167  -0.042  0.00  0.00    +0.142 HD
ATOM     10  H   UNL     1       3.634  -1.632  -0.042  0.00  0.00    +0.142 HD
ENDBRANCH   4   8
BRANCH   3  11
ATOM     11  N   UNL     1       3.583   2.137  -0.021  0.00  0.00    -0.335 N 
ATOM     12  H   UNL     1       4.431   1.665  -0.032  0.00  0.00    +0.147 HD
BRANCH  11  13
ATOM     13  C   UNL     1       3.561   3.601  -0.014  0.00  0.00    +0.181 C 
BRANCH  13  14
ATOM     14  C   UNL     1       4.973   4.126  -0.025  0.00  0.00    +0.194 A 
ATOM     15  N   UNL     1       5.727   4.390   1.033  0.00  0.00    -0.110 NA
ATOM     16  N   UNL     1       6.865   4.817   0.604  0.00  0.00    -0.021 NA
ATOM     17  N   UNL     1       6.850   4.830  -0.683  0.00  0.00    -0.021 NA
ATOM     18  N   UNL     1       5.704   4.406  -1.094  0.00  0.00    -0.110 NA
ENDBRANCH  13  14
ENDBRANCH  11  13
ENDBRANCH   3  11
TORSDOF 4
