REMARK  Name = ZINC39859819
REMARK  9 active torsions:
REMARK  status: ('A' for Active; 'I' for Inactive)
REMARK    1  A    between atoms: C_1  and  C_2
REMARK    2  A    between atoms: N_4  and  C_5
REMARK    3  A    between atoms: C_8  and  N_11
REMARK    4  A    between atoms: N_11  and  C_12
REMARK    5  A    between atoms: C_12  and  N_14
REMARK    6  A    between atoms: N_14  and  C_15
REMARK    7  A    between atoms: C_15  and  C_17
REMARK    8  A    between atoms: C_15  and  N_21
REMARK    9  A    between atoms: C_22  and  C_24
REMARK                            x       y       z     vdW  Elec       q    Type
REMARK                         _______ _______ _______ _____ _____    ______ ____
ROOT
ATOM      1  N   UNL     1      -2.771  -8.196  -0.263  0.00  0.00    -0.305 N 
ATOM      2  H   UNL     1      -1.962  -8.729  -0.232  0.00  0.00    +0.150 HD
ENDROOT
BRANCH   1   3
ATOM      3  C   UNL     1      -2.698  -6.854  -0.157  0.00  0.00    +0.136 C 
ATOM      4  S   UNL     1      -4.127  -5.912  -0.211  0.00  0.00    -0.019 S 
BRANCH   3   5
ATOM      5  N   UNL     1      -1.501  -6.254  -0.009  0.00  0.00    -0.297 N 
ATOM      6  H   UNL     1      -0.697  -6.790   0.077  0.00  0.00    +0.154 HD
BRANCH   5  10
ATOM      7  C   UNL     1      -1.252  -2.092   0.085  0.00  0.00    +0.033 A 
ATOM      8  C   UNL     1      -2.250  -2.744   0.797  0.00  0.00    +0.025 A 
ATOM      9  C   UNL     1      -2.333  -4.122   0.766  0.00  0.00    +0.025 A 
ATOM     10  C   UNL     1      -1.417  -4.856   0.023  0.00  0.00    +0.033 A 
ATOM     11  C   UNL     1      -0.419  -4.204  -0.689  0.00  0.00    +0.025 A 
ATOM     12  C   UNL     1      -0.340  -2.826  -0.662  0.00  0.00    +0.025 A 
BRANCH   7  16
ATOM     13  C   UNL     1      -0.768   1.490  -0.972  0.00  0.00    +0.109 C 
ATOM     14  C   UNL     1      -0.795  -0.016  -0.987  0.00  0.00    +0.214 C 
ATOM     15  O   UNL     1      -0.481  -0.619  -1.992  0.00  0.00    -0.276 OA
ATOM     16  N   UNL     1      -1.168  -0.694   0.117  0.00  0.00    -0.286 N 
ATOM     17  H   UNL     1      -1.378  -0.214   0.933  0.00  0.00    +0.155 HD
ENDBRANCH   7  16
ENDBRANCH   5  10
ENDBRANCH   3   5
ENDBRANCH   1   3
BRANCH   1  18
ATOM     18  C   UNL     1      -4.073  -8.848  -0.424  0.00  0.00    +0.211 C 
BRANCH  18  19
ATOM     19  C   UNL     1      -4.154 -10.061   0.505  0.00  0.00    +0.225 C 
ATOM     20 CL   UNL     1      -3.960  -9.521   2.215  0.00  0.00    -0.080 Cl
ATOM     21 CL   UNL     1      -5.756 -10.864   0.307  0.00  0.00    -0.080 Cl
ATOM     22 CL   UNL     1      -2.842 -11.226   0.090  0.00  0.00    -0.080 Cl
ENDBRANCH  18  19
BRANCH  18  23
ATOM     23  N   UNL     1      -4.230  -9.286  -1.813  0.00  0.00    -0.289 N 
ATOM     24  C   UNL     1      -5.042  -8.606  -2.647  0.00  0.00    +0.252 C 
ATOM     25  O   UNL     1      -5.643  -7.627  -2.245  0.00  0.00    -0.270 OA
ATOM     26  H   UNL     1      -3.751 -10.067  -2.133  0.00  0.00    +0.151 HD
BRANCH  24  27
ATOM     27  C   UNL     1      -5.199  -9.044  -4.037  0.00  0.00    +0.074 A 
ATOM     28  C   UNL     1      -5.970  -8.488  -5.046  0.00  0.00    +0.021 A 
ATOM     29  C   UNL     1      -5.915  -9.129  -6.261  0.00  0.00    +0.008 A 
ATOM     30  C   UNL     1      -5.134 -10.229  -6.391  0.00  0.00    +0.046 A 
ATOM     31  S   UNL     1      -4.444 -10.426  -4.872  0.00  0.00    -0.092 S 
ENDBRANCH  24  27
ENDBRANCH  18  23
ENDBRANCH   1  18
TORSDOF 8
