REMARK  Name = ZINC35469804
REMARK  14 active torsions:
REMARK  status: ('A' for Active; 'I' for Inactive)
REMARK    1  A    between atoms: C_1  and  C_2
REMARK    2  A    between atoms: C_2  and  O_3
REMARK    3  A    between atoms: O_3  and  C_4
REMARK    4  A    between atoms: C_7  and  N_10
REMARK    5  A    between atoms: N_13  and  C_14
REMARK    6  A    between atoms: N_13  and  C_18
REMARK    7  A    between atoms: C_14  and  C_15
REMARK    8  A    between atoms: C_15  and  O_16
REMARK    9  A    between atoms: O_16  and  C_17
REMARK   10  A    between atoms: C_18  and  C_19
REMARK   11  A    between atoms: C_29  and  C_31
REMARK   12  A    between atoms: C_34  and  C_37
REMARK   13  A    between atoms: C_37  and  C_38
REMARK   14  A    between atoms: C_37  and  C_39
REMARK                            x       y       z     vdW  Elec       q    Type
REMARK                         _______ _______ _______ _____ _____    ______ ____
ROOT
ATOM      1  C   UNL     1       3.686  -8.595  -4.208  0.00  0.00    +0.234 C 
ATOM      2  O   UNL     1       4.186  -8.357  -3.128  0.00  0.00    -0.274 OA
ATOM      3  N   UNL     1       4.441  -9.101  -5.203  0.00  0.00    -0.286 N 
ATOM      4  C   UNL     1       3.858  -9.391  -6.522  0.00  0.00    +0.130 C 
ATOM      5  C   UNL     1       4.511  -8.487  -7.573  0.00  0.00    +0.140 C 
ATOM      6  N   UNL     1       5.965  -8.498  -7.384  0.00  0.00    -0.347 N 
ATOM      7  C   UNL     1       6.910  -8.131  -8.292  0.00  0.00    +0.086 A 
ATOM      8  C   UNL     1       8.125  -8.280  -7.722  0.00  0.00    +0.019 A 
ATOM      9  C   UNL     1       7.921  -8.761  -6.412  0.00  0.00    +0.025 A 
ATOM     10  C   UNL     1       6.597  -8.889  -6.235  0.00  0.00    +0.044 A 
ATOM     11  C   UNL     1       5.876  -9.374  -5.003  0.00  0.00    +0.153 C 
ENDROOT
BRANCH  11  12
ATOM     12  C   UNL     1       6.099 -10.854  -4.833  0.00  0.00    -0.021 A 
ATOM     13  C   UNL     1       6.575 -11.348  -3.632  0.00  0.00    +0.006 A 
ATOM     14  C   UNL     1       6.779 -12.706  -3.476  0.00  0.00    +0.004 A 
ATOM     15  C   UNL     1       6.507 -13.571  -4.519  0.00  0.00    -0.045 A 
ATOM     16  C   UNL     1       6.030 -13.078  -5.719  0.00  0.00    +0.004 A 
ATOM     17  C   UNL     1       5.822 -11.720  -5.875  0.00  0.00    +0.006 A 
BRANCH  15  18
ATOM     18  C   UNL     1       6.731 -15.051  -4.349  0.00  0.00    +0.013 C 
ATOM     19  C   UNL     1       5.409 -15.794  -4.554  0.00  0.00    +0.012 C 
ATOM     20  C   UNL     1       7.753 -15.535  -5.380  0.00  0.00    +0.012 C 
ENDBRANCH  15  18
ENDBRANCH  11  12
BRANCH   1  21
ATOM     21  C   UNL     1       2.221  -8.324  -4.436  0.00  0.00    +0.205 C 
BRANCH  21  25
ATOM     22  N   UNL     1       1.066  -5.949  -1.878  0.00  0.00    -0.269 N 
ATOM     23  C   UNL     1       1.611  -6.449  -3.004  0.00  0.00    +0.307 C 
ATOM     24  O   UNL     1       2.087  -5.698  -3.834  0.00  0.00    -0.252 OA
ATOM     25  N   UNL     1       1.628  -7.780  -3.211  0.00  0.00    -0.274 N 
ATOM     26  H   UNL     1       0.743  -6.549  -1.187  0.00  0.00    +0.156 HD
BRANCH  22  30
ATOM     27  C   UNL     1       0.766  -1.821  -1.361  0.00  0.00    +0.121 A 
ATOM     28  C   UNL     1       1.858  -2.359  -2.026  0.00  0.00    +0.047 A 
ATOM     29  C   UNL     1       1.958  -3.726  -2.197  0.00  0.00    +0.027 A 
ATOM     30  C   UNL     1       0.965  -4.562  -1.704  0.00  0.00    +0.035 A 
ATOM     31  C   UNL     1      -0.127  -4.023  -1.038  0.00  0.00    +0.027 A 
ATOM     32  C   UNL     1      -0.224  -2.656  -0.863  0.00  0.00    +0.047 A 
BRANCH  27  33
ATOM     33  O   UNL     1       0.668  -0.476  -1.192  0.00  0.00    -0.492 OA
BRANCH  33  35
ATOM     34  C   UNL     1       1.441   1.800  -1.445  0.00  0.00    +0.048 C 
ATOM     35  C   UNL     1       1.723   0.324  -1.731  0.00  0.00    +0.225 C 
ENDBRANCH  33  35
ENDBRANCH  27  33
ENDBRANCH  22  30
BRANCH  25  36
ATOM     36  C   UNL     1       1.054  -8.684  -2.211  0.00  0.00    +0.138 C 
BRANCH  36  37
ATOM     37  C   UNL     1      -0.426  -8.913  -2.521  0.00  0.00    +0.178 C 
BRANCH  37  38
ATOM     38  O   UNL     1      -0.551  -9.600  -3.768  0.00  0.00    -0.381 OA
ATOM     39  C   UNL     1      -1.902  -9.865  -4.153  0.00  0.00    +0.194 C 
ENDBRANCH  37  38
ENDBRANCH  36  37
ENDBRANCH  25  36
ENDBRANCH  21  25
ENDBRANCH   1  21
TORSDOF 10
