REMARK  Name = ZINC20690163
REMARK  6 active torsions:
REMARK  status: ('A' for Active; 'I' for Inactive)
REMARK    1  A    between atoms: C_1  and  C_2
REMARK    2  A    between atoms: C_5  and  N_27
REMARK    3  A    between atoms: C_9  and  C_18
REMARK    4  A    between atoms: C_21  and  O_25
REMARK    5  A    between atoms: C_22  and  O_24
REMARK    6  A    between atoms: O_25  and  C_26
REMARK                            x       y       z     vdW  Elec       q    Type
REMARK                         _______ _______ _______ _____ _____    ______ ____
ROOT
ATOM      1  C   UNL     1      -4.629   3.415   0.102  0.00  0.00    +0.045 C 
ATOM      2  C   UNL     1      -3.207   2.920   0.171  0.00  0.00    -0.029 A 
ATOM      3  C   UNL     1      -2.956   1.566   0.145  0.00  0.00    +0.007 A 
ATOM      4  C   UNL     1      -1.656   1.097   0.201  0.00  0.00    +0.033 A 
ATOM      5  C   UNL     1      -0.609   1.996   0.286  0.00  0.00    +0.132 A 
ATOM      6  C   UNL     1      -0.851   3.352   0.310  0.00  0.00    +0.011 A 
ATOM      7  C   UNL     1      -2.160   3.840   0.260  0.00  0.00    +0.037 A 
ATOM      8  N   UNL     1      -2.493   5.192   0.305  0.00  0.00    -0.336 N 
ATOM      9  C   UNL     1      -1.375   6.149   0.312  0.00  0.00    +0.105 C 
ATOM     10  C   UNL     1      -0.289   5.558   1.188  0.00  0.00    +0.029 C 
ATOM     11  C   UNL     1       0.250   4.338   0.377  0.00  0.00    +0.051 C 
ATOM     12  C   UNL     1       1.546   4.045   1.037  0.00  0.00    -0.023 C 
ATOM     13  C   UNL     1       2.022   5.172   1.555  0.00  0.00    -0.030 C 
ATOM     14  C   UNL     1       1.037   6.317   1.303  0.00  0.00    +0.033 C 
ATOM     15  H   UNL     1      -3.530   5.558   0.336  0.00  0.00    +0.147 HD
ENDROOT
BRANCH   9  16
ATOM     16  C   UNL     1      -0.855   6.344  -1.089  0.00  0.00    -0.023 A 
ATOM     17  C   UNL     1      -0.160   7.495  -1.413  0.00  0.00    +0.009 A 
ATOM     18  C   UNL     1       0.323   7.676  -2.695  0.00  0.00    +0.050 A 
ATOM     19  C   UNL     1       0.102   6.708  -3.662  0.00  0.00    +0.161 A 
ATOM     20  C   UNL     1      -0.602   5.553  -3.338  0.00  0.00    +0.159 A 
ATOM     21  C   UNL     1      -1.079   5.375  -2.049  0.00  0.00    +0.054 A 
BRANCH  20  22
ATOM     22  O   UNL     1      -0.821   4.600  -4.283  0.00  0.00    -0.503 OA
ATOM     23  H   UNL     1      -1.377   3.687  -4.025  0.00  0.00    +0.292 HD
ENDBRANCH  20  22
BRANCH  19  24
ATOM     24  O   UNL     1       0.573   6.887  -4.926  0.00  0.00    -0.491 OA
ATOM     25  C   UNL     1       1.287   8.097  -5.186  0.00  0.00    +0.277 C 
ENDBRANCH  19  24
ENDBRANCH   9  16
BRANCH   5  26
ATOM     26  N   UNL     1       0.783   1.497   0.344  0.00  0.00    +0.057 N 
ATOM     27  O   UNL     1       1.625   1.952  -0.409  0.00  0.00    -0.126 OA
ATOM     28  O   UNL     1       1.088   0.635   1.149  0.00  0.00    -0.126 OA
ENDBRANCH   5  26
TORSDOF 4
