REMARK  Name = ZINC08386083
REMARK  8 active torsions:
REMARK  status: ('A' for Active; 'I' for Inactive)
REMARK    1  A    between atoms: C_1  and  C_2
REMARK    2  A    between atoms: N_4  and  C_5
REMARK    3  A    between atoms: C_5  and  N_7
REMARK    4  A    between atoms: N_7  and  C_8
REMARK    5  A    between atoms: C_11  and  N_14
REMARK    6  A    between atoms: N_14  and  C_15
REMARK    7  A    between atoms: C_15  and  N_17
REMARK    8  A    between atoms: C_18  and  C_20
REMARK                            x       y       z     vdW  Elec       q    Type
REMARK                         _______ _______ _______ _____ _____    ______ ____
ROOT
ATOM      1  N   UNL     1      -4.272   4.367   0.358  0.00  0.00    -0.297 N 
ATOM      2  H   UNL     1      -4.531   4.812  -0.464  0.00  0.00    +0.154 HD
ENDROOT
BRANCH   1   6
ATOM      3  C   UNL     1      -1.096   1.666   0.359  0.00  0.00    +0.033 A 
ATOM      4  C   UNL     1      -0.968   2.888  -0.288  0.00  0.00    +0.025 A 
ATOM      5  C   UNL     1      -2.021   3.780  -0.293  0.00  0.00    +0.025 A 
ATOM      6  C   UNL     1      -3.205   3.460   0.359  0.00  0.00    +0.033 A 
ATOM      7  C   UNL     1      -3.331   2.240   1.010  0.00  0.00    +0.025 A 
ATOM      8  C   UNL     1      -2.280   1.346   1.010  0.00  0.00    +0.025 A 
BRANCH   3   9
ATOM      9  N   UNL     1      -0.029   0.758   0.360  0.00  0.00    -0.297 N 
ATOM     10  H   UNL     1       0.871   1.068   0.547  0.00  0.00    +0.154 HD
BRANCH   9  11
ATOM     11  C   UNL     1      -0.253  -0.546   0.105  0.00  0.00    +0.141 C 
ATOM     12  S   UNL     1      -1.854  -1.111  -0.119  0.00  0.00    -0.018 S 
BRANCH  11  16
ATOM     13  C   UNL     1       1.715  -3.670  -0.316  0.00  0.00    +0.109 C 
ATOM     14  C   UNL     1       0.557  -2.709  -0.228  0.00  0.00    +0.215 C 
ATOM     15  O   UNL     1      -0.576  -3.110  -0.387  0.00  0.00    -0.276 OA
ATOM     16  N   UNL     1       0.782  -1.405   0.026  0.00  0.00    -0.268 N 
ATOM     17  H   UNL     1       1.689  -1.085   0.153  0.00  0.00    +0.156 HD
ENDBRANCH  11  16
ENDBRANCH   9  11
ENDBRANCH   3   9
ENDBRANCH   1   6
BRANCH   1  18
ATOM     18  C   UNL     1      -4.939   4.623   1.501  0.00  0.00    +0.141 C 
ATOM     19  S   UNL     1      -4.555   3.760   2.929  0.00  0.00    -0.018 S 
BRANCH  18  20
ATOM     20  N   UNL     1      -5.910   5.559   1.520  0.00  0.00    -0.264 N 
ATOM     21  C   UNL     1      -6.577   5.814   2.662  0.00  0.00    +0.251 C 
ATOM     22  O   UNL     1      -6.304   5.202   3.676  0.00  0.00    -0.270 OA
ATOM     23  H   UNL     1      -6.128   6.048   0.711  0.00  0.00    +0.157 HD
BRANCH  21  24
ATOM     24  C   UNL     1      -7.640   6.839   2.683  0.00  0.00    +0.055 A 
ATOM     25  C   UNL     1      -7.957   7.545   1.520  0.00  0.00    +0.016 A 
ATOM     26  C   UNL     1      -8.950   8.500   1.545  0.00  0.00    +0.021 A 
ATOM     27  C   UNL     1      -9.635   8.762   2.721  0.00  0.00    +0.042 A 
ATOM     28  C   UNL     1      -9.327   8.067   3.878  0.00  0.00    +0.040 A 
ATOM     29  C   UNL     1      -8.338   7.103   3.865  0.00  0.00    +0.054 A 
ATOM     30 CL   UNL     1      -7.958   6.226   5.314  0.00  0.00    -0.083 Cl
ATOM     31 CL   UNL     1     -10.884   9.967   2.743  0.00  0.00    -0.083 Cl
ENDBRANCH  21  24
ENDBRANCH  18  20
ENDBRANCH   1  18
TORSDOF 7
