REMARK  Name = ZINC39361565
REMARK  7 active torsions:
REMARK  status: ('A' for Active; 'I' for Inactive)
REMARK    1  A    between atoms: C_4  and  N_7
REMARK    2  A    between atoms: C_8  and  C_27
REMARK    3  A    between atoms: C_12  and  S_13
REMARK    4  A    between atoms: S_13  and  C_14
REMARK    5  A    between atoms: C_14  and  C_15
REMARK    6  A    between atoms: N_17  and  C_18
REMARK    7  A    between atoms: C_27  and  C_28
REMARK                            x       y       z     vdW  Elec       q    Type
REMARK                         _______ _______ _______ _____ _____    ______ ____
ROOT
ATOM      1  N   UNL     1       3.623  -0.648  -0.006  0.00  0.00    -0.258 N 
ATOM      2  C   UNL     1       3.821  -2.105   0.088  0.00  0.00    +0.187 C 
ATOM      3  N   UNL     1       5.283  -2.269   0.022  0.00  0.00    -0.246 N 
ATOM      4  N   UNL     1       5.815  -0.979  -0.098  0.00  0.00    -0.162 NA
ATOM      5  C   UNL     1       4.886  -0.084  -0.119  0.00  0.00    +0.180 C 
ATOM      6  H   UNL     1       5.778  -3.102   0.056  0.00  0.00    +0.170 HD
ENDROOT
BRANCH   1  10
ATOM      7  C   UNL     1      -0.015   1.377   0.042  0.00  0.00    +0.000 A 
ATOM      8  C   UNL     1       0.284   0.520  -1.002  0.00  0.00    +0.002 A 
ATOM      9  C   UNL     1       1.490  -0.153  -1.021  0.00  0.00    +0.023 A 
ATOM     10  C   UNL     1       2.403   0.032   0.010  0.00  0.00    +0.037 A 
ATOM     11  C   UNL     1       2.099   0.894   1.056  0.00  0.00    +0.023 A 
ATOM     12  C   UNL     1       0.892   1.563   1.069  0.00  0.00    +0.002 A 
ENDBRANCH   1  10
BRANCH   5  13
ATOM     13  S   UNL     1       5.184   1.646  -0.267  0.00  0.00    -0.079 S 
BRANCH  13  14
ATOM     14  C   UNL     1       6.991   1.772  -0.377  0.00  0.00    +0.173 C 
BRANCH  14  15
ATOM     15  C   UNL     1       7.386   3.220  -0.509  0.00  0.00    +0.227 C 
ATOM     16  O   UNL     1       6.533   4.082  -0.527  0.00  0.00    -0.275 OA
ATOM     17  N   UNL     1       8.687   3.557  -0.606  0.00  0.00    -0.285 N 
ATOM     18  H   UNL     1       9.364   2.865  -0.670  0.00  0.00    +0.155 HD
BRANCH  17  19
ATOM     19  C   UNL     1       9.062   4.907  -0.616  0.00  0.00    +0.037 A 
ATOM     20  C   UNL     1      10.139   5.322  -1.388  0.00  0.00    +0.027 A 
ATOM     21  C   UNL     1      10.510   6.654  -1.399  0.00  0.00    +0.051 A 
ATOM     22  C   UNL     1       9.809   7.577  -0.640  0.00  0.00    +0.166 A 
ATOM     23  C   UNL     1       8.729   7.163   0.135  0.00  0.00    +0.168 A 
ATOM     24  C   UNL     1       8.354   5.830   0.141  0.00  0.00    +0.072 A 
ATOM     25  O   UNL     1       8.214   8.249   0.781  0.00  0.00    -0.453 OA
ATOM     26  C   UNL     1       9.239   9.258   0.715  0.00  0.00    +0.466 C 
ATOM     27  O   UNL     1       9.971   8.924  -0.479  0.00  0.00    -0.453 OA
ENDBRANCH  17  19
ENDBRANCH  14  15
ENDBRANCH  13  14
ENDBRANCH   5  13
BRANCH   2  28
ATOM     28  C   UNL     1       3.277  -2.636   1.416  0.00  0.00    +0.097 C 
BRANCH  28  29
ATOM     29  C   UNL     1       3.492  -4.126   1.486  0.00  0.00    +0.029 A 
ATOM     30  N   UNL     1       2.584  -4.979   0.919  0.00  0.00    -0.311 N 
ATOM     31  C   UNL     1       2.766  -6.311   0.977  0.00  0.00    +0.327 A 
ATOM     32  O   UNL     1       1.947  -7.050   0.466  0.00  0.00    -0.247 OA
ATOM     33  N   UNL     1       3.843  -6.836   1.590  0.00  0.00    -0.275 N 
ATOM     34  C   UNL     1       4.761  -6.029   2.161  0.00  0.00    +0.254 A 
ATOM     35  O   UNL     1       5.735  -6.504   2.716  0.00  0.00    -0.268 OA
ATOM     36  C   UNL     1       4.583  -4.626   2.104  0.00  0.00    +0.091 A 
ATOM     37  H   UNL     1       3.959  -7.798   1.622  0.00  0.00    +0.173 HD
ATOM     38  H   UNL     1       1.802  -4.620   0.473  0.00  0.00    +0.170 HD
ENDBRANCH  28  29
ENDBRANCH   2  28
TORSDOF 7
