REMARK  Name = ZINC02220150
REMARK  10 active torsions:
REMARK  status: ('A' for Active; 'I' for Inactive)
REMARK    1  A    between atoms: C_1  and  C_2
REMARK    2  A    between atoms: N_4  and  C_5
REMARK    3  A    between atoms: C_8  and  N_11
REMARK    4  A    between atoms: C_12  and  C_14
REMARK    5  A    between atoms: C_14  and  S_15
REMARK    6  A    between atoms: S_15  and  C_16
REMARK    7  A    between atoms: C_17  and  C_37
REMARK    8  A    between atoms: C_18  and  C_30
REMARK    9  A    between atoms: C_24  and  C_28
REMARK   10  A    between atoms: C_24  and  C_29
REMARK                            x       y       z     vdW  Elec       q    Type
REMARK                         _______ _______ _______ _____ _____    ______ ____
ROOT
ATOM      1  C   UNL     1       0.341 -10.927  -3.211  0.00  0.00    +0.080 C 
ATOM      2  C   UNL     1       0.479 -11.783  -4.259  0.00  0.00    +0.069 C 
ATOM      3  C   UNL     1       0.560 -13.266  -4.041  0.00  0.00    +0.097 C 
ATOM      4  C   UNL     1       0.046 -13.645  -2.675  0.00  0.00    +0.024 C 
ATOM      5  C   UNL     1      -0.300 -14.988  -2.449  0.00  0.00    +0.162 C 
ATOM      6  O   UNL     1      -0.193 -15.793  -3.353  0.00  0.00    -0.292 OA
ATOM      7  C   UNL     1      -0.800 -15.449  -1.107  0.00  0.00    +0.086 C 
ATOM      8  C   UNL     1      -0.211 -14.545  -0.019  0.00  0.00    -0.023 C 
ATOM      9  C   UNL     1      -0.594 -13.097  -0.332  0.00  0.00    +0.058 C 
ATOM     10  C   UNL     1      -0.076 -12.721  -1.699  0.00  0.00    +0.016 C 
ATOM     11  N   UNL     1       0.269 -11.415  -1.927  0.00  0.00    -0.311 N 
ATOM     12  C   UNL     1      -0.780 -14.944   1.344  0.00  0.00    +0.011 C 
ATOM     13  C   UNL     1       1.313 -14.683  -0.005  0.00  0.00    +0.011 C 
ATOM     14  H   UNL     1       0.461 -10.828  -1.178  0.00  0.00    +0.152 HD
ENDROOT
BRANCH   3  15
ATOM     15  C   UNL     1       1.996 -13.706  -4.167  0.00  0.00    -0.035 A 
ATOM     16  C   UNL     1       2.954 -13.190  -3.314  0.00  0.00    +0.006 A 
ATOM     17  C   UNL     1       4.271 -13.594  -3.429  0.00  0.00    +0.020 A 
ATOM     18  C   UNL     1       4.630 -14.514  -4.398  0.00  0.00    +0.041 A 
ATOM     19  C   UNL     1       3.671 -15.030  -5.251  0.00  0.00    +0.020 A 
ATOM     20  C   UNL     1       2.354 -14.630  -5.131  0.00  0.00    +0.006 A 
ATOM     21 CL   UNL     1       6.285 -15.021  -4.543  0.00  0.00    -0.084 Cl
ENDBRANCH   3  15
BRANCH   2  22
ATOM     22  C   UNL     1       0.549 -11.262  -5.590  0.00  0.00    +0.098 C 
ATOM     23  N   UNL     1       0.604 -10.848  -6.647  0.00  0.00    -0.191 NA
ENDBRANCH   2  22
BRANCH   1  24
ATOM     24  S   UNL     1       0.261  -9.190  -3.499  0.00  0.00    -0.100 S 
BRANCH  24  25
ATOM     25  C   UNL     1       0.089  -8.478  -1.839  0.00  0.00    +0.171 C 
BRANCH  25  27
ATOM     26  N   UNL     1      -0.123  -6.230  -0.829  0.00  0.00    -0.285 N 
ATOM     27  C   UNL     1       0.009  -6.977  -1.943  0.00  0.00    +0.227 C 
ATOM     28  O   UNL     1       0.062  -6.440  -3.030  0.00  0.00    -0.275 OA
ATOM     29  H   UNL     1      -0.233  -6.661   0.033  0.00  0.00    +0.155 HD
BRANCH  26  33
ATOM     30  C   UNL     1      -0.055  -2.069  -1.087  0.00  0.00    +0.033 A 
ATOM     31  C   UNL     1       0.500  -2.706   0.016  0.00  0.00    +0.025 A 
ATOM     32  C   UNL     1       0.477  -4.083   0.101  0.00  0.00    +0.025 A 
ATOM     33  C   UNL     1      -0.100  -4.833  -0.915  0.00  0.00    +0.034 A 
ATOM     34  C   UNL     1      -0.655  -4.196  -2.018  0.00  0.00    +0.025 A 
ATOM     35  C   UNL     1      -0.637  -2.818  -2.101  0.00  0.00    +0.025 A 
BRANCH  30  39
ATOM     36  C   UNL     1      -1.089   1.493  -1.737  0.00  0.00    +0.109 C 
ATOM     37  C   UNL     1      -1.065  -0.014  -1.737  0.00  0.00    +0.214 C 
ATOM     38  O   UNL     1      -1.975  -0.635  -2.244  0.00  0.00    -0.276 OA
ATOM     39  N   UNL     1      -0.032  -0.671  -1.173  0.00  0.00    -0.286 N 
ATOM     40  H   UNL     1       0.727  -0.176  -0.828  0.00  0.00    +0.155 HD
ENDBRANCH  30  39
ENDBRANCH  26  33
ENDBRANCH  25  27
ENDBRANCH  24  25
ENDBRANCH   1  24
TORSDOF 7
