REMARK  Name = ZINC13639563
REMARK  6 active torsions:
REMARK  status: ('A' for Active; 'I' for Inactive)
REMARK    1  A    between atoms: C_4  and  N_7
REMARK    2  A    between atoms: N_7  and  S_8
REMARK    3  A    between atoms: S_8  and  C_11
REMARK    4  A    between atoms: C_24  and  C_27
REMARK    5  A    between atoms: C_30  and  O_34
REMARK    6  A    between atoms: C_32  and  O_33
REMARK                            x       y       z     vdW  Elec       q    Type
REMARK                         _______ _______ _______ _____ _____    ______ ____
ROOT
ATOM      1  C   UNL     1      -4.725   4.714   2.184  0.00  0.00    +0.109 A 
ATOM      2  C   UNL     1      -5.173   3.722   3.038  0.00  0.00    +0.030 A 
ATOM      3  C   UNL     1      -4.439   2.562   3.184  0.00  0.00    +0.025 A 
ATOM      4  C   UNL     1      -3.256   2.394   2.476  0.00  0.00    +0.031 A 
ATOM      5  C   UNL     1      -2.807   3.368   1.615  0.00  0.00    -0.018 A 
ATOM      6  C   UNL     1      -3.550   4.548   1.480  0.00  0.00    +0.034 A 
ATOM      7  C   UNL     1      -1.538   3.249   0.833  0.00  0.00    +0.049 C 
ATOM      8  C   UNL     1      -1.812   2.956  -0.623  0.00  0.00    -0.023 C 
ATOM      9  C   UNL     1      -0.907   2.134  -1.098  0.00  0.00    -0.030 C 
ATOM     10  C   UNL     1       0.098   1.771  -0.022  0.00  0.00    +0.033 C 
ATOM     11  C   UNL     1      -0.665   2.066   1.303  0.00  0.00    +0.029 C 
ATOM     12  C   UNL     1      -1.552   0.852   1.597  0.00  0.00    +0.108 C 
ATOM     13  N   UNL     1      -2.524   1.213   2.634  0.00  0.00    -0.336 N 
ATOM     14  H   UNL     1      -2.656   0.646   3.410  0.00  0.00    +0.147 HD
ENDROOT
BRANCH  12  15
ATOM     15  C   UNL     1      -2.277   0.441   0.342  0.00  0.00    +0.015 A 
ATOM     16  C   UNL     1      -3.508   0.995   0.043  0.00  0.00    +0.012 A 
ATOM     17  C   UNL     1      -4.174   0.624  -1.109  0.00  0.00    +0.046 A 
ATOM     18  C   UNL     1      -3.613  -0.314  -1.965  0.00  0.00    +0.120 A 
ATOM     19  C   UNL     1      -2.382  -0.875  -1.665  0.00  0.00    +0.091 A 
ATOM     20  C   UNL     1      -1.713  -0.498  -0.510  0.00  0.00    +0.125 A 
BRANCH  20  21
ATOM     21  O   UNL     1      -0.506  -1.046  -0.213  0.00  0.00    -0.506 OA
ATOM     22  H   UNL     1      -0.560  -1.853   0.318  0.00  0.00    +0.292 HD
ENDBRANCH  20  21
BRANCH  18  23
ATOM     23  O   UNL     1      -4.271  -0.682  -3.095  0.00  0.00    -0.507 OA
ATOM     24  H   UNL     1      -4.864  -1.436  -2.978  0.00  0.00    +0.292 HD
ENDBRANCH  18  23
ENDBRANCH  12  15
BRANCH   1  25
ATOM     25  S   UNL     1      -5.659   6.196   1.995  0.00  0.00    +0.072 S 
ATOM     26  O   UNL     1      -5.381   6.688   0.691  0.00  0.00    -0.150 OA
ATOM     27  O   UNL     1      -6.978   5.904   2.434  0.00  0.00    -0.150 OA
BRANCH  25  28
ATOM     28  N   UNL     1      -5.040   7.304   3.060  0.00  0.00    -0.216 N 
ATOM     29  H   UNL     1      -5.589   7.637   3.786  0.00  0.00    +0.174 HD
BRANCH  28  33
ATOM     30  C   UNL     1      -1.127   8.658   2.617  0.00  0.00    +0.000 A 
ATOM     31  C   UNL     1      -2.115   9.109   1.761  0.00  0.00    +0.002 A 
ATOM     32  C   UNL     1      -3.413   8.662   1.904  0.00  0.00    +0.024 A 
ATOM     33  C   UNL     1      -3.727   7.758   2.911  0.00  0.00    +0.048 A 
ATOM     34  C   UNL     1      -2.734   7.310   3.773  0.00  0.00    +0.024 A 
ATOM     35  C   UNL     1      -1.437   7.757   3.621  0.00  0.00    +0.002 A 
ENDBRANCH  28  33
ENDBRANCH  25  28
ENDBRANCH   1  25
TORSDOF 6
