REMARK  Name = ZINC17027684
REMARK  10 active torsions:
REMARK  status: ('A' for Active; 'I' for Inactive)
REMARK    1  A    between atoms: C_1  and  C_2
REMARK    2  A    between atoms: C_5  and  S_8
REMARK    3  A    between atoms: S_8  and  C_9
REMARK    4  A    between atoms: C_9  and  C_10
REMARK    5  A    between atoms: C_15  and  N_18
REMARK    6  A    between atoms: N_20  and  C_21
REMARK    7  A    between atoms: C_23  and  O_29
REMARK    8  A    between atoms: C_25  and  O_27
REMARK    9  A    between atoms: O_27  and  C_28
REMARK   10  A    between atoms: O_29  and  C_30
REMARK                            x       y       z     vdW  Elec       q    Type
REMARK                         _______ _______ _______ _____ _____    ______ ____
ROOT
ATOM      1  C   UNL     1      -0.009  -6.575   2.757  0.00  0.00    +0.034 A 
ATOM      2  C   UNL     1       0.994  -7.274   3.330  0.00  0.00    +0.094 A 
ATOM      3  C   UNL     1       0.942  -8.692   3.318  0.00  0.00    +0.275 A 
ATOM      4  O   UNL     1       1.838  -9.344   3.832  0.00  0.00    -0.266 OA
ATOM      5  N   UNL     1      -0.095  -9.312   2.741  0.00  0.00    -0.173 NA
ATOM      6  C   UNL     1      -1.072  -8.614   2.181  0.00  0.00    +0.234 A 
ATOM      7  N   UNL     1      -1.050  -7.247   2.184  0.00  0.00    -0.327 N 
ATOM      8  H   UNL     1      -1.777  -6.753   1.773  0.00  0.00    +0.169 HD
ENDROOT
BRANCH   6   9
ATOM      9  N   UNL     1      -2.101  -9.258   1.608  0.00  0.00    -0.179 NA
ATOM     10  C   UNL     1      -2.080 -10.576   1.504  0.00  0.00    +0.203 C 
ATOM     11  N   UNL     1      -3.185 -11.244   1.056  0.00  0.00    -0.326 N 
ATOM     12  N   UNL     1      -0.953 -11.270   1.843  0.00  0.00    -0.369 N 
ATOM     13  H   UNL     1      -1.026 -12.101   2.337  0.00  0.00    +0.159 HD
ATOM     14  H   UNL     1      -0.081 -10.931   1.589  0.00  0.00    +0.159 HD
ATOM     15  H   UNL     1      -3.200 -12.214   1.058  0.00  0.00    +0.169 HD
BRANCH  11  16
ATOM     16  C   UNL     1      -4.295 -10.529   0.595  0.00  0.00    +0.049 A 
ATOM     17  C   UNL     1      -4.118  -9.321  -0.066  0.00  0.00    +0.071 A 
ATOM     18  C   UNL     1      -5.219  -8.613  -0.522  0.00  0.00    +0.126 A 
ATOM     19  C   UNL     1      -6.497  -9.111  -0.320  0.00  0.00    +0.091 A 
ATOM     20  C   UNL     1      -6.675 -10.318   0.340  0.00  0.00    +0.126 A 
ATOM     21  C   UNL     1      -5.575 -11.030   0.792  0.00  0.00    +0.071 A 
BRANCH  20  22
ATOM     22  O   UNL     1      -7.928 -10.805   0.539  0.00  0.00    -0.495 OA
ATOM     23  C   UNL     1      -9.015 -10.022   0.042  0.00  0.00    +0.277 C 
ENDBRANCH  20  22
BRANCH  18  24
ATOM     24  O   UNL     1      -5.045  -7.430  -1.169  0.00  0.00    -0.495 OA
ATOM     25  C   UNL     1      -6.224  -6.754  -1.613  0.00  0.00    +0.277 C 
ENDBRANCH  18  24
ENDBRANCH  11  16
ENDBRANCH   6   9
BRANCH   1  26
ATOM     26  C   UNL     1       0.018  -5.069   2.754  0.00  0.00    +0.127 C 
BRANCH  26  27
ATOM     27  S   UNL     1       0.447  -4.474   1.095  0.00  0.00    -0.119 S 
BRANCH  27  32
ATOM     28  C   UNL     1       0.412   1.537   1.642  0.00  0.00    +0.044 C 
ATOM     29  C   UNL     1       0.421   0.036   1.505  0.00  0.00    -0.050 A 
ATOM     30  C   UNL     1       0.720  -0.544   0.286  0.00  0.00    +0.004 A 
ATOM     31  C   UNL     1       0.729  -1.919   0.157  0.00  0.00    +0.015 A 
ATOM     32  C   UNL     1       0.438  -2.720   1.255  0.00  0.00    +0.008 A 
ATOM     33  C   UNL     1       0.139  -2.133   2.479  0.00  0.00    +0.015 A 
ATOM     34  C   UNL     1       0.137  -0.758   2.601  0.00  0.00    +0.004 A 
ENDBRANCH  27  32
ENDBRANCH  26  27
ENDBRANCH   1  26
TORSDOF 7
