REMARK  Name = ZINC03611082
REMARK  7 active torsions:
REMARK  status: ('A' for Active; 'I' for Inactive)
REMARK    1  A    between atoms: C_1  and  C_2
REMARK    2  A    between atoms: C_2  and  C_3
REMARK    3  A    between atoms: C_2  and  C_4
REMARK    4  A    between atoms: C_4  and  C_5
REMARK    5  A    between atoms: C_5  and  C_7
REMARK    6  A    between atoms: C_5  and  N_17
REMARK    7  A    between atoms: N_9  and  C_10
REMARK                            x       y       z     vdW  Elec       q    Type
REMARK                         _______ _______ _______ _____ _____    ______ ____
ROOT
ATOM      1  C   UNL     1       0.062  -0.220   2.415  0.00  0.00    +0.161 C 
ENDROOT
BRANCH   1   2
ATOM      2  N   UNL     1      -1.128  -1.070   2.330  0.00  0.00    -0.288 N 
ATOM      3  C   UNL     1      -0.996  -2.407   2.230  0.00  0.00    +0.298 C 
ATOM      4  O   UNL     1       0.112  -2.909   2.211  0.00  0.00    -0.253 OA
ATOM      5  N   UNL     1      -2.091  -3.189   2.151  0.00  0.00    -0.313 N 
ATOM      6  H   UNL     1      -2.012  -0.670   2.345  0.00  0.00    +0.151 HD
ATOM      7  H   UNL     1      -2.974  -2.789   2.167  0.00  0.00    +0.146 HD
ATOM      8  H   UNL     1      -1.996  -4.152   2.079  0.00  0.00    +0.146 HD
ENDBRANCH   1   2
BRANCH   1   9
ATOM      9  C   UNL     1       0.863  -0.599   3.635  0.00  0.00    +0.238 C 
ATOM     10  O   UNL     1       0.705  -1.685   4.151  0.00  0.00    -0.273 OA
ATOM     11  N   UNL     1       1.756   0.269   4.151  0.00  0.00    -0.284 N 
ATOM     12  H   UNL     1       1.938   1.105   3.695  0.00  0.00    +0.155 HD
BRANCH  11  13
ATOM     13  C   UNL     1       2.419  -0.037   5.345  0.00  0.00    +0.034 A 
ATOM     14  C   UNL     1       3.722   0.398   5.548  0.00  0.00    +0.024 A 
ATOM     15  C   UNL     1       4.374   0.096   6.727  0.00  0.00    +0.016 A 
ATOM     16  C   UNL     1       3.730  -0.640   7.705  0.00  0.00    +0.013 A 
ATOM     17  C   UNL     1       2.432  -1.075   7.506  0.00  0.00    +0.016 A 
ATOM     18  C   UNL     1       1.773  -0.770   6.331  0.00  0.00    +0.024 A 
ATOM     19  I   UNL     1       4.723  -1.098   9.492  0.00  0.00    -0.044 I 
ENDBRANCH  11  13
ENDBRANCH   1   9
BRANCH   1  20
ATOM     20  C   UNL     1       0.918  -0.414   1.162  0.00  0.00    +0.034 C 
BRANCH  20  22
ATOM     21  C   UNL     1      -0.062   1.597   0.052  0.00  0.00    +0.007 C 
ATOM     22  C   UNL     1       0.151   0.087  -0.063  0.00  0.00    -0.015 C 
ATOM     23  C   UNL     1       0.953  -0.221  -1.329  0.00  0.00    +0.007 C 
ENDBRANCH  20  22
ENDBRANCH   1  20
TORSDOF 5
