REMARK  Name = ZINC06922368
REMARK  7 active torsions:
REMARK  status: ('A' for Active; 'I' for Inactive)
REMARK    1  A    between atoms: C_1  and  C_2
REMARK    2  A    between atoms: C_5  and  C_9
REMARK    3  A    between atoms: C_6  and  C_8
REMARK    4  A    between atoms: N_11  and  C_12
REMARK    5  A    between atoms: C_12  and  N_14
REMARK    6  A    between atoms: N_14  and  C_15
REMARK    7  A    between atoms: C_16  and  C_24
REMARK                            x       y       z     vdW  Elec       q    Type
REMARK                         _______ _______ _______ _____ _____    ______ ____
ROOT
ATOM      1  N   UNL     1      -2.245   0.537   4.835  0.00  0.00    -0.291 N 
ATOM      2  H   UNL     1      -1.671  -0.191   5.121  0.00  0.00    +0.154 HD
ENDROOT
BRANCH   1   3
ATOM      3  C   UNL     1      -2.442   0.776   3.485  0.00  0.00    +0.084 A 
ATOM      4  C   UNL     1      -1.910   0.090   2.401  0.00  0.00    +0.068 A 
ATOM      5  C   UNL     1      -2.275   0.546   1.073  0.00  0.00    -0.023 A 
ATOM      6  C   UNL     1      -3.112   1.608   1.038  0.00  0.00    -0.004 A 
ATOM      7  S   UNL     1      -3.410   2.003   2.738  0.00  0.00    -0.077 S 
ATOM      8  C   UNL     1      -3.656   2.292  -0.178  0.00  0.00    +0.043 C 
ATOM      9  C   UNL     1      -2.832   1.844  -1.394  0.00  0.00    +0.005 C 
ATOM     10  C   UNL     1      -2.697   0.319  -1.364  0.00  0.00    +0.005 C 
ATOM     11  C   UNL     1      -1.780  -0.101  -0.215  0.00  0.00    +0.037 C 
BRANCH   4  12
ATOM     12  C   UNL     1      -1.012  -1.053   2.591  0.00  0.00    +0.244 C 
ATOM     13  O   UNL     1      -1.469  -2.178   2.676  0.00  0.00    -0.270 OA
ATOM     14  N   UNL     1       0.319  -0.858   2.672  0.00  0.00    -0.325 N 
ATOM     15  H   UNL     1       0.682   0.039   2.604  0.00  0.00    +0.145 HD
ATOM     16  H   UNL     1       0.913  -1.614   2.798  0.00  0.00    +0.145 HD
ENDBRANCH   4  12
ENDBRANCH   1   3
BRANCH   1  17
ATOM     17  C   UNL     1      -2.850   1.317   5.753  0.00  0.00    +0.141 C 
ATOM     18  S   UNL     1      -3.862   2.603   5.249  0.00  0.00    -0.018 S 
BRANCH  17  21
ATOM     19  C   UNL     1      -3.264   1.865   7.984  0.00  0.00    +0.250 C 
ATOM     20  O   UNL     1      -3.983   2.778   7.627  0.00  0.00    -0.270 OA
ATOM     21  N   UNL     1      -2.659   1.085   7.067  0.00  0.00    -0.264 N 
ATOM     22  H   UNL     1      -2.085   0.356   7.352  0.00  0.00    +0.157 HD
BRANCH  19  27
ATOM     23  C   UNL     1      -2.447   0.874  13.593  0.00  0.00    +0.044 C 
ATOM     24  C   UNL     1      -2.661   1.133  12.124  0.00  0.00    -0.050 A 
ATOM     25  C   UNL     1      -2.145   0.256  11.187  0.00  0.00    +0.004 A 
ATOM     26  C   UNL     1      -2.337   0.487   9.841  0.00  0.00    +0.013 A 
ATOM     27  C   UNL     1      -3.054   1.611   9.424  0.00  0.00    +0.040 A 
ATOM     28  C   UNL     1      -3.567   2.495  10.375  0.00  0.00    -0.038 A 
ATOM     29  C   UNL     1      -3.373   2.248  11.718  0.00  0.00    +0.007 A 
ATOM     30  C   UNL     1      -4.337   3.713   9.934  0.00  0.00    +0.044 C 
ENDBRANCH  19  27
ENDBRANCH  17  21
ENDBRANCH   1  17
TORSDOF 5
