REMARK  Name = ZINC51129480
REMARK  4 active torsions:
REMARK  status: ('A' for Active; 'I' for Inactive)
REMARK    1  A    between atoms: C_6  and  N_7
REMARK    2  A    between atoms: C_11  and  N_14
REMARK    3  A    between atoms: N_14  and  C_15
REMARK    4  A    between atoms: C_18  and  O_21
REMARK                            x       y       z     vdW  Elec       q    Type
REMARK                         _______ _______ _______ _____ _____    ______ ____
ROOT
ATOM      1  N   UNL     1      -1.200  -0.722   0.010  0.00  0.00    -0.195 N 
ATOM      2  C   UNL     1      -1.176  -2.065  -0.094  0.00  0.00    +0.292 A 
ATOM      3  O   UNL     1      -0.112  -2.655  -0.195  0.00  0.00    -0.264 OA
ATOM      4  C   UNL     1      -2.382  -2.781  -0.085  0.00  0.00    +0.129 A 
ATOM      5  C   UNL     1      -3.573  -2.088   0.031  0.00  0.00    +0.071 A 
ATOM      6  C   UNL     1      -3.549  -0.681   0.137  0.00  0.00    +0.158 A 
ATOM      7  N   UNL     1      -2.414  -0.039   0.132  0.00  0.00    -0.170 NA
ATOM      8 CL   UNL     1      -2.379  -4.512  -0.218  0.00  0.00    -0.076 Cl
ENDROOT
BRANCH   1  14
ATOM      9  C   UNL     1       0.243   0.961   0.972  0.00  0.00    +0.029 A 
ATOM     10  C   UNL     1       1.429   1.667   0.962  0.00  0.00    +0.022 A 
ATOM     11  C   UNL     1       2.378   1.414  -0.013  0.00  0.00    +0.041 A 
ATOM     12  C   UNL     1       2.141   0.453  -0.981  0.00  0.00    +0.022 A 
ATOM     13  C   UNL     1       0.956  -0.256  -0.976  0.00  0.00    +0.029 A 
ATOM     14  C   UNL     1       0.002  -0.004   0.002  0.00  0.00    +0.069 A 
ATOM     15 CL   UNL     1       3.869   2.304  -0.024  0.00  0.00    -0.084 Cl
ENDBRANCH   1  14
BRANCH   5  16
ATOM     16  N   UNL     1      -4.780  -2.769   0.042  0.00  0.00    -0.339 N 
ATOM     17  H   UNL     1      -4.791  -3.736  -0.032  0.00  0.00    +0.146 HD
BRANCH  16  18
ATOM     18  C   UNL     1      -6.038  -2.028   0.165  0.00  0.00    +0.071 C 
ATOM     19  C   UNL     1      -6.336  -1.772   1.643  0.00  0.00    +0.025 C 
ATOM     20  C   UNL     1      -6.457  -3.109   2.378  0.00  0.00    +0.033 C 
ATOM     21  C   UNL     1      -7.594  -3.928   1.763  0.00  0.00    +0.115 C 
ATOM     22  C   UNL     1      -7.295  -4.184   0.284  0.00  0.00    +0.033 C 
ATOM     23  C   UNL     1      -7.174  -2.847  -0.451  0.00  0.00    +0.025 C 
BRANCH  21  24
ATOM     24  O   UNL     1      -7.707  -5.176   2.449  0.00  0.00    -0.392 OA
ATOM     25  H   UNL     1      -8.409  -5.749   2.111  0.00  0.00    +0.210 HD
ENDBRANCH  21  24
ENDBRANCH  16  18
ENDBRANCH   5  16
TORSDOF 4
