REMARK  Name = ZINC42015265
REMARK  4 active torsions:
REMARK  status: ('A' for Active; 'I' for Inactive)
REMARK    1  A    between atoms: C_1  and  C_2
REMARK    2  A    between atoms: C_5  and  N_9
REMARK    3  A    between atoms: C_10  and  C_14
REMARK    4  A    between atoms: C_18  and  N_20
REMARK                            x       y       z     vdW  Elec       q    Type
REMARK                         _______ _______ _______ _____ _____    ______ ____
ROOT
ATOM      1  N   UNL     1      -0.121  -4.189  -0.003  0.00  0.00    -0.192 N 
ATOM      2  C   UNL     1       0.163  -5.007   1.051  0.00  0.00    +0.187 A 
ATOM      3  N   UNL     1       0.312  -6.222   0.564  0.00  0.00    -0.108 NA
ATOM      4  N   UNL     1       0.142  -6.220  -0.709  0.00  0.00    -0.022 NA
ATOM      5  N   UNL     1      -0.129  -5.032  -1.129  0.00  0.00    -0.039 NA
ENDROOT
BRANCH   1  10
ATOM      6  C   UNL     1      -1.087   1.402   0.131  0.00  0.00    +0.044 C 
ATOM      7  C   UNL     1      -0.830  -0.082   0.095  0.00  0.00    -0.049 A 
ATOM      8  C   UNL     1      -1.610  -0.936   0.853  0.00  0.00    +0.005 A 
ATOM      9  C   UNL     1      -1.377  -2.297   0.823  0.00  0.00    +0.029 A 
ATOM     10  C   UNL     1      -0.359  -2.809   0.029  0.00  0.00    +0.083 A 
ATOM     11  C   UNL     1       0.422  -1.949  -0.732  0.00  0.00    +0.044 A 
ATOM     12  C   UNL     1       0.181  -0.588  -0.701  0.00  0.00    +0.020 A 
ATOM     13 BR   UNL     1       1.811  -2.640  -1.814  0.00  0.00    -0.048 Br
ENDBRANCH   1  10
BRANCH   2  14
ATOM     14  C   UNL     1       0.282  -4.607   2.470  0.00  0.00    +0.023 A 
ATOM     15  C   UNL     1       0.497  -3.269   2.804  0.00  0.00    +0.013 A 
ATOM     16  C   UNL     1       0.607  -2.897   4.128  0.00  0.00    +0.018 A 
ATOM     17  C   UNL     1       0.504  -3.847   5.129  0.00  0.00    +0.039 A 
ATOM     18  C   UNL     1       0.290  -5.182   4.806  0.00  0.00    +0.039 A 
ATOM     19  C   UNL     1       0.173  -5.564   3.478  0.00  0.00    +0.035 A 
ATOM     20 BR   UNL     1       0.657  -3.328   6.941  0.00  0.00    -0.048 Br
BRANCH  18  21
ATOM     21  N   UNL     1       0.188  -6.139   5.819  0.00  0.00    -0.357 N 
ATOM     22  H   UNL     1       0.266  -5.871   6.749  0.00  0.00    +0.142 HD
ATOM     23  H   UNL     1       0.038  -7.070   5.594  0.00  0.00    +0.142 HD
ENDBRANCH  18  21
ENDBRANCH   2  14
TORSDOF 3
