REMARK  Name = ZINC00524939
REMARK  7 active torsions:
REMARK  status: ('A' for Active; 'I' for Inactive)
REMARK    1  A    between atoms: C_1  and  C_2
REMARK    2  A    between atoms: C_5  and  C_9
REMARK    3  A    between atoms: C_7  and  C_8
REMARK    4  A    between atoms: C_9  and  S_10
REMARK    5  A    between atoms: S_10  and  C_11
REMARK    6  A    between atoms: C_14  and  C_17
REMARK    7  A    between atoms: N_15  and  N_16
REMARK                            x       y       z     vdW  Elec       q    Type
REMARK                         _______ _______ _______ _____ _____    ______ ____
ROOT
ATOM      1  C   UNL     1       5.811   2.493  -0.041  0.00  0.00    +0.209 A 
ATOM      2  N   UNL     1       5.111   3.607  -0.028  0.00  0.00    -0.120 NA
ATOM      3  N   UNL     1       3.854   3.338  -0.023  0.00  0.00    -0.125 NA
ATOM      4  C   UNL     1       3.675   2.037  -0.022  0.00  0.00    +0.200 A 
ATOM      5  N   UNL     1       4.923   1.457  -0.038  0.00  0.00    -0.223 N 
ENDROOT
BRANCH   4   6
ATOM      6  C   UNL     1       2.378   1.329  -0.014  0.00  0.00    +0.109 A 
ATOM      7  C   UNL     1       1.189   2.062   0.002  0.00  0.00    +0.031 A 
ATOM      8  C   UNL     1      -0.017   1.384   0.010  0.00  0.00    +0.004 A 
ATOM      9  C   UNL     1       0.002  -0.004   0.002  0.00  0.00    +0.020 A 
ATOM     10  C   UNL     1       1.216  -0.667  -0.013  0.00  0.00    +0.111 A 
ATOM     11  N   UNL     1       2.351   0.001  -0.021  0.00  0.00    -0.252 NA
ENDBRANCH   4   6
BRANCH   5  12
ATOM     12  N   UNL     1       5.213   0.122  -0.047  0.00  0.00    -0.295 N 
ATOM     13  H   UNL     1       5.280  -0.227  -0.992  0.00  0.00    +0.163 HD
ATOM     14  H   UNL     1       6.058  -0.068   0.470  0.00  0.00    +0.163 HD
ENDBRANCH   5  12
BRANCH   1  15
ATOM     15  S   UNL     1       7.568   2.363  -0.059  0.00  0.00    -0.080 S 
BRANCH  15  16
ATOM     16  C   UNL     1       8.013   4.118  -0.053  0.00  0.00    +0.112 C 
BRANCH  16  21
ATOM     17  C   UNL     1      13.767   4.647  -0.106  0.00  0.00    +0.044 C 
ATOM     18  C   UNL     1      12.266   4.509  -0.092  0.00  0.00    -0.048 A 
ATOM     19  C   UNL     1      11.589   4.440   1.111  0.00  0.00    +0.004 A 
ATOM     20  C   UNL     1      10.213   4.318   1.124  0.00  0.00    +0.005 A 
ATOM     21  C   UNL     1       9.513   4.256  -0.067  0.00  0.00    -0.037 A 
ATOM     22  C   UNL     1      10.190   4.326  -1.270  0.00  0.00    +0.008 A 
ATOM     23  C   UNL     1      11.566   4.453  -1.283  0.00  0.00    -0.047 A 
ATOM     24  C   UNL     1      12.304   4.529  -2.595  0.00  0.00    +0.044 C 
ENDBRANCH  16  21
ENDBRANCH  15  16
ENDBRANCH   1  15
TORSDOF 5
