REMARK  Name = ZINC21316178
REMARK  7 active torsions:
REMARK  status: ('A' for Active; 'I' for Inactive)
REMARK    1  A    between atoms: C_10  and  N_11
REMARK    2  A    between atoms: C_12  and  C_14
REMARK    3  A    between atoms: C_14  and  S_15
REMARK    4  A    between atoms: S_15  and  C_16
REMARK    5  A    between atoms: N_20  and  N_21
REMARK    6  A    between atoms: N_22  and  N_23
REMARK    7  A    between atoms: C_24  and  C_25
REMARK                            x       y       z     vdW  Elec       q    Type
REMARK                         _______ _______ _______ _____ _____    ______ ____
ROOT
ATOM      1  C   UNL     1      -4.475   9.337   0.123  0.00  0.00    +0.210 A 
ATOM      2  N   UNL     1      -3.164   9.351   0.116  0.00  0.00    -0.119 NA
ATOM      3  N   UNL     1      -2.717   8.023   0.120  0.00  0.00    -0.109 NA
ATOM      4  C   UNL     1      -3.770   7.241   0.121  0.00  0.00    +0.254 A 
ATOM      5  N   UNL     1      -4.884   8.034   0.126  0.00  0.00    -0.211 N 
ATOM      6  N   UNL     1      -3.756   5.854   0.122  0.00  0.00    -0.204 N 
ATOM      7  H   UNL     1      -4.703   5.294   0.128  0.00  0.00    +0.177 HD
ENDROOT
BRANCH   5   8
ATOM      8  N   UNL     1      -6.179   7.598   0.133  0.00  0.00    -0.294 N 
ATOM      9  H   UNL     1      -6.396   6.520   0.135  0.00  0.00    +0.163 HD
ATOM     10  H   UNL     1      -7.004   8.326   0.136  0.00  0.00    +0.163 HD
ENDBRANCH   5   8
BRANCH   6  11
ATOM     11  N   UNL     1      -2.535   5.166   0.117  0.00  0.00    -0.187 NA
ATOM     12  C   UNL     1      -2.522   3.867   0.118  0.00  0.00    +0.139 C 
BRANCH  12  13
ATOM     13  C   UNL     1      -1.238   3.143   0.112  0.00  0.00    +0.014 A 
ATOM     14  C   UNL     1      -1.220   1.746   0.108  0.00  0.00    +0.011 A 
ATOM     15  C   UNL     1      -0.016   1.074   0.107  0.00  0.00    +0.002 A 
ATOM     16  C   UNL     1       1.175   1.780   0.100  0.00  0.00    +0.021 A 
ATOM     17  C   UNL     1       1.166   3.164   0.099  0.00  0.00    +0.060 A 
ATOM     18  C   UNL     1      -0.033   3.851   0.104  0.00  0.00    +0.068 A 
ATOM     19 CL   UNL     1      -0.043   5.587   0.102  0.00  0.00    -0.081 Cl
ATOM     20 CL   UNL     1       2.666   4.040   0.090  0.00  0.00    -0.082 Cl
ENDBRANCH  12  13
ENDBRANCH   6  11
BRANCH   1  21
ATOM     21  S   UNL     1      -5.526  10.752   0.128  0.00  0.00    -0.075 S 
BRANCH  21  22
ATOM     22  C   UNL     1      -4.374  12.153   0.121  0.00  0.00    +0.173 C 
BRANCH  22  24
ATOM     23  N   UNL     1      -4.502  14.624   0.119  0.00  0.00    -0.284 N 
ATOM     24  C   UNL     1      -5.153  13.444   0.124  0.00  0.00    +0.228 C 
ATOM     25  O   UNL     1      -6.365  13.420   0.130  0.00  0.00    -0.275 OA
ATOM     26  H   UNL     1      -3.404  14.647   0.189  0.00  0.00    +0.155 HD
BRANCH  23  36
ATOM     27  C   UNL     1      -3.680  19.105  -2.052  0.00  0.00    +0.001 A 
ATOM     28  C   UNL     1      -2.946  17.924  -1.971  0.00  0.00    +0.001 A 
ATOM     29  C   UNL     1      -3.430  16.843  -1.299  0.00  0.00    +0.010 A 
ATOM     30  C   UNL     1      -4.684  16.918  -0.673  0.00  0.00    +0.003 A 
ATOM     31  C   UNL     1      -5.433  18.118  -0.759  0.00  0.00    -0.016 A 
ATOM     32  C   UNL     1      -4.901  19.213  -1.461  0.00  0.00    +0.008 A 
ATOM     33  C   UNL     1      -6.691  18.193  -0.136  0.00  0.00    +0.008 A 
ATOM     34  C   UNL     1      -7.182  17.117   0.538  0.00  0.00    +0.002 A 
ATOM     35  C   UNL     1      -6.457  15.932   0.624  0.00  0.00    +0.024 A 
ATOM     36  C   UNL     1      -5.220  15.817   0.027  0.00  0.00    +0.041 A 
ENDBRANCH  23  36
ENDBRANCH  22  24
ENDBRANCH  21  22
ENDBRANCH   1  21
TORSDOF 7
