REMARK  Name = ZINC09518184
REMARK  9 active torsions:
REMARK  status: ('A' for Active; 'I' for Inactive)
REMARK    1  A    between atoms: C_1  and  C_2
REMARK    2  A    between atoms: C_2  and  O_3
REMARK    3  A    between atoms: O_3  and  C_4
REMARK    4  A    between atoms: C_7  and  C_10
REMARK    5  A    between atoms: N_12  and  C_13
REMARK    6  A    between atoms: C_14  and  N_31
REMARK    7  A    between atoms: C_16  and  S_21
REMARK    8  A    between atoms: S_21  and  C_22
REMARK    9  A    between atoms: C_22  and  C_23
REMARK                            x       y       z     vdW  Elec       q    Type
REMARK                         _______ _______ _______ _____ _____    ______ ____
ROOT
ATOM      1  C   UNL     1       1.188   2.039  -0.001  0.00  0.00    +0.139 A 
ATOM      2  C   UNL     1      -0.008   1.329  -0.004  0.00  0.00    +0.146 A 
ATOM      3  N   UNL     1       0.015  -0.008  -0.014  0.00  0.00    -0.207 NA
ATOM      4  C   UNL     1       1.153  -0.671  -0.022  0.00  0.00    +0.171 A 
ATOM      5  N   UNL     1       2.352  -0.025  -0.020  0.00  0.00    -0.300 N 
ATOM      6  H   UNL     1       3.176  -0.535  -0.025  0.00  0.00    +0.171 HD
ATOM      7  C   UNL     1       2.395   1.324  -0.010  0.00  0.00    +0.275 A 
ATOM      8  O   UNL     1       3.465   1.912  -0.008  0.00  0.00    -0.266 OA
ENDROOT
BRANCH   1  11
ATOM      9  C   UNL     1       1.783   4.114   1.017  0.00  0.00    +0.248 C 
ATOM     10  O   UNL     1       2.394   3.503   1.873  0.00  0.00    -0.270 OA
ATOM     11  N   UNL     1       1.188   3.448   0.009  0.00  0.00    -0.274 N 
ATOM     12  H   UNL     1       0.759   3.938  -0.710  0.00  0.00    +0.155 HD
BRANCH   9  16
ATOM     13  C   UNL     1       1.526   8.349   1.207  0.00  0.00    +0.121 A 
ATOM     14  C   UNL     1       2.224   7.653   2.186  0.00  0.00    +0.046 A 
ATOM     15  C   UNL     1       2.310   6.279   2.128  0.00  0.00    +0.016 A 
ATOM     16  C   UNL     1       1.693   5.586   1.083  0.00  0.00    +0.037 A 
ATOM     17  C   UNL     1       0.996   6.290   0.098  0.00  0.00    +0.016 A 
ATOM     18  C   UNL     1       0.911   7.663   0.166  0.00  0.00    +0.046 A 
BRANCH  13  19
ATOM     19  O   UNL     1       1.444   9.702   1.267  0.00  0.00    -0.492 OA
BRANCH  19  21
ATOM     20  C   UNL     1       0.729  11.867   0.464  0.00  0.00    +0.048 C 
ATOM     21  C   UNL     1       0.711  10.355   0.228  0.00  0.00    +0.225 C 
ENDBRANCH  19  21
ENDBRANCH  13  19
ENDBRANCH   9  16
ENDBRANCH   1  11
BRANCH   2  22
ATOM     22  N   UNL     1      -1.216   2.003  -0.001  0.00  0.00    -0.341 N 
ATOM     23  H   UNL     1      -2.049   1.506  -0.006  0.00  0.00    +0.144 HD
ATOM     24  H   UNL     1      -1.230   2.973   0.006  0.00  0.00    +0.144 HD
ENDBRANCH   2  22
BRANCH   4  25
ATOM     25  S   UNL     1       1.124  -2.433  -0.035  0.00  0.00    -0.083 S 
BRANCH  25  26
ATOM     26  C   UNL     1      -0.664  -2.718  -0.032  0.00  0.00    +0.116 C 
BRANCH  26  27
ATOM     27  C   UNL     1      -0.936  -4.200  -0.043  0.00  0.00    +0.016 A 
ATOM     28  C   UNL     1      -1.058  -4.890   1.151  0.00  0.00    +0.129 A 
ATOM     29  C   UNL     1      -1.308  -6.252   1.140  0.00  0.00    +0.039 A 
ATOM     30  C   UNL     1      -1.436  -6.921  -0.062  0.00  0.00    +0.004 A 
ATOM     31  C   UNL     1      -1.315  -6.232  -1.254  0.00  0.00    +0.020 A 
ATOM     32  C   UNL     1      -1.070  -4.870  -1.245  0.00  0.00    +0.048 A 
ATOM     33 CL   UNL     1      -0.925  -4.004  -2.743  0.00  0.00    -0.083 Cl
ATOM     34  F   UNL     1      -0.932  -4.236   2.326  0.00  0.00    -0.205 F 
ENDBRANCH  26  27
ENDBRANCH  25  26
ENDBRANCH   4  25
TORSDOF 8
