REMARK  Name = ZINC12465886
REMARK  10 active torsions:
REMARK  status: ('A' for Active; 'I' for Inactive)
REMARK    1  A    between atoms: C_1  and  C_2
REMARK    2  A    between atoms: C_2  and  O_3
REMARK    3  A    between atoms: O_3  and  C_4
REMARK    4  A    between atoms: C_6  and  C_12
REMARK    5  A    between atoms: C_9  and  O_10
REMARK    6  A    between atoms: C_14  and  C_21
REMARK    7  A    between atoms: C_15  and  C_20
REMARK    8  A    between atoms: N_23  and  C_24
REMARK    9  A    between atoms: C_27  and  C_31
REMARK   10  A    between atoms: C_29  and  C_30
REMARK                            x       y       z     vdW  Elec       q    Type
REMARK                         _______ _______ _______ _____ _____    ______ ____
ROOT
ATOM      1  C   UNL     1      -4.394   3.553   6.561  0.00  0.00    +0.142 C 
ATOM      2  C   UNL     1      -5.067   3.404   5.212  0.00  0.00    +0.056 C 
ATOM      3  C   UNL     1      -6.401   3.596   5.150  0.00  0.00    +0.019 C 
ATOM      4  N   UNL     1      -7.121   3.904   6.270  0.00  0.00    -0.273 N 
ATOM      5  C   UNL     1      -6.579   4.047   7.486  0.00  0.00    +0.304 C 
ATOM      6  O   UNL     1      -7.301   4.326   8.423  0.00  0.00    -0.252 OA
ATOM      7  N   UNL     1      -5.258   3.891   7.704  0.00  0.00    -0.288 N 
ATOM      8  C   UNL     1      -7.109   3.463   3.827  0.00  0.00    +0.061 C 
ATOM      9  H   UNL     1      -8.079   4.029   6.178  0.00  0.00    +0.156 HD
ATOM     10  H   UNL     1      -4.885   4.000   8.593  0.00  0.00    +0.151 HD
ENDROOT
BRANCH   1  13
ATOM     11  C   UNL     1      -1.036   5.263   6.287  0.00  0.00    +0.163 A 
ATOM     12  C   UNL     1      -2.005   4.278   6.399  0.00  0.00    +0.055 A 
ATOM     13  C   UNL     1      -3.342   4.625   6.440  0.00  0.00    -0.018 A 
ATOM     14  C   UNL     1      -3.717   5.954   6.364  0.00  0.00    +0.025 A 
ATOM     15  C   UNL     1      -2.756   6.942   6.258  0.00  0.00    +0.063 A 
ATOM     16  C   UNL     1      -1.413   6.601   6.216  0.00  0.00    +0.173 A 
ATOM     17 BR   UNL     1      -3.273   8.758   6.162  0.00  0.00    -0.046 Br
BRANCH  16  18
ATOM     18  O   UNL     1      -0.466   7.571   6.107  0.00  0.00    -0.503 OA
ATOM     19  H   UNL     1      -0.234   7.793   5.195  0.00  0.00    +0.292 HD
ENDBRANCH  16  18
BRANCH  11  20
ATOM     20  O   UNL     1       0.280   4.923   6.246  0.00  0.00    -0.489 OA
BRANCH  20  22
ATOM     21  C   UNL     1       2.107   3.342   6.180  0.00  0.00    +0.048 C 
ATOM     22  C   UNL     1       0.589   3.528   6.209  0.00  0.00    +0.226 C 
ENDBRANCH  20  22
ENDBRANCH  11  20
ENDBRANCH   1  13
BRANCH   2  23
ATOM     23  C   UNL     1      -4.319   3.080   4.053  0.00  0.00    +0.248 C 
ATOM     24  O   UNL     1      -4.001   1.925   3.836  0.00  0.00    -0.270 OA
ATOM     25  N   UNL     1      -3.961   4.051   3.189  0.00  0.00    -0.281 N 
ATOM     26  H   UNL     1      -4.149   4.979   3.397  0.00  0.00    +0.155 HD
BRANCH  25  27
ATOM     27  C   UNL     1      -3.317   3.719   1.992  0.00  0.00    +0.037 A 
ATOM     28  C   UNL     1      -3.398   2.425   1.494  0.00  0.00    +0.024 A 
ATOM     29  C   UNL     1      -2.767   2.103   0.309  0.00  0.00    +0.005 A 
ATOM     30  C   UNL     1      -2.046   3.064  -0.376  0.00  0.00    -0.050 A 
ATOM     31  C   UNL     1      -1.964   4.353   0.117  0.00  0.00    +0.008 A 
ATOM     32  C   UNL     1      -2.597   4.684   1.299  0.00  0.00    -0.029 A 
ATOM     33  C   UNL     1      -2.508   6.089   1.836  0.00  0.00    +0.045 C 
ATOM     34  C   UNL     1      -1.353   2.707  -1.666  0.00  0.00    +0.044 C 
ENDBRANCH  25  27
ENDBRANCH   2  23
TORSDOF 6
