REMARK  Name = ZINC03840724
REMARK  12 active torsions:
REMARK  status: ('A' for Active; 'I' for Inactive)
REMARK    1  A    between atoms: C_1  and  C_2
REMARK    2  A    between atoms: C_10  and  C_12
REMARK    3  A    between atoms: C_12  and  C_13
REMARK    4  A    between atoms: C_13  and  C_14
REMARK    5  A    between atoms: C_13  and  C_15
REMARK    6  A    between atoms: C_13  and  C_16
REMARK    7  A    between atoms: C_18  and  C_37
REMARK    8  A    between atoms: C_21  and  O_36
REMARK    9  A    between atoms: C_23  and  C_27
REMARK   10  A    between atoms: C_27  and  C_29
REMARK   11  A    between atoms: C_27  and  C_30
REMARK   12  A    between atoms: N_32  and  C_33
REMARK                            x       y       z     vdW  Elec       q    Type
REMARK                         _______ _______ _______ _____ _____    ______ ____
ROOT
ATOM      1  C   UNL     1      -1.645   5.377   0.532  0.00  0.00    +0.014 C 
ATOM      2  C   UNL     1      -1.864   3.881   0.298  0.00  0.00    +0.042 C 
ATOM      3  C   UNL     1      -1.905   3.160   1.637  0.00  0.00    +0.057 A 
ATOM      4  C   UNL     1      -1.279   1.962   1.787  0.00  0.00    +0.015 A 
ATOM      5  S   UNL     1      -1.616   1.553   3.479  0.00  0.00    -0.057 S 
ATOM      6  C   UNL     1      -2.541   2.974   3.861  0.00  0.00    +0.165 A 
ATOM      7  N   UNL     1      -2.530   3.629   2.714  0.00  0.00    -0.229 NA
ATOM      8  N   UNL     1      -3.142   3.328   5.064  0.00  0.00    -0.265 N 
ATOM      9  C   UNL     1      -3.042   2.514   6.133  0.00  0.00    +0.219 C 
ATOM     10  O   UNL     1      -2.429   1.471   6.045  0.00  0.00    -0.275 OA
ATOM     11  C   UNL     1      -0.510   1.206   0.763  0.00  0.00    +0.051 C 
ATOM     12  C   UNL     1      -0.808   1.797  -0.629  0.00  0.00    -0.022 C 
ATOM     13  C   UNL     1      -0.715   3.322  -0.551  0.00  0.00    +0.033 C 
ATOM     14  C   UNL     1      -0.843   3.930  -1.952  0.00  0.00    +0.123 C 
ATOM     15  C   UNL     1       0.244   3.380  -2.872  0.00  0.00    +0.029 C 
ATOM     16  C   UNL     1       0.078   1.861  -2.978  0.00  0.00    +0.007 C 
ATOM     17  C   UNL     1       0.254   1.250  -1.589  0.00  0.00    +0.008 C 
ATOM     18  C   UNL     1      -2.208   1.381  -1.085  0.00  0.00    +0.012 C 
ATOM     19  H   UNL     1      -3.632   4.162   5.133  0.00  0.00    +0.157 HD
ENDROOT
BRANCH  15  20
ATOM     20  C   UNL     1       0.108   4.009  -4.261  0.00  0.00    +0.077 C 
ATOM     21  C   UNL     1      -1.196   3.540  -4.907  0.00  0.00    +0.017 C 
BRANCH  20  22
ATOM     22  C   UNL     1       1.274   3.588  -5.119  0.00  0.00    +0.216 C 
ATOM     23  O   UNL     1       2.164   2.915  -4.645  0.00  0.00    -0.276 OA
ATOM     24  N   UNL     1       1.326   3.961  -6.413  0.00  0.00    -0.312 N 
ATOM     25  H   UNL     1       0.614   4.500  -6.792  0.00  0.00    +0.149 HD
BRANCH  24  26
ATOM     26  C   UNL     1       2.459   3.553  -7.247  0.00  0.00    +0.073 C 
ATOM     27  C   UNL     1       3.071   4.606  -8.173  0.00  0.00    +0.024 C 
ATOM     28  C   UNL     1       2.230   3.469  -8.758  0.00  0.00    +0.024 C 
ENDBRANCH  24  26
ENDBRANCH  20  22
ENDBRANCH  15  20
BRANCH  14  29
ATOM     29  O   UNL     1      -0.709   5.350  -1.865  0.00  0.00    -0.391 OA
ATOM     30  H   UNL     1      -0.879   5.813  -2.697  0.00  0.00    +0.210 HD
ENDBRANCH  14  29
BRANCH   9  31
ATOM     31  C   UNL     1      -3.693   2.898   7.436  0.00  0.00    +0.102 C 
BRANCH  31  32
ATOM     32  C   UNL     1      -3.430   1.808   8.478  0.00  0.00    -0.029 C 
ATOM     33  C   UNL     1      -1.923   1.655   8.687  0.00  0.00    +0.011 C 
ATOM     34  C   UNL     1      -4.091   2.199   9.802  0.00  0.00    +0.011 C 
ATOM     35  C   UNL     1      -4.015   0.482   7.987  0.00  0.00    +0.011 C 
ENDBRANCH  31  32
ENDBRANCH   9  31
TORSDOF 6
