REMARK  Name = ZINC48858785
REMARK  4 active torsions:
REMARK  status: ('A' for Active; 'I' for Inactive)
REMARK    1  A    between atoms: C_5  and  C_8
REMARK    2  A    between atoms: C_8  and  O_9
REMARK    3  A    between atoms: C_14  and  O_22
REMARK    4  A    between atoms: C_17  and  C_19
REMARK                            x       y       z     vdW  Elec       q    Type
REMARK                         _______ _______ _______ _____ _____    ______ ____
ROOT
ATOM      1  C   UNL     1       0.134   1.227  -0.286  0.00  0.00    +0.003 C 
ATOM      2  C   UNL     1       1.609   1.619  -0.399  0.00  0.00    +0.019 C 
ATOM      3  C   UNL     1       2.293   1.413   0.956  0.00  0.00    +0.110 C 
ATOM      4  N   UNL     1       2.068   0.029   1.394  0.00  0.00    -0.280 N 
ATOM      5  C   UNL     1       0.691  -0.479   1.452  0.00  0.00    +0.103 C 
ATOM      6  C   UNL     1       0.024  -0.252   0.091  0.00  0.00    +0.025 C 
ATOM      7  C   UNL     1       3.106  -0.760   1.736  0.00  0.00    +0.306 C 
ATOM      8  O   UNL     1       2.925  -1.944   1.949  0.00  0.00    -0.252 OA
ATOM      9  N   UNL     1       4.344  -0.237   1.843  0.00  0.00    -0.269 N 
ATOM     10  C   UNL     1       4.674   1.199   1.827  0.00  0.00    +0.141 C 
ATOM     11  C   UNL     1       6.026   1.304   2.576  0.00  0.00    +0.134 C 
ATOM     12  C   UNL     1       6.744   0.011   2.104  0.00  0.00    +0.067 C 
ATOM     13  C   UNL     1       5.587  -1.005   2.001  0.00  0.00    +0.193 C 
ENDROOT
BRANCH  13  14
ATOM     14  C   UNL     1       5.796  -1.895   0.802  0.00  0.00    +0.376 C 
ATOM     15  O   UNL     1       5.373  -1.555  -0.290  0.00  0.00    -0.244 OA
ATOM     16  O   UNL     1       6.389  -2.953   0.924  0.00  0.00    -0.244 OA
ENDBRANCH  13  14
BRANCH  11  17
ATOM     17  O   UNL     1       5.830   1.294   3.991  0.00  0.00    -0.390 OA
ATOM     18  H   UNL     1       5.301   2.034   4.319  0.00  0.00    +0.210 HD
ENDBRANCH  11  17
BRANCH   5  19
ATOM     19  C   UNL     1       0.709  -1.974   1.775  0.00  0.00    +0.178 C 
BRANCH  19  20
ATOM     20  O   UNL     1       1.300  -2.689   0.688  0.00  0.00    -0.393 OA
ATOM     21  H   UNL     1       1.344  -3.646   0.824  0.00  0.00    +0.209 HD
ENDBRANCH  19  20
ENDBRANCH   5  19
TORSDOF 4
