REMARK  Name = ZINC05615910
REMARK  7 active torsions:
REMARK  status: ('A' for Active; 'I' for Inactive)
REMARK    1  A    between atoms: C_1  and  C_2
REMARK    2  A    between atoms: C_5  and  N_8
REMARK    3  A    between atoms: C_9  and  C_11
REMARK    4  A    between atoms: C_12  and  C_27
REMARK    5  A    between atoms: C_16  and  C_18
REMARK    6  A    between atoms: C_23  and  O_24
REMARK    7  A    between atoms: O_24  and  C_25
REMARK                            x       y       z     vdW  Elec       q    Type
REMARK                         _______ _______ _______ _____ _____    ______ ____
ROOT
ATOM      1  C   UNL     1       0.373  -6.665   1.535  0.00  0.00    +0.056 C 
ATOM      2  C   UNL     1       0.313  -7.589   2.517  0.00  0.00    +0.017 C 
ATOM      3  N   UNL     1       0.020  -8.894   2.241  0.00  0.00    -0.300 N 
ATOM      4  C   UNL     1      -0.225  -9.355   1.008  0.00  0.00    +0.135 C 
ATOM      5  N   UNL     1      -0.202  -8.553  -0.075  0.00  0.00    -0.315 N 
ATOM      6  C   UNL     1       0.099  -7.125   0.117  0.00  0.00    +0.143 C 
ATOM      7  S   UNL     1      -0.579 -11.017   0.800  0.00  0.00    -0.019 S 
ATOM      8  C   UNL     1       0.573  -7.174   3.942  0.00  0.00    +0.061 C 
ATOM      9  H   UNL     1      -0.382  -8.908  -0.960  0.00  0.00    +0.149 HD
ATOM     10  H   UNL     1      -0.012  -9.522   2.979  0.00  0.00    +0.154 HD
ENDROOT
BRANCH   6  11
ATOM     11  C   UNL     1       1.307  -6.792  -0.721  0.00  0.00    +0.019 A 
ATOM     12  C   UNL     1       2.389  -7.651  -0.744  0.00  0.00    +0.009 A 
ATOM     13  C   UNL     1       3.498  -7.346  -1.512  0.00  0.00    +0.001 A 
ATOM     14  C   UNL     1       3.526  -6.183  -2.259  0.00  0.00    +0.004 A 
ATOM     15  C   UNL     1       2.446  -5.322  -2.240  0.00  0.00    +0.046 A 
ATOM     16  C   UNL     1       1.330  -5.628  -1.474  0.00  0.00    +0.125 A 
BRANCH  16  17
ATOM     17  O   UNL     1       0.264  -4.785  -1.458  0.00  0.00    -0.495 OA
ATOM     18  C   UNL     1       0.317  -3.655  -2.330  0.00  0.00    +0.277 C 
ENDBRANCH  16  17
ENDBRANCH   6  11
BRANCH   1  20
ATOM     19  N   UNL     1       1.942  -4.952   2.113  0.00  0.00    -0.282 N 
ATOM     20  C   UNL     1       0.677  -5.312   1.820  0.00  0.00    +0.248 C 
ATOM     21  O   UNL     1      -0.206  -4.473   1.801  0.00  0.00    -0.270 OA
ATOM     22  H   UNL     1       2.643  -5.622   2.138  0.00  0.00    +0.155 HD
BRANCH  19  27
ATOM     23  C   UNL     1       3.170   0.479   3.195  0.00  0.00    +0.044 C 
ATOM     24  C   UNL     1       2.844  -0.964   2.908  0.00  0.00    -0.050 A 
ATOM     25  C   UNL     1       3.605  -1.970   3.474  0.00  0.00    +0.005 A 
ATOM     26  C   UNL     1       3.309  -3.293   3.213  0.00  0.00    +0.023 A 
ATOM     27  C   UNL     1       2.245  -3.613   2.380  0.00  0.00    +0.034 A 
ATOM     28  C   UNL     1       1.482  -2.601   1.812  0.00  0.00    +0.023 A 
ATOM     29  C   UNL     1       1.780  -1.280   2.082  0.00  0.00    +0.005 A 
ENDBRANCH  19  27
ENDBRANCH   1  20
TORSDOF 4
