REMARK  Name = ZINC44087618
REMARK  6 active torsions:
REMARK  status: ('A' for Active; 'I' for Inactive)
REMARK    1  A    between atoms: C_3  and  N_23
REMARK    2  A    between atoms: C_5  and  N_7
REMARK    3  A    between atoms: N_10  and  C_11
REMARK    4  A    between atoms: C_11  and  C_13
REMARK    5  A    between atoms: C_11  and  C_18
REMARK    6  A    between atoms: C_24  and  C_26
REMARK                            x       y       z     vdW  Elec       q    Type
REMARK                         _______ _______ _______ _____ _____    ______ ____
ROOT
ATOM      1  N   UNL     1       0.293  -1.807  -0.879  0.00  0.00    -0.269 N 
ATOM      2  C   UNL     1      -0.910  -2.122  -1.400  0.00  0.00    +0.304 C 
ATOM      3  O   UNL     1      -1.703  -1.242  -1.672  0.00  0.00    -0.252 OA
ATOM      4  N   UNL     1      -1.232  -3.412  -1.619  0.00  0.00    -0.292 N 
ATOM      5  H   UNL     1       0.951  -2.503  -0.723  0.00  0.00    +0.156 HD
ATOM      6  H   UNL     1      -0.574  -4.109  -1.470  0.00  0.00    +0.151 HD
ENDROOT
BRANCH   1  11
ATOM      7  C   UNL     1       1.663   1.127   0.866  0.00  0.00    +0.004 A 
ATOM      8  C   UNL     1       1.188   2.154   0.072  0.00  0.00    +0.023 A 
ATOM      9  C   UNL     1       0.412   1.869  -1.044  0.00  0.00    +0.035 A 
ATOM     10  C   UNL     1       0.114   0.551  -1.361  0.00  0.00    +0.046 A 
ATOM     11  C   UNL     1       0.592  -0.477  -0.562  0.00  0.00    +0.037 A 
ATOM     12  C   UNL     1       1.367  -0.185   0.553  0.00  0.00    +0.023 A 
BRANCH   9  13
ATOM     13  N   UNL     1      -0.069   2.909  -1.847  0.00  0.00    -0.285 N 
ATOM     14  C   UNL     1       0.670   4.022  -2.022  0.00  0.00    +0.220 C 
ATOM     15  O   UNL     1       1.790   4.085  -1.560  0.00  0.00    -0.275 OA
ATOM     16  H   UNL     1      -0.934   2.828  -2.278  0.00  0.00    +0.155 HD
BRANCH  14  17
ATOM     17  C   UNL     1       0.106   5.188  -2.791  0.00  0.00    +0.075 C 
ATOM     18  C   UNL     1       0.731   5.506  -4.151  0.00  0.00    +0.013 C 
ATOM     19  C   UNL     1       0.994   6.423  -2.955  0.00  0.00    +0.013 C 
ENDBRANCH  14  17
ENDBRANCH   9  13
ENDBRANCH   1  11
BRANCH   4  20
ATOM     20  C   UNL     1      -2.578  -3.762  -2.080  0.00  0.00    +0.114 C 
BRANCH  20  21
ATOM     21  C   UNL     1      -2.628  -3.689  -3.585  0.00  0.00    +0.010 A 
ATOM     22  C   UNL     1      -3.612  -3.210  -4.384  0.00  0.00    +0.013 A 
ATOM     23  C   UNL     1      -3.439  -3.243  -5.755  0.00  0.00    +0.008 A 
ATOM     24  C   UNL     1      -2.289  -3.753  -6.259  0.00  0.00    +0.045 A 
ATOM     25  S   UNL     1      -1.402  -4.203  -4.777  0.00  0.00    -0.100 S 
ENDBRANCH  20  21
BRANCH  20  26
ATOM     26  C   UNL     1      -2.919  -5.183  -1.627  0.00  0.00    +0.014 C 
ATOM     27  C   UNL     1      -4.333  -5.567  -2.109  0.00  0.00    +0.006 C 
ATOM     28  C   UNL     1      -4.916  -6.408  -0.946  0.00  0.00    +0.000 C 
ATOM     29  C   UNL     1      -4.372  -5.679   0.308  0.00  0.00    +0.000 C 
ATOM     30  C   UNL     1      -2.943  -5.255  -0.090  0.00  0.00    +0.006 C 
ENDBRANCH  20  26
ENDBRANCH   4  20
TORSDOF 6
