REMARK  Name = ZINC12573820
REMARK  13 active torsions:
REMARK  status: ('A' for Active; 'I' for Inactive)
REMARK    1  A    between atoms: C_1  and  C_2
REMARK    2  A    between atoms: C_2  and  C_3
REMARK    3  A    between atoms: C_3  and  C_4
REMARK    4  A    between atoms: N_6  and  C_7
REMARK    5  A    between atoms: C_10  and  C_13
REMARK    6  A    between atoms: N_15  and  N_16
REMARK    7  A    between atoms: N_16  and  C_17
REMARK    8  A    between atoms: C_17  and  N_19
REMARK    9  A    between atoms: C_20  and  C_22
REMARK   10  A    between atoms: C_25  and  C_28
REMARK   11  A    between atoms: C_28  and  C_29
REMARK   12  A    between atoms: C_28  and  C_30
REMARK   13  A    between atoms: C_28  and  C_31
REMARK                            x       y       z     vdW  Elec       q    Type
REMARK                         _______ _______ _______ _____ _____    ______ ____
ROOT
ATOM      1  N   UNL     1      -6.390   5.449  -0.326  0.00  0.00    -0.245 N 
ATOM      2  H   UNL     1      -7.200   4.918  -0.271  0.00  0.00    +0.172 HD
ENDROOT
BRANCH   1   5
ATOM      3  C   UNL     1      -5.056   3.484  -0.165  0.00  0.00    +0.260 C 
ATOM      4  O   UNL     1      -6.071   2.818  -0.095  0.00  0.00    -0.269 OA
ATOM      5  N   UNL     1      -5.137   4.824  -0.283  0.00  0.00    -0.231 N 
ATOM      6  H   UNL     1      -4.328   5.356  -0.339  0.00  0.00    +0.173 HD
BRANCH   3  10
ATOM      7  C   UNL     1      -1.258   1.588  -0.035  0.00  0.00    +0.033 A 
ATOM      8  C   UNL     1      -1.339   2.972  -0.152  0.00  0.00    +0.024 A 
ATOM      9  C   UNL     1      -2.569   3.589  -0.199  0.00  0.00    +0.015 A 
ATOM     10  C   UNL     1      -3.736   2.825  -0.119  0.00  0.00    +0.038 A 
ATOM     11  C   UNL     1      -3.651   1.436   0.004  0.00  0.00    +0.015 A 
ATOM     12  C   UNL     1      -2.418   0.824   0.045  0.00  0.00    +0.024 A 
BRANCH   7  15
ATOM     13  C   UNL     1       1.025   1.575   0.617  0.00  0.00    +0.217 C 
ATOM     14  O   UNL     1       0.895   2.696   1.060  0.00  0.00    -0.275 OA
ATOM     15  N   UNL     1      -0.011   0.966   0.007  0.00  0.00    -0.285 N 
ATOM     16  H   UNL     1       0.111   0.097  -0.405  0.00  0.00    +0.155 HD
BRANCH  13  17
ATOM     17  C   UNL     1       2.347   0.862   0.748  0.00  0.00    +0.096 C 
BRANCH  17  19
ATOM     18  C   UNL     1       4.686   1.043   1.606  0.00  0.00    +0.004 C 
ATOM     19  C   UNL     1       3.345   1.767   1.473  0.00  0.00    +0.006 C 
ENDBRANCH  17  19
ENDBRANCH  13  17
ENDBRANCH   7  15
ENDBRANCH   3  10
ENDBRANCH   1   5
BRANCH   1  20
ATOM     20  C   UNL     1      -6.471   6.789  -0.445  0.00  0.00    +0.153 C 
ATOM     21  S   UNL     1      -8.002   7.553  -0.497  0.00  0.00    -0.017 S 
BRANCH  20  22
ATOM     22  N   UNL     1      -5.346   7.528  -0.522  0.00  0.00    -0.263 N 
ATOM     23  C   UNL     1      -5.427   8.868  -0.640  0.00  0.00    +0.250 C 
ATOM     24  O   UNL     1      -6.513   9.411  -0.678  0.00  0.00    -0.270 OA
ATOM     25  H   UNL     1      -4.479   7.095  -0.492  0.00  0.00    +0.157 HD
BRANCH  23  26
ATOM     26  C   UNL     1      -4.193   9.678  -0.725  0.00  0.00    +0.037 A 
ATOM     27  C   UNL     1      -2.943   9.059  -0.676  0.00  0.00    +0.013 A 
ATOM     28  C   UNL     1      -1.796   9.820  -0.762  0.00  0.00    +0.005 A 
ATOM     29  C   UNL     1      -1.882  11.195  -0.883  0.00  0.00    -0.042 A 
ATOM     30  C   UNL     1      -3.118  11.816  -0.926  0.00  0.00    +0.005 A 
ATOM     31  C   UNL     1      -4.273  11.066  -0.848  0.00  0.00    +0.013 A 
BRANCH  29  32
ATOM     32  C   UNL     1      -0.625  12.021  -0.970  0.00  0.00    -0.013 C 
ATOM     33  C   UNL     1      -0.584  13.012   0.195  0.00  0.00    +0.015 C 
ATOM     34  C   UNL     1       0.596  11.101  -0.900  0.00  0.00    +0.015 C 
ATOM     35  C   UNL     1      -0.609  12.789  -2.293  0.00  0.00    +0.015 C 
ENDBRANCH  29  32
ENDBRANCH  23  26
ENDBRANCH  20  22
ENDBRANCH   1  20
TORSDOF 9
