REMARK  Name = ZINC37550775
REMARK  5 active torsions:
REMARK  status: ('A' for Active; 'I' for Inactive)
REMARK    1  A    between atoms: C_4  and  N_11
REMARK    2  A    between atoms: C_5  and  C_7
REMARK    3  A    between atoms: C_8  and  C_9
REMARK    4  A    between atoms: C_9  and  N_10
REMARK    5  A    between atoms: C_12  and  C_14
REMARK                            x       y       z     vdW  Elec       q    Type
REMARK                         _______ _______ _______ _____ _____    ______ ____
ROOT
ATOM      1  C   UNL     1      -0.010   1.388  -0.021  0.00  0.00    +0.001 A 
ATOM      2  C   UNL     1       1.178   2.099  -0.026  0.00  0.00    +0.002 A 
ATOM      3  C   UNL     1       2.389   1.434  -0.031  0.00  0.00    +0.024 A 
ATOM      4  C   UNL     1       2.421   0.047  -0.032  0.00  0.00    +0.049 A 
ATOM      5  C   UNL     1       1.220  -0.675  -0.026  0.00  0.00    +0.046 A 
ATOM      6  C   UNL     1       0.004   0.008  -0.021  0.00  0.00    +0.018 A 
ENDROOT
BRANCH   4   7
ATOM      7  N   UNL     1       3.644  -0.626  -0.037  0.00  0.00    -0.280 N 
ATOM      8  C   UNL     1       4.747  -0.023   0.448  0.00  0.00    +0.249 C 
ATOM      9  O   UNL     1       4.660   1.065   0.981  0.00  0.00    -0.270 OA
ATOM     10  H   UNL     1       3.699  -1.528  -0.391  0.00  0.00    +0.155 HD
BRANCH   8  11
ATOM     11  C   UNL     1       6.069  -0.689   0.330  0.00  0.00    +0.047 A 
ATOM     12  C   UNL     1       6.182  -1.939  -0.281  0.00  0.00    +0.083 A 
ATOM     13  C   UNL     1       7.429  -2.541  -0.380  0.00  0.00    +0.252 A 
ATOM     14  N   UNL     1       8.529  -1.926   0.110  0.00  0.00    -0.290 N 
ATOM     15  C   UNL     1       8.444  -0.715   0.706  0.00  0.00    +0.252 A 
ATOM     16  C   UNL     1       7.220  -0.071   0.824  0.00  0.00    +0.083 A 
ATOM     17  O   UNL     1       9.551  -0.131   1.183  0.00  0.00    -0.268 OA
ATOM     18  O   UNL     1       7.543  -3.740  -0.965  0.00  0.00    -0.268 OA
ATOM     19  H   UNL     1       9.392  -2.361   0.034  0.00  0.00    +0.172 HD
ENDBRANCH   8  11
ENDBRANCH   4   7
BRANCH   5  20
ATOM     20  C   UNL     1       1.241  -2.107  -0.027  0.00  0.00    -0.066 C 
ATOM     21  C   UNL     1       1.258  -3.281  -0.028  0.00  0.00    -0.117 C 
BRANCH  21  22
ATOM     22  C   UNL     1       1.280  -4.753  -0.028  0.00  0.00    +0.005 C 
BRANCH  22  23
ATOM     23  N   UNL     1      -0.098  -5.263  -0.022  0.00  0.00    +0.385 N 
ATOM     24  H   UNL     1      -0.575  -4.934   0.804  0.00  0.00    -0.089 HD
ATOM     25  H   UNL     1      -0.582  -4.933  -0.844  0.00  0.00    -0.089 HD
ATOM     26  H   UNL     1      -0.083  -6.272  -0.023  0.00  0.00    -0.089 HD
ENDBRANCH  22  23
ENDBRANCH  21  22
ENDBRANCH   5  20
TORSDOF 5
