REMARK  Name = ZINC04713772
REMARK  6 active torsions:
REMARK  status: ('A' for Active; 'I' for Inactive)
REMARK    1  A    between atoms: C_1  and  C_2
REMARK    2  A    between atoms: C_2  and  N_3
REMARK    3  A    between atoms: N_3  and  N_4
REMARK    4  A    between atoms: C_5  and  C_7
REMARK    5  A    between atoms: C_14  and  C_15
REMARK    6  A    between atoms: N_17  and  C_18
REMARK                            x       y       z     vdW  Elec       q    Type
REMARK                         _______ _______ _______ _____ _____    ______ ____
ROOT
ATOM      1  C   UNL     1      -0.105   0.911   0.166  0.00  0.00    +0.062 C 
ATOM      2  C   UNL     1      -0.755   1.361  -1.117  0.00  0.00    +0.024 C 
ATOM      3  C   UNL     1      -2.072   1.656  -1.138  0.00  0.00    +0.087 C 
ENDROOT
BRANCH   3   4
ATOM      4  C   UNL     1      -2.656   2.201  -2.305  0.00  0.00    +0.239 C 
ATOM      5  O   UNL     1      -1.999   2.299  -3.326  0.00  0.00    -0.271 OA
ATOM      6  N   UNL     1      -3.939   2.611  -2.288  0.00  0.00    -0.306 N 
ATOM      7  H   UNL     1      -4.439   2.605  -1.456  0.00  0.00    +0.150 HD
BRANCH   6   8
ATOM      8  C   UNL     1      -4.580   3.066  -3.525  0.00  0.00    +0.036 C 
ATOM      9  C   UNL     1      -3.820   4.273  -4.078  0.00  0.00    +0.029 C 
ATOM     10  C   UNL     1      -4.489   4.747  -5.370  0.00  0.00    -0.008 C 
ATOM     11  C   UNL     1      -5.937   5.146  -5.078  0.00  0.00    +0.007 C 
ATOM     12  C   UNL     1      -6.697   3.939  -4.524  0.00  0.00    -0.008 C 
ATOM     13  C   UNL     1      -6.028   3.465  -3.232  0.00  0.00    +0.029 C 
ATOM     14  C   UNL     1      -6.677   2.808  -5.554  0.00  0.00    +0.007 C 
ATOM     15  C   UNL     1      -5.229   2.409  -5.846  0.00  0.00    -0.008 C 
ATOM     16  C   UNL     1      -4.470   3.616  -6.400  0.00  0.00    +0.007 C 
ATOM     17  C   UNL     1      -4.561   1.934  -4.554  0.00  0.00    +0.029 C 
ENDBRANCH   6   8
ENDBRANCH   3   4
BRANCH   2  18
ATOM     18  N   UNL     1      -0.012   1.471  -2.258  0.00  0.00    -0.268 N 
ATOM     19  H   UNL     1      -0.409   1.843  -3.062  0.00  0.00    +0.170 HD
BRANCH  18  20
ATOM     20  N   UNL     1       1.323   1.046  -2.269  0.00  0.00    -0.233 N 
ATOM     21  C   UNL     1       2.087   1.251  -3.360  0.00  0.00    +0.260 C 
ATOM     22  O   UNL     1       1.595   1.722  -4.367  0.00  0.00    -0.269 OA
ATOM     23  H   UNL     1       1.697   0.604  -1.491  0.00  0.00    +0.173 HD
BRANCH  21  24
ATOM     24  C   UNL     1       3.523   0.904  -3.332  0.00  0.00    +0.038 A 
ATOM     25  C   UNL     1       4.066   0.257  -2.221  0.00  0.00    +0.014 A 
ATOM     26  C   UNL     1       5.407  -0.065  -2.201  0.00  0.00    +0.021 A 
ATOM     27  C   UNL     1       6.214   0.253  -3.280  0.00  0.00    +0.041 A 
ATOM     28  C   UNL     1       5.681   0.895  -4.385  0.00  0.00    +0.021 A 
ATOM     29  C   UNL     1       4.341   1.216  -4.420  0.00  0.00    +0.014 A 
ATOM     30 CL   UNL     1       7.901  -0.156  -3.248  0.00  0.00    -0.084 Cl
ENDBRANCH  21  24
ENDBRANCH  18  20
ENDBRANCH   2  18
TORSDOF 5
