REMARK  Name = ZINC12503471
REMARK  8 active torsions:
REMARK  status: ('A' for Active; 'I' for Inactive)
REMARK    1  A    between atoms: C_1  and  C_2
REMARK    2  A    between atoms: N_4  and  C_5
REMARK    3  A    between atoms: C_8  and  C_11
REMARK    4  A    between atoms: N_13  and  N_14
REMARK    5  A    between atoms: N_14  and  C_15
REMARK    6  A    between atoms: C_15  and  N_17
REMARK    7  A    between atoms: C_18  and  C_20
REMARK    8  A    between atoms: C_21  and  C_22
REMARK                            x       y       z     vdW  Elec       q    Type
REMARK                         _______ _______ _______ _____ _____    ______ ____
ROOT
ATOM      1  C   UNL     1       1.330  10.482   0.504  0.00  0.00    +0.153 C 
ATOM      2  S   UNL     1       1.370  12.189   0.626  0.00  0.00    -0.017 S 
ENDROOT
BRANCH   1   3
ATOM      3  N   UNL     1       2.480   9.787   0.399  0.00  0.00    -0.263 N 
ATOM      4  C   UNL     1       3.661  10.436   0.390  0.00  0.00    +0.242 C 
ATOM      5  O   UNL     1       3.689  11.649   0.476  0.00  0.00    -0.270 OA
ATOM      6  H   UNL     1       2.458   8.819   0.330  0.00  0.00    +0.157 HD
BRANCH   4   7
ATOM      7  C   UNL     1       4.908   9.682   0.276  0.00  0.00    +0.068 C 
ATOM      8  C   UNL     1       6.093  10.334   0.267  0.00  0.00    +0.013 C 
BRANCH   8   9
ATOM      9  C   UNL     1       7.345   9.577   0.152  0.00  0.00    -0.017 A 
ATOM     10  C   UNL     1       7.331   8.188   0.058  0.00  0.00    +0.008 A 
ATOM     11  C   UNL     1       8.516   7.477  -0.056  0.00  0.00    +0.001 A 
ATOM     12  C   UNL     1       9.728   8.098  -0.068  0.00  0.00    +0.008 A 
ATOM     13  C   UNL     1       9.820   9.496   0.029  0.00  0.00    -0.017 A 
ATOM     14  C   UNL     1       8.636  10.266   0.141  0.00  0.00    -0.011 A 
ATOM     15  C   UNL     1       8.722  11.659   0.236  0.00  0.00    +0.009 A 
ATOM     16  C   UNL     1       9.946  12.261   0.222  0.00  0.00    +0.001 A 
ATOM     17  C   UNL     1      11.112  11.508   0.113  0.00  0.00    +0.001 A 
ATOM     18  C   UNL     1      11.064  10.150   0.017  0.00  0.00    +0.008 A 
ENDBRANCH   8   9
ENDBRANCH   4   7
ENDBRANCH   1   3
BRANCH   1  19
ATOM     19  N   UNL     1       0.149   9.832   0.513  0.00  0.00    -0.245 N 
ATOM     20  H   UNL     1      -0.678  10.332   0.589  0.00  0.00    +0.172 HD
BRANCH  19  23
ATOM     21  C   UNL     1      -1.064   7.786   0.423  0.00  0.00    +0.260 C 
ATOM     22  O   UNL     1      -2.102   8.413   0.518  0.00  0.00    -0.269 OA
ATOM     23  N   UNL     1       0.117   8.435   0.414  0.00  0.00    -0.231 N 
ATOM     24  H   UNL     1       0.945   7.935   0.338  0.00  0.00    +0.173 HD
BRANCH  21  28
ATOM     25  C   UNL     1      -1.162   3.551   0.119  0.00  0.00    +0.033 A 
ATOM     26  C   UNL     1       0.058   4.219   0.115  0.00  0.00    +0.024 A 
ATOM     27  C   UNL     1       0.093   5.592   0.208  0.00  0.00    +0.015 A 
ATOM     28  C   UNL     1      -1.098   6.314   0.318  0.00  0.00    +0.038 A 
ATOM     29  C   UNL     1      -2.322   5.640   0.327  0.00  0.00    +0.015 A 
ATOM     30  C   UNL     1      -2.350   4.267   0.229  0.00  0.00    +0.024 A 
BRANCH  25  34
ATOM     31  C   UNL     1      -0.231   0.010  -0.731  0.00  0.00    +0.109 C 
ATOM     32  C   UNL     1      -0.267   1.516  -0.716  0.00  0.00    +0.214 C 
ATOM     33  O   UNL     1       0.535   2.149  -1.370  0.00  0.00    -0.276 OA
ATOM     34  N   UNL     1      -1.195   2.161   0.019  0.00  0.00    -0.286 N 
ATOM     35  H   UNL     1      -1.884   1.657   0.480  0.00  0.00    +0.155 HD
ENDBRANCH  25  34
ENDBRANCH  21  28
ENDBRANCH  19  23
ENDBRANCH   1  19
TORSDOF 7
