REMARK  Name = ZINC32937309
REMARK  4 active torsions:
REMARK  status: ('A' for Active; 'I' for Inactive)
REMARK    1  A    between atoms: C_6  and  C_7
REMARK    2  A    between atoms: C_10  and  C_12
REMARK    3  A    between atoms: N_14  and  C_15
REMARK    4  A    between atoms: C_18  and  N_21
REMARK                            x       y       z     vdW  Elec       q    Type
REMARK                         _______ _______ _______ _____ _____    ______ ____
ROOT
ATOM      1  C   UNL     1      -5.527   4.630  -1.136  0.00  0.00    +0.255 C 
ATOM      2  O   UNL     1      -4.585   5.387  -1.278  0.00  0.00    -0.269 OA
ATOM      3  N   UNL     1      -5.318   3.363  -0.725  0.00  0.00    -0.281 N 
ATOM      4  H   UNL     1      -6.173   2.702  -0.523  0.00  0.00    +0.155 HD
ENDROOT
BRANCH   3   5
ATOM      5  C   UNL     1      -4.011   2.890  -0.553  0.00  0.00    +0.034 A 
ATOM      6  C   UNL     1      -3.019   3.743  -0.088  0.00  0.00    +0.025 A 
ATOM      7  C   UNL     1      -1.731   3.275   0.081  0.00  0.00    +0.025 A 
ATOM      8  C   UNL     1      -1.428   1.953  -0.214  0.00  0.00    +0.035 A 
ATOM      9  C   UNL     1      -2.419   1.102  -0.685  0.00  0.00    +0.025 A 
ATOM     10  C   UNL     1      -3.708   1.567  -0.849  0.00  0.00    +0.025 A 
BRANCH   8  11
ATOM     11  N   UNL     1      -0.120   1.479  -0.043  0.00  0.00    -0.270 N 
ATOM     12  C   UNL     1       0.636   1.940   0.972  0.00  0.00    +0.301 C 
ATOM     13  O   UNL     1       0.214   2.824   1.692  0.00  0.00    -0.253 OA
ATOM     14  N   UNL     1       1.861   1.421   1.190  0.00  0.00    -0.313 N 
ATOM     15  H   UNL     1       0.289   0.730  -0.738  0.00  0.00    +0.156 HD
ATOM     16  H   UNL     1       2.478   1.798   2.019  0.00  0.00    +0.146 HD
ATOM     17  H   UNL     1       2.243   0.622   0.538  0.00  0.00    +0.146 HD
ENDBRANCH   8  11
ENDBRANCH   3   5
BRANCH   1  21
ATOM     18  C   UNL     1      -9.528   5.507  -1.796  0.00  0.00    +0.020 A 
ATOM     19  C   UNL     1      -8.650   6.552  -2.033  0.00  0.00    +0.017 A 
ATOM     20  C   UNL     1      -7.314   6.346  -1.834  0.00  0.00    +0.021 A 
ATOM     21  C   UNL     1      -6.888   5.094  -1.412  0.00  0.00    +0.075 A 
ATOM     22  S   UNL     1      -8.427   4.198  -1.285  0.00  0.00    -0.084 S 
BRANCH  18  28
ATOM     23  C   UNL     1     -11.684   6.626  -2.346  0.00  0.00    +0.010 A 
ATOM     24  C   UNL     1     -13.057   6.596  -2.475  0.00  0.00    +0.016 A 
ATOM     25  C   UNL     1     -13.757   5.436  -2.185  0.00  0.00    +0.018 A 
ATOM     26  C   UNL     1     -13.084   4.300  -1.769  0.00  0.00    +0.016 A 
ATOM     27  C   UNL     1     -11.711   4.317  -1.641  0.00  0.00    +0.010 A 
ATOM     28  C   UNL     1     -10.999   5.482  -1.932  0.00  0.00    -0.011 A 
ATOM     29 BR   UNL     1     -15.640   5.405  -2.358  0.00  0.00    -0.050 Br
ENDBRANCH  18  28
ENDBRANCH   1  21
TORSDOF 4
