REMARK  Name = ZINC54477800
REMARK  12 active torsions:
REMARK  status: ('A' for Active; 'I' for Inactive)
REMARK    1  A    between atoms: C_1  and  C_2
REMARK    2  A    between atoms: C_2  and  C_3
REMARK    3  A    between atoms: C_3  and  C_5
REMARK    4  A    between atoms: C_3  and  N_6
REMARK    5  A    between atoms: C_7  and  C_9
REMARK    6  A    between atoms: C_12  and  N_15
REMARK    7  A    between atoms: N_18  and  C_19
REMARK    8  A    between atoms: C_19  and  C_21
REMARK    9  A    between atoms: C_19  and  C_22
REMARK   10  A    between atoms: C_22  and  C_23
REMARK   11  A    between atoms: C_23  and  C_24
REMARK   12  A    between atoms: C_27  and  O_30
REMARK                            x       y       z     vdW  Elec       q    Type
REMARK                         _______ _______ _______ _____ _____    ______ ____
ROOT
ATOM      1  N   UNL     1      -6.036   1.443  -6.053  0.00  0.00    -0.269 N 
ATOM      2  C   UNL     1      -7.383   1.459  -6.114  0.00  0.00    +0.304 C 
ATOM      3  O   UNL     1      -8.039   1.243  -5.114  0.00  0.00    -0.253 OA
ATOM      4  N   UNL     1      -8.001   1.714  -7.284  0.00  0.00    -0.297 N 
ATOM      5  H   UNL     1      -5.513   1.680  -6.834  0.00  0.00    +0.156 HD
ATOM      6  H   UNL     1      -7.477   1.887  -8.082  0.00  0.00    +0.151 HD
ENDROOT
BRANCH   1  10
ATOM      7  C   UNL     1      -4.125   0.374  -2.510  0.00  0.00    +0.037 A 
ATOM      8  C   UNL     1      -5.327   1.087  -2.470  0.00  0.00    +0.015 A 
ATOM      9  C   UNL     1      -5.956   1.439  -3.643  0.00  0.00    +0.024 A 
ATOM     10  C   UNL     1      -5.397   1.085  -4.867  0.00  0.00    +0.035 A 
ATOM     11  C   UNL     1      -4.201   0.375  -4.910  0.00  0.00    +0.024 A 
ATOM     12  C   UNL     1      -3.564   0.025  -3.741  0.00  0.00    +0.015 A 
BRANCH   7  14
ATOM     13  N   UNL     1      -3.991   0.333  -0.068  0.00  0.00    -0.309 N 
ATOM     14  C   UNL     1      -3.448  -0.004  -1.254  0.00  0.00    +0.244 C 
ATOM     15  O   UNL     1      -2.401  -0.621  -1.290  0.00  0.00    -0.270 OA
ATOM     16  H   UNL     1      -4.826   0.825  -0.039  0.00  0.00    +0.149 HD
BRANCH  13  17
ATOM     17  C   UNL     1      -3.318  -0.042   1.179  0.00  0.00    +0.070 C 
ATOM     18  C   UNL     1      -2.264   1.011   1.527  0.00  0.00    +0.028 C 
BRANCH  17  20
ATOM     19  C   UNL     1      -5.329  -1.264   2.019  0.00  0.00    +0.005 C 
ATOM     20  C   UNL     1      -4.347  -0.127   2.308  0.00  0.00    +0.018 C 
ENDBRANCH  17  20
ENDBRANCH  13  17
ENDBRANCH   7  14
ENDBRANCH   1  10
BRANCH   4  21
ATOM     21  C   UNL     1      -9.464   1.732  -7.351  0.00  0.00    +0.072 C 
ATOM     22  C   UNL     1      -9.983   0.307  -7.557  0.00  0.00    +0.028 C 
BRANCH  21  23
ATOM     23  C   UNL     1      -9.911   2.611  -8.521  0.00  0.00    +0.026 C 
BRANCH  23  24
ATOM     24  C   UNL     1      -9.501   4.061  -8.255  0.00  0.00    +0.037 C 
BRANCH  24  25
ATOM     25  C   UNL     1      -9.941   4.927  -9.407  0.00  0.00    -0.047 A 
ATOM     26  C   UNL     1      -9.097   5.122 -10.485  0.00  0.00    +0.007 A 
ATOM     27  C   UNL     1      -9.498   5.916 -11.542  0.00  0.00    +0.045 A 
ATOM     28  C   UNL     1     -10.749   6.516 -11.522  0.00  0.00    +0.117 A 
ATOM     29  C   UNL     1     -11.594   6.318 -10.440  0.00  0.00    +0.045 A 
ATOM     30  C   UNL     1     -11.190   5.519  -9.387  0.00  0.00    +0.007 A 
BRANCH  28  31
ATOM     31  O   UNL     1     -11.145   7.298 -12.561  0.00  0.00    -0.507 OA
ATOM     32  H   UNL     1     -11.606   6.817 -13.262  0.00  0.00    +0.292 HD
ENDBRANCH  28  31
ENDBRANCH  24  25
ENDBRANCH  23  24
ENDBRANCH  21  23
ENDBRANCH   4  21
TORSDOF 9
