REMARK  Name = ZINC36503013
REMARK  19 active torsions:
REMARK  status: ('A' for Active; 'I' for Inactive)
REMARK    1  A    between atoms: C_1  and  C_2
REMARK    2  A    between atoms: C_2  and  C_3
REMARK    3  A    between atoms: C_3  and  C_4
REMARK    4  A    between atoms: N_6  and  C_7
REMARK    5  A    between atoms: N_6  and  C_13
REMARK    6  A    between atoms: C_7  and  C_8
REMARK    7  A    between atoms: C_13  and  C_15
REMARK    8  A    between atoms: C_13  and  C_24
REMARK    9  A    between atoms: C_16  and  O_23
REMARK   10  A    between atoms: C_18  and  O_22
REMARK   11  A    between atoms: C_20  and  O_21
REMARK   12  A    between atoms: N_26  and  C_27
REMARK   13  A    between atoms: C_27  and  C_28
REMARK   14  A    between atoms: C_27  and  C_29
REMARK   15  A    between atoms: C_27  and  C_30
REMARK   16  A    between atoms: C_30  and  C_31
REMARK   17  A    between atoms: C_31  and  C_32
REMARK   18  A    between atoms: C_31  and  C_33
REMARK   19  A    between atoms: C_31  and  C_34
REMARK                            x       y       z     vdW  Elec       q    Type
REMARK                         _______ _______ _______ _____ _____    ______ ____
ROOT
ATOM      1  C   UNL     1       0.031  -4.101  -2.232  0.00  0.00    +0.200 C 
ENDROOT
BRANCH   1   2
ATOM      2  C   UNL     1       1.412  -4.691  -2.108  0.00  0.00    +0.065 A 
ATOM      3  C   UNL     1       2.357  -4.457  -3.095  0.00  0.00    +0.129 A 
ATOM      4  C   UNL     1       3.628  -5.001  -2.982  0.00  0.00    +0.091 A 
ATOM      5  C   UNL     1       3.953  -5.779  -1.881  0.00  0.00    +0.124 A 
ATOM      6  C   UNL     1       3.008  -6.012  -0.893  0.00  0.00    +0.091 A 
ATOM      7  C   UNL     1       1.739  -5.465  -1.004  0.00  0.00    +0.129 A 
BRANCH   7   8
ATOM      8  O   UNL     1       0.814  -5.690  -0.034  0.00  0.00    -0.506 OA
ATOM      9  H   UNL     1       0.275  -6.479  -0.180  0.00  0.00    +0.292 HD
ENDBRANCH   7   8
BRANCH   5  10
ATOM     10  O   UNL     1       5.198  -6.312  -1.770  0.00  0.00    -0.507 OA
ATOM     11  H   UNL     1       5.830  -5.744  -1.307  0.00  0.00    +0.292 HD
ENDBRANCH   5  10
BRANCH   3  12
ATOM     12  O   UNL     1       2.038  -3.695  -4.174  0.00  0.00    -0.506 OA
ATOM     13  H   UNL     1       2.298  -2.767  -4.091  0.00  0.00    +0.292 HD
ENDBRANCH   3  12
ENDBRANCH   1   2
BRANCH   1  14
ATOM     14  C   UNL     1      -0.758  -4.877  -3.254  0.00  0.00    +0.239 C 
ATOM     15  O   UNL     1      -0.926  -4.420  -4.365  0.00  0.00    -0.273 OA
ATOM     16  N   UNL     1      -1.277  -6.079  -2.935  0.00  0.00    -0.308 N 
ATOM     17  H   UNL     1      -1.142  -6.445  -2.046  0.00  0.00    +0.149 HD
BRANCH  16  18
ATOM     18  C   UNL     1      -2.044  -6.834  -3.929  0.00  0.00    +0.030 C 
ATOM     19  C   UNL     1      -3.372  -6.123  -4.195  0.00  0.00    +0.031 C 
ATOM     20  C   UNL     1      -1.243  -6.923  -5.230  0.00  0.00    +0.031 C 
BRANCH  18  21
ATOM     21  C   UNL     1      -2.317  -8.243  -3.400  0.00  0.00    +0.031 C 
BRANCH  21  22
ATOM     22  C   UNL     1      -1.044  -8.805  -2.764  0.00  0.00    -0.036 C 
ATOM     23  C   UNL     1      -0.831  -8.159  -1.393  0.00  0.00    +0.010 C 
ATOM     24  C   UNL     1      -1.182 -10.319  -2.597  0.00  0.00    +0.010 C 
ATOM     25  C   UNL     1       0.155  -8.498  -3.664  0.00  0.00    +0.010 C 
ENDBRANCH  21  22
ENDBRANCH  18  21
ENDBRANCH  16  18
ENDBRANCH   1  14
BRANCH   1  28
ATOM     26  C   UNL     1       1.058  -1.895  -2.094  0.00  0.00    +0.217 C 
ATOM     27  O   UNL     1       1.803  -2.328  -1.240  0.00  0.00    -0.276 OA
ATOM     28  N   UNL     1       0.135  -2.702  -2.654  0.00  0.00    -0.278 N 
BRANCH  26  29
ATOM     29  C   UNL     1       1.164  -0.456  -2.528  0.00  0.00    +0.096 C 
BRANCH  29  31
ATOM     30  C   UNL     1       2.391   1.693  -2.184  0.00  0.00    +0.004 C 
ATOM     31  C   UNL     1       2.283   0.232  -1.743  0.00  0.00    +0.006 C 
ENDBRANCH  29  31
ENDBRANCH  26  29
BRANCH  28  32
ATOM     32  C   UNL     1      -0.765  -2.179  -3.685  0.00  0.00    +0.183 C 
BRANCH  32  33
ATOM     33  C   UNL     1       0.013  -1.928  -4.951  0.00  0.00    +0.122 A 
ATOM     34  C   UNL     1       0.013  -2.713  -6.043  0.00  0.00    +0.046 A 
ATOM     35  C   UNL     1       0.874  -2.104  -6.985  0.00  0.00    +0.041 A 
ATOM     36  C   UNL     1       1.349  -0.984  -6.411  0.00  0.00    +0.195 A 
ATOM     37  O   UNL     1       0.820  -0.879  -5.182  0.00  0.00    -0.466 OA
ENDBRANCH  32  33
ENDBRANCH  28  32
ENDBRANCH   1  28
TORSDOF 13
