REMARK  Name = ZINC14276531
REMARK  13 active torsions:
REMARK  status: ('A' for Active; 'I' for Inactive)
REMARK    1  A    between atoms: C_1  and  C_2
REMARK    2  A    between atoms: C_2  and  C_3
REMARK    3  A    between atoms: C_2  and  C_4
REMARK    4  A    between atoms: C_2  and  C_5
REMARK    5  A    between atoms: C_12  and  N_17
REMARK    6  A    between atoms: C_13  and  C_14
REMARK    7  A    between atoms: N_17  and  C_18
REMARK    8  A    between atoms: C_18  and  N_20
REMARK    9  A    between atoms: C_21  and  C_23
REMARK   10  A    between atoms: C_25  and  O_31
REMARK   11  A    between atoms: C_27  and  O_29
REMARK   12  A    between atoms: O_29  and  C_30
REMARK   13  A    between atoms: O_31  and  C_32
REMARK                            x       y       z     vdW  Elec       q    Type
REMARK                         _______ _______ _______ _____ _____    ______ ____
ROOT
ATOM      1  C   UNL     1      -7.929   4.017   0.439  0.00  0.00    -0.000 C 
ATOM      2  C   UNL     1      -8.269   2.784  -0.403  0.00  0.00    +0.009 C 
ATOM      3  C   UNL     1      -7.413   1.597   0.044  0.00  0.00    +0.037 C 
ATOM      4  C   UNL     1      -5.949   2.019   0.040  0.00  0.00    -0.023 A 
ATOM      5  C   UNL     1      -5.602   3.324   0.045  0.00  0.00    -0.004 A 
ATOM      6  S   UNL     1      -3.831   3.321   0.038  0.00  0.00    -0.077 S 
ATOM      7  C   UNL     1      -3.554   1.611   0.028  0.00  0.00    +0.084 A 
ATOM      8  C   UNL     1      -4.838   1.083   0.025  0.00  0.00    +0.068 A 
ATOM      9  C   UNL     1      -6.524   4.504   0.057  0.00  0.00    +0.046 C 
ENDROOT
BRANCH   8  10
ATOM     10  C   UNL     1      -5.064  -0.366   0.012  0.00  0.00    +0.244 C 
ATOM     11  O   UNL     1      -5.157  -0.977   1.061  0.00  0.00    -0.270 OA
ATOM     12  N   UNL     1      -5.170  -1.021  -1.161  0.00  0.00    -0.325 N 
ATOM     13  H   UNL     1      -5.097  -0.534  -1.997  0.00  0.00    +0.145 HD
ATOM     14  H   UNL     1      -5.320  -1.979  -1.169  0.00  0.00    +0.145 HD
ENDBRANCH   8  10
BRANCH   1  16
ATOM     15  C   UNL     1      -8.921   5.482  -1.325  0.00  0.00    +0.011 C 
ATOM     16  C   UNL     1      -8.948   5.124   0.162  0.00  0.00    -0.035 C 
ATOM     17  C   UNL     1     -10.347   4.636   0.544  0.00  0.00    +0.011 C 
ATOM     18  C   UNL     1      -8.596   6.360   0.991  0.00  0.00    +0.011 C 
ENDBRANCH   1  16
BRANCH   7  19
ATOM     19  N   UNL     1      -2.345   0.934   0.018  0.00  0.00    -0.291 N 
ATOM     20  H   UNL     1      -2.332  -0.036   0.013  0.00  0.00    +0.154 HD
BRANCH  19  21
ATOM     21  C   UNL     1      -1.187   1.624   0.017  0.00  0.00    +0.141 C 
ATOM     22  S   UNL     1      -1.210   3.336   0.026  0.00  0.00    -0.018 S 
BRANCH  21  23
ATOM     23  N   UNL     1      -0.011   0.966   0.007  0.00  0.00    -0.264 N 
ATOM     24  C   UNL     1       1.147   1.655   0.000  0.00  0.00    +0.250 C 
ATOM     25  O   UNL     1       1.130   2.871   0.007  0.00  0.00    -0.270 OA
ATOM     26  H   UNL     1       0.002  -0.004   0.002  0.00  0.00    +0.157 HD
BRANCH  24  27
ATOM     27  C   UNL     1       2.437   0.934  -0.016  0.00  0.00    +0.044 A 
ATOM     28  C   UNL     1       2.458  -0.461  -0.018  0.00  0.00    +0.059 A 
ATOM     29  C   UNL     1       3.669  -1.133  -0.039  0.00  0.00    +0.124 A 
ATOM     30  C   UNL     1       4.860  -0.421  -0.047  0.00  0.00    +0.091 A 
ATOM     31  C   UNL     1       4.843   0.966  -0.039  0.00  0.00    +0.124 A 
ATOM     32  C   UNL     1       3.637   1.646  -0.024  0.00  0.00    +0.059 A 
BRANCH  31  33
ATOM     33  O   UNL     1       6.013   1.659  -0.046  0.00  0.00    -0.495 OA
ATOM     34  C   UNL     1       7.219   0.893  -0.062  0.00  0.00    +0.277 C 
ENDBRANCH  31  33
BRANCH  29  35
ATOM     35  O   UNL     1       3.691  -2.492  -0.047  0.00  0.00    -0.495 OA
ATOM     36  C   UNL     1       4.974  -3.120  -0.064  0.00  0.00    +0.277 C 
ENDBRANCH  29  35
ENDBRANCH  24  27
ENDBRANCH  21  23
ENDBRANCH  19  21
ENDBRANCH   7  19
TORSDOF 8
