REMARK  Name = ZINC42933403
REMARK  7 active torsions:
REMARK  status: ('A' for Active; 'I' for Inactive)
REMARK    1  A    between atoms: C_1  and  C_2
REMARK    2  A    between atoms: C_7  and  N_8
REMARK    3  A    between atoms: N_11  and  C_12
REMARK    4  A    between atoms: C_12  and  C_13
REMARK    5  A    between atoms: C_13  and  C_14
REMARK    6  A    between atoms: C_17  and  S_20
REMARK    7  A    between atoms: S_20  and  N_23
REMARK                            x       y       z     vdW  Elec       q    Type
REMARK                         _______ _______ _______ _____ _____    ______ ____
ROOT
ATOM      1  N   UNL     1       0.025  -0.014   2.417  0.00  0.00    -0.269 N 
ATOM      2  C   UNL     1      -0.057  -0.694   3.578  0.00  0.00    +0.304 C 
ATOM      3  O   UNL     1      -0.040  -1.909   3.574  0.00  0.00    -0.253 OA
ATOM      4  N   UNL     1      -0.157  -0.025   4.744  0.00  0.00    -0.299 N 
ATOM      5  H   UNL     1       0.077   0.955   2.425  0.00  0.00    +0.156 HD
ATOM      6  H   UNL     1      -0.170   0.945   4.748  0.00  0.00    +0.150 HD
ENDROOT
BRANCH   1  13
ATOM      7  C   UNL     1      -1.265   1.183   0.181  0.00  0.00    +0.045 C 
ATOM      8  C   UNL     1      -0.584  -0.158   0.084  0.00  0.00    -0.029 A 
ATOM      9  C   UNL     1      -0.569  -0.841  -1.117  0.00  0.00    +0.006 A 
ATOM     10  C   UNL     1       0.055  -2.071  -1.207  0.00  0.00    +0.015 A 
ATOM     11  C   UNL     1       0.667  -2.622  -0.095  0.00  0.00    +0.020 A 
ATOM     12  C   UNL     1       0.656  -1.944   1.109  0.00  0.00    +0.039 A 
ATOM     13  C   UNL     1       0.034  -0.706   1.201  0.00  0.00    +0.039 A 
ATOM     14 BR   UNL     1       1.520  -4.305  -0.223  0.00  0.00    -0.050 Br
ENDBRANCH   1  13
BRANCH   4  15
ATOM     15  C   UNL     1      -0.245  -0.764   6.006  0.00  0.00    +0.110 C 
BRANCH  15  16
ATOM     16  C   UNL     1      -0.350   0.225   7.170  0.00  0.00    +0.054 C 
BRANCH  16  17
ATOM     17  C   UNL     1      -0.441  -0.535   8.468  0.00  0.00    -0.046 A 
ATOM     18  C   UNL     1      -1.676  -0.905   8.967  0.00  0.00    +0.005 A 
ATOM     19  C   UNL     1      -1.759  -1.601  10.158  0.00  0.00    +0.029 A 
ATOM     20  C   UNL     1      -0.608  -1.929  10.850  0.00  0.00    +0.105 A 
ATOM     21  C   UNL     1       0.627  -1.561  10.350  0.00  0.00    +0.029 A 
ATOM     22  C   UNL     1       0.711  -0.867   9.157  0.00  0.00    +0.005 A 
BRANCH  20  23
ATOM     23  S   UNL     1      -0.715  -2.817  12.368  0.00  0.00    +0.056 S 
ATOM     24  O   UNL     1       0.472  -2.524  13.093  0.00  0.00    -0.153 OA
ATOM     25  O   UNL     1      -2.010  -2.566  12.895  0.00  0.00    -0.153 OA
BRANCH  23  26
ATOM     26  N   UNL     1      -0.657  -4.430  11.998  0.00  0.00    -0.204 NA
ATOM     27  H   UNL     1      -0.276  -5.059  12.630  0.00  0.00    +0.144 HD
ATOM     28  H   UNL     1      -1.006  -4.745  11.149  0.00  0.00    +0.144 HD
ENDBRANCH  23  26
ENDBRANCH  20  23
ENDBRANCH  16  17
ENDBRANCH  15  16
ENDBRANCH   4  15
TORSDOF 6
