REMARK  Name = ZINC66671914
REMARK  5 active torsions:
REMARK  status: ('A' for Active; 'I' for Inactive)
REMARK    1  A    between atoms: C_3  and  C_22
REMARK    2  A    between atoms: C_5  and  N_7
REMARK    3  A    between atoms: N_10  and  C_11
REMARK    4  A    between atoms: C_11  and  C_12
REMARK    5  A    between atoms: C_12  and  C_17
REMARK                            x       y       z     vdW  Elec       q    Type
REMARK                         _______ _______ _______ _____ _____    ______ ____
ROOT
ATOM      1  N   UNL     1       1.385  -2.207  -0.273  0.00  0.00    -0.269 N 
ATOM      2  C   UNL     1       0.214  -2.829  -0.031  0.00  0.00    +0.304 C 
ATOM      3  O   UNL     1      -0.804  -2.178   0.103  0.00  0.00    -0.253 OA
ATOM      4  N   UNL     1       0.172  -4.173   0.063  0.00  0.00    -0.298 N 
ATOM      5  H   UNL     1       2.182  -2.728  -0.454  0.00  0.00    +0.156 HD
ATOM      6  H   UNL     1       0.984  -4.692  -0.044  0.00  0.00    +0.150 HD
ENDROOT
BRANCH   1  11
ATOM      7  C   UNL     1       2.397   1.233  -1.104  0.00  0.00    +0.002 A 
ATOM      8  C   UNL     1       1.588   1.963  -0.256  0.00  0.00    +0.010 A 
ATOM      9  C   UNL     1       0.702   1.308   0.597  0.00  0.00    +0.004 A 
ATOM     10  C   UNL     1       0.634  -0.083   0.591  0.00  0.00    +0.033 A 
ATOM     11  C   UNL     1       1.449  -0.808  -0.264  0.00  0.00    +0.035 A 
ATOM     12  C   UNL     1       2.330  -0.147  -1.111  0.00  0.00    +0.023 A 
BRANCH   9  13
ATOM     13  C   UNL     1      -0.167   2.091   1.510  0.00  0.00    +0.091 A 
ATOM     14  C   UNL     1      -0.099   3.504   1.509  0.00  0.00    +0.035 A 
ATOM     15  C   UNL     1      -0.913   4.191   2.361  0.00  0.00    +0.073 A 
ATOM     16  C   UNL     1      -1.776   3.446   3.194  0.00  0.00    +0.265 A 
ATOM     17  O   UNL     1      -2.523   4.017   3.972  0.00  0.00    -0.266 OA
ATOM     18  N   UNL     1      -1.770   2.102   3.123  0.00  0.00    -0.243 N 
ATOM     19  H   UNL     1      -2.365   1.596   3.698  0.00  0.00    +0.192 HD
ATOM     20  N   UNL     1      -1.000   1.471   2.312  0.00  0.00    -0.171 NA
ENDBRANCH   9  13
ENDBRANCH   1  11
BRANCH   4  21
ATOM     21  C   UNL     1      -1.101  -4.849   0.326  0.00  0.00    +0.117 C 
BRANCH  21  22
ATOM     22  C   UNL     1      -0.853  -6.347   0.517  0.00  0.00    +0.018 C 
ATOM     23  C   UNL     1      -2.181  -7.069   0.801  0.00  0.00    +0.013 C 
ATOM     24  C   UNL     1      -2.041  -7.717   2.194  0.00  0.00    +0.001 C 
ATOM     25  C   UNL     1      -0.948  -6.875   2.897  0.00  0.00    +0.001 C 
ATOM     26  C   UNL     1       0.048  -6.580   1.747  0.00  0.00    +0.013 C 
BRANCH  22  27
ATOM     27  C   UNL     1      -0.203  -6.923  -0.715  0.00  0.00    -0.003 A 
ATOM     28  C   UNL     1      -0.638  -6.901  -1.999  0.00  0.00    +0.012 A 
ATOM     29  C   UNL     1       0.132  -7.500  -2.978  0.00  0.00    +0.008 A 
ATOM     30  C   UNL     1       1.300  -8.092  -2.625  0.00  0.00    +0.045 A 
ATOM     31  S   UNL     1       1.342  -7.805  -0.863  0.00  0.00    -0.101 S 
ENDBRANCH  22  27
ENDBRANCH  21  22
ENDBRANCH   4  21
TORSDOF 5
