REMARK  Name = ZINC40943056
REMARK  8 active torsions:
REMARK  status: ('A' for Active; 'I' for Inactive)
REMARK    1  A    between atoms: C_1  and  C_2
REMARK    2  A    between atoms: C_5  and  O_9
REMARK    3  A    between atoms: O_9  and  C_10
REMARK    4  A    between atoms: C_10  and  C_11
REMARK    5  A    between atoms: C_11  and  C_12
REMARK    6  A    between atoms: C_12  and  C_13
REMARK    7  A    between atoms: N_15  and  C_16
REMARK    8  A    between atoms: C_17  and  C_24
REMARK                            x       y       z     vdW  Elec       q    Type
REMARK                         _______ _______ _______ _____ _____    ______ ____
ROOT
ATOM      1  C   UNL     1       0.101  -8.470  -2.287  0.00  0.00    +0.218 C 
ATOM      2  O   UNL     1       0.113  -8.940  -1.169  0.00  0.00    -0.275 OA
ATOM      3  N   UNL     1       0.106  -9.285  -3.361  0.00  0.00    -0.279 N 
ATOM      4  H   UNL     1       0.097  -8.909  -4.255  0.00  0.00    +0.155 HD
ENDROOT
BRANCH   3   5
ATOM      5  C   UNL     1       0.125 -10.661  -3.187  0.00  0.00    +0.084 A 
ATOM      6  C   UNL     1       0.138 -11.640  -4.162  0.00  0.00    +0.068 A 
ATOM      7  C   UNL     1       0.158 -13.032  -3.714  0.00  0.00    -0.023 A 
ATOM      8  C   UNL     1       0.159 -13.177  -2.377  0.00  0.00    -0.004 A 
ATOM      9  S   UNL     1       0.144 -11.518  -1.746  0.00  0.00    -0.077 S 
ATOM     10  C   UNL     1       0.175 -14.626  -1.970  0.00  0.00    +0.043 C 
ATOM     11  C   UNL     1      -0.248 -15.393  -3.242  0.00  0.00    +0.010 C 
ATOM     12  C   UNL     1       0.181 -14.417  -4.356  0.00  0.00    +0.037 C 
BRANCH   6  13
ATOM     13  C   UNL     1       0.133 -11.298  -5.588  0.00  0.00    +0.244 C 
ATOM     14  O   UNL     1       1.184 -11.142  -6.181  0.00  0.00    -0.270 OA
ATOM     15  N   UNL     1      -1.037 -11.157  -6.242  0.00  0.00    -0.325 N 
ATOM     16  H   UNL     1      -1.875 -11.282  -5.770  0.00  0.00    +0.145 HD
ATOM     17  H   UNL     1      -1.041 -10.931  -7.186  0.00  0.00    +0.145 HD
ENDBRANCH   6  13
ENDBRANCH   3   5
BRANCH   1  18
ATOM     18  C   UNL     1       0.081  -6.975  -2.475  0.00  0.00    +0.099 C 
BRANCH  18  19
ATOM     19  C   UNL     1       0.079  -6.289  -1.108  0.00  0.00    +0.050 C 
BRANCH  19  20
ATOM     20  C   UNL     1       0.058  -4.771  -1.300  0.00  0.00    +0.229 C 
BRANCH  20  21
ATOM     21  O   UNL     1       0.057  -4.130  -0.022  0.00  0.00    -0.491 OA
BRANCH  21  26
ATOM     22  C   UNL     1      -0.018   1.503   0.010  0.00  0.00    +0.044 C 
ATOM     23  C   UNL     1       0.002  -0.004   0.002  0.00  0.00    -0.049 A 
ATOM     24  C   UNL     1       0.006  -0.688  -1.200  0.00  0.00    +0.007 A 
ATOM     25  C   UNL     1       0.024  -2.069  -1.211  0.00  0.00    +0.047 A 
ATOM     26  C   UNL     1       0.039  -2.771  -0.014  0.00  0.00    +0.134 A 
ATOM     27  C   UNL     1       0.036  -2.083   1.191  0.00  0.00    +0.060 A 
ATOM     28  C   UNL     1       0.023  -0.700   1.196  0.00  0.00    +0.022 A 
ATOM     29 BR   UNL     1       0.056  -3.035   2.825  0.00  0.00    -0.047 Br
ENDBRANCH  21  26
ENDBRANCH  20  21
ENDBRANCH  19  20
ENDBRANCH  18  19
ENDBRANCH   1  18
TORSDOF 7
