REMARK  Name = ZINC07946152
REMARK  7 active torsions:
REMARK  status: ('A' for Active; 'I' for Inactive)
REMARK    1  A    between atoms: C_1  and  C_2
REMARK    2  A    between atoms: C_5  and  S_8
REMARK    3  A    between atoms: S_8  and  N_11
REMARK    4  A    between atoms: N_11  and  N_12
REMARK    5  A    between atoms: C_13  and  C_14
REMARK    6  A    between atoms: C_18  and  O_21
REMARK    7  A    between atoms: C_19  and  O_20
REMARK                            x       y       z     vdW  Elec       q    Type
REMARK                         _______ _______ _______ _____ _____    ______ ____
ROOT
ATOM      1  N   UNL     1      -3.767   5.845   0.070  0.00  0.00    -0.137 N 
ATOM      2  H   UNL     1      -4.600   5.348   0.075  0.00  0.00    +0.197 HD
ENDROOT
BRANCH   1   3
ATOM      3  S   UNL     1      -3.789   7.500   0.079  0.00  0.00    +0.086 S 
ATOM      4  O   UNL     1      -5.149   7.889  -0.051  0.00  0.00    -0.149 OA
ATOM      5  O   UNL     1      -2.981   7.911   1.174  0.00  0.00    -0.149 OA
BRANCH   3  10
ATOM      6  C   UNL     1      -0.978   9.352  -4.928  0.00  0.00    +0.044 C 
ATOM      7  C   UNL     1      -1.680   8.890  -3.678  0.00  0.00    -0.050 A 
ATOM      8  C   UNL     1      -3.044   8.666  -3.693  0.00  0.00    +0.005 A 
ATOM      9  C   UNL     1      -3.688   8.242  -2.546  0.00  0.00    +0.029 A 
ATOM     10  C   UNL     1      -2.968   8.041  -1.383  0.00  0.00    +0.110 A 
ATOM     11  C   UNL     1      -1.604   8.269  -1.366  0.00  0.00    +0.029 A 
ATOM     12  C   UNL     1      -0.960   8.688  -2.515  0.00  0.00    +0.005 A 
ENDBRANCH   3  10
ENDBRANCH   1   3
BRANCH   1  13
ATOM     13  N   UNL     1      -2.544   5.160   0.054  0.00  0.00    -0.174 NA
ATOM     14  C   UNL     1      -2.527   3.863   0.047  0.00  0.00    +0.143 C 
BRANCH  14  15
ATOM     15  C   UNL     1      -1.240   3.143   0.031  0.00  0.00    +0.040 A 
ATOM     16  C   UNL     1      -1.218   1.746   0.017  0.00  0.00    +0.013 A 
ATOM     17  C   UNL     1      -0.013   1.076   0.008  0.00  0.00    +0.004 A 
ATOM     18  C   UNL     1       1.179   1.781   0.000  0.00  0.00    +0.049 A 
ATOM     19  C   UNL     1       1.171   3.167   0.008  0.00  0.00    +0.159 A 
ATOM     20  C   UNL     1      -0.036   3.856   0.024  0.00  0.00    +0.167 A 
BRANCH  20  21
ATOM     21  O   UNL     1      -0.046   5.215   0.032  0.00  0.00    -0.503 OA
ATOM     22  H   UNL     1      -0.058   5.614  -0.849  0.00  0.00    +0.292 HD
ENDBRANCH  20  21
BRANCH  19  23
ATOM     23  O   UNL     1       2.345   3.853   0.001  0.00  0.00    -0.503 OA
ATOM     24  H   UNL     1       2.676   4.057  -0.885  0.00  0.00    +0.292 HD
ENDBRANCH  19  23
ENDBRANCH  14  15
ENDBRANCH   1  13
TORSDOF 6
