REMARK  Name = ZINC61639240
REMARK  4 active torsions:
REMARK  status: ('A' for Active; 'I' for Inactive)
REMARK    1  A    between atoms: N_5  and  C_9
REMARK    2  A    between atoms: C_9  and  C_10
REMARK    3  A    between atoms: C_14  and  N_16
REMARK    4  A    between atoms: N_16  and  N_17
REMARK                            x       y       z     vdW  Elec       q    Type
REMARK                         _______ _______ _______ _____ _____    ______ ____
ROOT
ATOM      1  C   UNL     1       4.073  -0.979   1.378  0.00  0.00    +0.081 A 
ATOM      2  C   UNL     1       4.876  -0.056   2.020  0.00  0.00    +0.064 A 
ATOM      3  C   UNL     1       5.285  -0.302   3.325  0.00  0.00    +0.025 A 
ATOM      4  C   UNL     1       4.871  -1.471   3.937  0.00  0.00    +0.046 A 
ATOM      5  C   UNL     1       4.063  -2.356   3.231  0.00  0.00    +0.132 A 
ATOM      6  N   UNL     1       3.689  -2.083   1.990  0.00  0.00    -0.233 NA
ATOM      7 CL   UNL     1       5.368   1.396   1.205  0.00  0.00    -0.082 Cl
ENDROOT
BRANCH   5   8
ATOM      8  N   UNL     1       3.640  -3.535   3.835  0.00  0.00    -0.268 N 
ATOM      9  H   UNL     1       3.909  -3.737   4.745  0.00  0.00    +0.167 HD
BRANCH   8  10
ATOM     10  N   UNL     1       2.846  -4.408   3.147  0.00  0.00    -0.255 NA
ATOM     11  H   UNL     1       3.280  -4.684   2.279  0.00  0.00    +0.140 HD
ATOM     12  H   UNL     1       2.621  -5.214   3.711  0.00  0.00    +0.140 HD
ENDBRANCH   8  10
ENDBRANCH   5   8
BRANCH   1  13
ATOM     13  C   UNL     1       3.625  -0.719  -0.037  0.00  0.00    +0.181 C 
BRANCH  13  18
ATOM     14  C   UNL     1      -0.017   1.398   0.010  0.00  0.00    +0.022 A 
ATOM     15  C   UNL     1       1.164   2.081   0.002  0.00  0.00    +0.071 A 
ATOM     16  C   UNL     1       2.373   1.365  -0.013  0.00  0.00    +0.252 A 
ATOM     17  O   UNL     1       3.436   1.964  -0.020  0.00  0.00    -0.268 OA
ATOM     18  N   UNL     1       2.359   0.019  -0.020  0.00  0.00    -0.308 N 
ATOM     19  C   UNL     1       1.185  -0.664  -0.013  0.00  0.00    +0.104 A 
ATOM     20  C   UNL     1       0.002  -0.004   0.002  0.00  0.00    +0.034 A 
ATOM     21 BR   UNL     1      -1.622  -0.973   0.012  0.00  0.00    -0.049 Br
ENDBRANCH  13  18
ENDBRANCH   1  13
TORSDOF 4
