REMARK  Name = ZINC00112786
REMARK  4 active torsions:
REMARK  status: ('A' for Active; 'I' for Inactive)
REMARK    1  A    between atoms: C_13  and  C_15
REMARK    2  A    between atoms: C_15  and  O_16
REMARK    3  A    between atoms: C_18  and  N_22
REMARK    4  A    between atoms: C_19  and  C_20
REMARK                            x       y       z     vdW  Elec       q    Type
REMARK                         _______ _______ _______ _____ _____    ______ ____
ROOT
ATOM      1  C   UNL     1      -1.594  -3.246   3.648  0.00  0.00    +0.000 A 
ATOM      2  C   UNL     1      -2.758  -3.965   3.473  0.00  0.00    +0.002 A 
ATOM      3  C   UNL     1      -3.364  -4.091   2.232  0.00  0.00    +0.023 A 
ATOM      4  C   UNL     1      -2.747  -3.456   1.153  0.00  0.00    +0.038 A 
ATOM      5  C   UNL     1      -1.566  -2.729   1.345  0.00  0.00    +0.001 A 
ATOM      6  C   UNL     1      -0.969  -2.608   2.581  0.00  0.00    +0.007 A 
ATOM      7  C   UNL     1      -1.183  -2.188   0.002  0.00  0.00    +0.174 C 
ATOM      8  C   UNL     1       0.152  -2.734  -0.431  0.00  0.00    +0.176 A 
ATOM      9  C   UNL     1       1.245  -1.942  -0.413  0.00  0.00    +0.216 A 
ATOM     10  C   UNL     1       2.498  -2.481  -0.825  0.00  0.00    +0.228 A 
ATOM     11  O   UNL     1       3.510  -1.798  -0.821  0.00  0.00    -0.284 OA
ATOM     12  C   UNL     1       2.530  -3.837  -1.238  0.00  0.00    +0.098 A 
ATOM     13  C   UNL     1       1.384  -4.544  -1.223  0.00  0.00    +0.134 A 
ATOM     14  O   UNL     1       0.229  -4.012  -0.831  0.00  0.00    -0.457 OA
ATOM     15  O   UNL     1       1.181  -0.649  -0.013  0.00  0.00    -0.434 OA
ATOM     16  C   UNL     1       0.002  -0.004   0.002  0.00  0.00    +0.200 C 
ATOM     17  C   UNL     1      -1.171  -0.688   0.015  0.00  0.00    +0.113 C 
ATOM     18  C   UNL     1      -2.268  -2.693  -0.926  0.00  0.00    +0.241 C 
ATOM     19  O   UNL     1      -2.350  -2.488  -2.119  0.00  0.00    -0.274 OA
ATOM     20  N   UNL     1      -3.126  -3.416  -0.177  0.00  0.00    -0.284 N 
ATOM     21  H   UNL     1      -3.917  -3.854  -0.529  0.00  0.00    +0.155 HD
ENDROOT
BRANCH  16  22
ATOM     22  N   UNL     1      -0.017   1.369   0.010  0.00  0.00    -0.328 N 
ATOM     23  H   UNL     1       0.817   1.865   0.004  0.00  0.00    +0.145 HD
ATOM     24  H   UNL     1      -0.863   1.842   0.016  0.00  0.00    +0.145 HD
ENDBRANCH  16  22
BRANCH  17  25
ATOM     25  C   UNL     1      -2.409   0.031   0.037  0.00  0.00    +0.102 C 
ATOM     26  N   UNL     1      -3.391   0.601   0.055  0.00  0.00    -0.191 NA
ENDBRANCH  17  25
BRANCH  13  27
ATOM     27  C   UNL     1       1.411  -5.985  -1.663  0.00  0.00    +0.230 C 
BRANCH  27  28
ATOM     28  O   UNL     1       1.673  -6.822  -0.535  0.00  0.00    -0.387 OA
ATOM     29  H   UNL     1       1.705  -7.766  -0.745  0.00  0.00    +0.210 HD
ENDBRANCH  27  28
ENDBRANCH  13  27
TORSDOF 4
