REMARK  Name = ZINC65199431
REMARK  6 active torsions:
REMARK  status: ('A' for Active; 'I' for Inactive)
REMARK    1  A    between atoms: C_1  and  N_2
REMARK    2  A    between atoms: C_10  and  C_11
REMARK    3  A    between atoms: N_13  and  N_14
REMARK    4  A    between atoms: N_17  and  C_18
REMARK    5  A    between atoms: C_18  and  C_19
REMARK    6  A    between atoms: C_19  and  C_20
REMARK                            x       y       z     vdW  Elec       q    Type
REMARK                         _______ _______ _______ _____ _____    ______ ____
ROOT
ATOM      1  C   UNL     1       0.044  -0.142   2.436  0.00  0.00    +0.278 C 
ATOM      2  O   UNL     1       0.186  -0.861   3.407  0.00  0.00    -0.267 OA
ATOM      3  N   UNL     1      -0.103   1.188   2.597  0.00  0.00    -0.228 N 
ATOM      4  H   UNL     1      -0.291   1.752   1.830  0.00  0.00    +0.173 HD
ENDROOT
BRANCH   1  14
ATOM      5  C   UNL     1      -2.480  -0.779   0.774  0.00  0.00    +0.149 C 
ATOM      6  N   UNL     1      -1.099  -1.008   0.344  0.00  0.00    -0.338 N 
ATOM      7  C   UNL     1      -0.714  -1.536  -0.865  0.00  0.00    +0.051 A 
ATOM      8  C   UNL     1      -1.422  -1.985  -1.977  0.00  0.00    +0.026 A 
ATOM      9  C   UNL     1      -0.743  -2.473  -3.070  0.00  0.00    +0.002 A 
ATOM     10  C   UNL     1       0.646  -2.522  -3.077  0.00  0.00    +0.001 A 
ATOM     11  C   UNL     1       1.362  -2.088  -2.000  0.00  0.00    +0.011 A 
ATOM     12  C   UNL     1       0.694  -1.587  -0.875  0.00  0.00    +0.019 A 
ATOM     13  C   UNL     1       1.135  -1.072   0.369  0.00  0.00    +0.079 A 
ATOM     14  C   UNL     1       0.034  -0.724   1.087  0.00  0.00    +0.125 A 
ATOM     15 CL   UNL     1       2.786  -0.909   0.883  0.00  0.00    -0.081 Cl
ENDBRANCH   1  14
BRANCH   3  16
ATOM     16  N   UNL     1       0.015   1.756   3.872  0.00  0.00    -0.218 N 
ATOM     17  C   UNL     1      -0.133   3.086   4.034  0.00  0.00    +0.316 C 
ATOM     18  O   UNL     1      -0.030   3.579   5.141  0.00  0.00    -0.251 OA
ATOM     19  N   UNL     1      -0.394   3.869   2.969  0.00  0.00    -0.298 N 
ATOM     20  H   UNL     1       0.203   1.192   4.639  0.00  0.00    +0.174 HD
ATOM     21  H   UNL     1      -0.475   3.476   2.086  0.00  0.00    +0.150 HD
BRANCH  19  22
ATOM     22  C   UNL     1      -0.554   5.315   3.144  0.00  0.00    +0.111 C 
BRANCH  22  23
ATOM     23  C   UNL     1      -0.841   5.965   1.789  0.00  0.00    +0.061 C 
BRANCH  23  24
ATOM     24  C   UNL     1      -1.006   7.452   1.970  0.00  0.00    -0.009 A 
ATOM     25  C   UNL     1      -0.067   8.428   1.911  0.00  0.00    +0.011 A 
ATOM     26  C   UNL     1      -0.452   9.740   2.111  0.00  0.00    +0.008 A 
ATOM     27  C   UNL     1      -1.757  10.013   2.358  0.00  0.00    +0.045 A 
ATOM     28  S   UNL     1      -2.490   8.385   2.308  0.00  0.00    -0.102 S 
ENDBRANCH  23  24
ENDBRANCH  22  23
ENDBRANCH  19  22
ENDBRANCH   3  16
TORSDOF 5
