REMARK  Name = ZINC21633505
REMARK  8 active torsions:
REMARK  status: ('A' for Active; 'I' for Inactive)
REMARK    1  A    between atoms: C_6  and  N_7
REMARK    2  A    between atoms: C_8  and  C_10
REMARK    3  A    between atoms: C_10  and  C_11
REMARK    4  A    between atoms: C_11  and  N_12
REMARK    5  A    between atoms: N_12  and  C_13
REMARK    6  A    between atoms: C_16  and  S_22
REMARK    7  A    between atoms: C_18  and  N_19
REMARK    8  A    between atoms: S_22  and  N_25
REMARK                            x       y       z     vdW  Elec       q    Type
REMARK                         _______ _______ _______ _____ _____    ______ ____
ROOT
ATOM      1  N   UNL     1      -2.799   2.697   4.866  0.00  0.00    -0.342 N 
ATOM      2  H   UNL     1      -3.557   1.981   5.217  0.00  0.00    +0.146 HD
ENDROOT
BRANCH   1   3
ATOM      3  C   UNL     1      -1.904   2.328   3.859  0.00  0.00    +0.058 A 
ATOM      4  C   UNL     1      -0.866   3.181   3.503  0.00  0.00    +0.027 A 
ATOM      5  C   UNL     1       0.020   2.811   2.511  0.00  0.00    +0.030 A 
ATOM      6  C   UNL     1      -0.131   1.598   1.864  0.00  0.00    +0.107 A 
ATOM      7  C   UNL     1      -1.163   0.748   2.215  0.00  0.00    +0.063 A 
ATOM      8  C   UNL     1      -2.050   1.109   3.210  0.00  0.00    +0.149 A 
BRANCH   8   9
ATOM      9  N   UNL     1      -3.154   0.198   3.585  0.00  0.00    +0.058 N 
ATOM     10  O   UNL     1      -3.348  -0.820   2.945  0.00  0.00    -0.126 OA
ATOM     11  O   UNL     1      -3.869   0.466   4.534  0.00  0.00    -0.126 OA
ENDBRANCH   8   9
BRANCH   6  12
ATOM     12  S   UNL     1       0.998   1.133   0.593  0.00  0.00    +0.056 S 
ATOM     13  O   UNL     1       0.970  -0.286   0.524  0.00  0.00    -0.153 OA
ATOM     14  O   UNL     1       2.196   1.861   0.828  0.00  0.00    -0.153 OA
BRANCH  12  15
ATOM     15  N   UNL     1       0.379   1.690  -0.839  0.00  0.00    -0.204 NA
ATOM     16  H   UNL     1       1.058   1.418  -1.661  0.00  0.00    +0.144 HD
ATOM     17  H   UNL     1       0.277   2.784  -0.794  0.00  0.00    +0.144 HD
ENDBRANCH  12  15
ENDBRANCH   6  12
ENDBRANCH   1   3
BRANCH   1  18
ATOM     18  C   UNL     1      -2.729   4.037   5.453  0.00  0.00    +0.111 C 
BRANCH  18  19
ATOM     19  C   UNL     1      -3.812   4.181   6.524  0.00  0.00    +0.114 C 
BRANCH  19  21
ATOM     20  N   UNL     1      -4.603   5.916   8.101  0.00  0.00    -0.285 N 
ATOM     21  C   UNL     1      -3.740   5.560   7.129  0.00  0.00    +0.219 C 
ATOM     22  O   UNL     1      -2.904   6.349   6.742  0.00  0.00    -0.275 OA
ATOM     23  H   UNL     1      -5.304   5.174   8.512  0.00  0.00    +0.155 HD
BRANCH  20  29
ATOM     24  C   UNL     1      -4.917   7.476   9.917  0.00  0.00    +0.025 A 
ATOM     25  C   UNL     1      -4.917   8.772  10.396  0.00  0.00    +0.023 A 
ATOM     26  C   UNL     1      -4.620   9.824   9.548  0.00  0.00    +0.059 A 
ATOM     27  C   UNL     1      -4.317   9.581   8.218  0.00  0.00    +0.061 A 
ATOM     28  C   UNL     1      -4.311   8.286   7.736  0.00  0.00    +0.044 A 
ATOM     29  C   UNL     1      -4.609   7.229   8.586  0.00  0.00    +0.035 A 
ATOM     30 CL   UNL     1      -3.945  10.903   7.157  0.00  0.00    -0.082 Cl
ATOM     31 CL   UNL     1      -4.627  11.452  10.151  0.00  0.00    -0.082 Cl
ENDBRANCH  20  29
ENDBRANCH  19  21
ENDBRANCH  18  19
ENDBRANCH   1  18
TORSDOF 8
