REMARK  Name = ZINC12644574
REMARK  7 active torsions:
REMARK  status: ('A' for Active; 'I' for Inactive)
REMARK    1  A    between atoms: C_1  and  C_2
REMARK    2  A    between atoms: C_2  and  O_3
REMARK    3  A    between atoms: O_3  and  C_4
REMARK    4  A    between atoms: C_14  and  C_16
REMARK    5  A    between atoms: C_16  and  N_59
REMARK    6  A    between atoms: C_19  and  N_22
REMARK    7  A    between atoms: N_25  and  C_26
REMARK                            x       y       z     vdW  Elec       q    Type
REMARK                         _______ _______ _______ _____ _____    ______ ____
ROOT
ATOM      1  C   UNL     1       3.296   3.211  -1.204  0.00  0.00    -0.076 C 
ATOM      2  C   UNL     1       4.484   4.169  -1.097  0.00  0.00    +0.004 C 
ATOM      3  C   UNL     1       5.779   3.358  -0.985  0.00  0.00    +0.071 C 
ATOM      4  C   UNL     1       5.688   2.433   0.232  0.00  0.00    +0.004 C 
ATOM      5  C   UNL     1       4.465   1.525   0.086  0.00  0.00    -0.076 C 
ATOM      6  N   UNL     1       3.251   2.365   0.008  0.00  0.00    +0.386 N 
ATOM      7  H   UNL     1       3.211   2.971   0.836  0.00  0.00    -0.081 HD
ENDROOT
BRANCH   3   8
ATOM      8  N   UNL     1       6.915   4.269  -0.824  0.00  0.00    -0.296 N 
ATOM      9  C   UNL     1       7.506   4.808  -1.909  0.00  0.00    +0.304 C 
ATOM     10  O   UNL     1       7.096   4.537  -3.021  0.00  0.00    -0.253 OA
ATOM     11  N   UNL     1       8.551   5.646  -1.761  0.00  0.00    -0.269 N 
ATOM     12  H   UNL     1       7.241   4.485   0.064  0.00  0.00    +0.151 HD
ATOM     13  H   UNL     1       8.829   5.923  -0.873  0.00  0.00    +0.156 HD
BRANCH  11  14
ATOM     14  C   UNL     1       9.235   6.118  -2.888  0.00  0.00    +0.035 A 
ATOM     15  C   UNL     1       9.371   5.308  -4.008  0.00  0.00    +0.026 A 
ATOM     16  C   UNL     1      10.041   5.778  -5.120  0.00  0.00    +0.040 A 
ATOM     17  C   UNL     1      10.588   7.050  -5.115  0.00  0.00    +0.124 A 
ATOM     18  C   UNL     1      10.459   7.856  -3.997  0.00  0.00    +0.040 A 
ATOM     19  C   UNL     1       9.784   7.393  -2.884  0.00  0.00    +0.026 A 
ATOM     20  F   UNL     1      11.249   7.505  -6.202  0.00  0.00    -0.205 F 
ENDBRANCH  11  14
ENDBRANCH   3   8
BRANCH   6  21
ATOM     21  C   UNL     1       2.046   1.510  -0.018  0.00  0.00    +0.019 C 
BRANCH  21  32
ATOM     22  C   UNL     1      -5.361   5.680   0.717  0.00  0.00    +0.122 A 
ATOM     23  C   UNL     1      -4.240   6.505   0.727  0.00  0.00    +0.048 A 
ATOM     24  C   UNL     1      -2.974   5.993   0.621  0.00  0.00    +0.032 A 
ATOM     25  C   UNL     1      -2.765   4.600   0.496  0.00  0.00    +0.081 A 
ATOM     26  C   UNL     1      -3.924   3.791   0.489  0.00  0.00    +0.044 A 
ATOM     27  C   UNL     1      -5.191   4.309   0.596  0.00  0.00    +0.063 A 
ATOM     28  S   UNL     1      -3.245   2.159   0.313  0.00  0.00    -0.052 S 
ATOM     29  C   UNL     1      -1.523   2.635   0.271  0.00  0.00    +0.165 A 
ATOM     30  N   UNL     1      -1.590   3.940   0.382  0.00  0.00    -0.225 NA
ATOM     31  N   UNL     1      -0.401   1.830   0.147  0.00  0.00    -0.266 N 
ATOM     32  C   UNL     1       0.827   2.385   0.123  0.00  0.00    +0.202 C 
ATOM     33  O   UNL     1       0.951   3.587   0.216  0.00  0.00    -0.277 OA
ATOM     34  H   UNL     1      -0.500   0.868   0.072  0.00  0.00    +0.157 HD
BRANCH  22  35
ATOM     35  O   UNL     1      -6.608   6.212   0.824  0.00  0.00    -0.492 OA
BRANCH  35  37
ATOM     36  C   UNL     1      -8.169   8.042   1.053  0.00  0.00    +0.048 C 
ATOM     37  C   UNL     1      -6.699   7.633   0.945  0.00  0.00    +0.225 C 
ENDBRANCH  35  37
ENDBRANCH  22  35
ENDBRANCH  21  32
ENDBRANCH   6  21
TORSDOF 6
