REMARK  Name = ZINC12604926
REMARK  10 active torsions:
REMARK  status: ('A' for Active; 'I' for Inactive)
REMARK    1  A    between atoms: C_1  and  C_2
REMARK    2  A    between atoms: C_2  and  O_3
REMARK    3  A    between atoms: O_3  and  C_4
REMARK    4  A    between atoms: C_7  and  S_10
REMARK    5  A    between atoms: S_10  and  N_13
REMARK    6  A    between atoms: N_13  and  C_14
REMARK    7  A    between atoms: C_17  and  C_20
REMARK    8  A    between atoms: N_22  and  N_23
REMARK    9  A    between atoms: C_24  and  C_26
REMARK   10  A    between atoms: C_29  and  C_31
REMARK                            x       y       z     vdW  Elec       q    Type
REMARK                         _______ _______ _______ _____ _____    ______ ____
ROOT
ATOM      1  C   UNL     1       6.899  -3.627   4.880  0.00  0.00    +0.048 A 
ATOM      2  C   UNL     1       6.359  -3.167   6.078  0.00  0.00    +0.025 A 
ATOM      3  C   UNL     1       5.238  -2.369   6.067  0.00  0.00    +0.015 A 
ATOM      4  C   UNL     1       4.641  -2.021   4.852  0.00  0.00    +0.038 A 
ATOM      5  C   UNL     1       5.182  -2.489   3.651  0.00  0.00    +0.015 A 
ATOM      6  C   UNL     1       6.306  -3.283   3.668  0.00  0.00    +0.025 A 
ENDROOT
BRANCH   4   7
ATOM      7  C   UNL     1       3.439  -1.165   4.837  0.00  0.00    +0.260 C 
ATOM      8  O   UNL     1       2.967  -0.762   5.883  0.00  0.00    -0.269 OA
ATOM      9  N   UNL     1       2.865  -0.830   3.665  0.00  0.00    -0.230 N 
ATOM     10  H   UNL     1       3.242  -1.152   2.831  0.00  0.00    +0.173 HD
BRANCH   9  11
ATOM     11  N   UNL     1       1.724  -0.018   3.651  0.00  0.00    -0.234 N 
ATOM     12  C   UNL     1       1.149   0.317   2.478  0.00  0.00    +0.232 C 
ATOM     13  O   UNL     1       1.620  -0.085   1.436  0.00  0.00    -0.274 OA
ATOM     14  H   UNL     1       1.347   0.304   4.485  0.00  0.00    +0.173 HD
BRANCH  12  15
ATOM     15  C   UNL     1      -0.078   1.191   2.463  0.00  0.00    +0.080 C 
ATOM     16  C   UNL     1      -1.397   0.549   2.028  0.00  0.00    +0.017 C 
ATOM     17  C   UNL     1      -0.683   1.536   1.101  0.00  0.00    -0.001 C 
ATOM     18  C   UNL     1       0.004   0.967  -0.142  0.00  0.00    +0.008 C 
ENDBRANCH  12  15
ENDBRANCH   9  11
ENDBRANCH   4   7
BRANCH   1  19
ATOM     19  N   UNL     1       8.031  -4.434   4.894  0.00  0.00    -0.216 N 
ATOM     20  H   UNL     1       8.791  -4.194   5.447  0.00  0.00    +0.174 HD
BRANCH  19  21
ATOM     21  S   UNL     1       8.084  -5.804   3.965  0.00  0.00    +0.072 S 
ATOM     22  O   UNL     1       7.742  -5.411   2.643  0.00  0.00    -0.150 OA
ATOM     23  O   UNL     1       9.308  -6.457   4.274  0.00  0.00    -0.150 OA
BRANCH  21  27
ATOM     24  C   UNL     1       4.765  -8.526   5.406  0.00  0.00    +0.121 A 
ATOM     25  C   UNL     1       4.550  -7.680   4.328  0.00  0.00    +0.047 A 
ATOM     26  C   UNL     1       5.564  -6.850   3.890  0.00  0.00    +0.032 A 
ATOM     27  C   UNL     1       6.793  -6.863   4.526  0.00  0.00    +0.109 A 
ATOM     28  C   UNL     1       7.010  -7.710   5.597  0.00  0.00    +0.032 A 
ATOM     29  C   UNL     1       5.998  -8.537   6.042  0.00  0.00    +0.047 A 
BRANCH  24  30
ATOM     30  O   UNL     1       3.768  -9.343   5.839  0.00  0.00    -0.492 OA
BRANCH  30  32
ATOM     31  C   UNL     1       2.827 -11.028   7.294  0.00  0.00    +0.048 C 
ATOM     32  C   UNL     1       4.060 -10.188   6.954  0.00  0.00    +0.225 C 
ENDBRANCH  30  32
ENDBRANCH  24  30
ENDBRANCH  21  27
ENDBRANCH  19  21
ENDBRANCH   1  19
TORSDOF 8
