REMARK  Name = ZINC37053886
REMARK  4 active torsions:
REMARK  status: ('A' for Active; 'I' for Inactive)
REMARK    1  A    between atoms: C_4  and  N_7
REMARK    2  A    between atoms: N_7  and  S_8
REMARK    3  A    between atoms: S_8  and  C_11
REMARK    4  A    between atoms: C_12  and  N_19
REMARK                            x       y       z     vdW  Elec       q    Type
REMARK                         _______ _______ _______ _____ _____    ______ ____
ROOT
ATOM      1  C   UNL     1       5.147  -2.991  -0.055  0.00  0.00    +0.149 A 
ATOM      2  C   UNL     1       5.811  -3.113  -1.269  0.00  0.00    +0.054 A 
ATOM      3  C   UNL     1       7.179  -3.351  -1.288  0.00  0.00    +0.044 A 
ATOM      4  C   UNL     1       7.876  -3.465  -0.099  0.00  0.00    +0.044 A 
ATOM      5  C   UNL     1       7.212  -3.343   1.108  0.00  0.00    +0.042 A 
ATOM      6  C   UNL     1       5.849  -3.101   1.130  0.00  0.00    +0.071 A 
ATOM      7 CL   UNL     1       5.021  -2.942   2.647  0.00  0.00    -0.081 Cl
ATOM      8 CL   UNL     1       9.586  -3.763  -0.122  0.00  0.00    -0.083 Cl
ENDROOT
BRANCH   1   9
ATOM      9  S   UNL     1       3.411  -2.689  -0.026  0.00  0.00    +0.097 S 
ATOM     10  O   UNL     1       2.964  -3.010   1.284  0.00  0.00    -0.148 OA
ATOM     11  O   UNL     1       2.872  -3.307  -1.187  0.00  0.00    -0.148 OA
BRANCH   9  12
ATOM     12  N   UNL     1       3.195  -1.058  -0.214  0.00  0.00    -0.057 NA
BRANCH  12  16
ATOM     13  C   UNL     1      -0.555   0.500  -0.262  0.00  0.00    +0.039 A 
ATOM     14  C   UNL     1       0.554   1.320  -0.401  0.00  0.00    +0.116 A 
ATOM     15  N   UNL     1       1.761   0.780  -0.382  0.00  0.00    -0.220 NA
ATOM     16  C   UNL     1       1.917  -0.527  -0.230  0.00  0.00    +0.257 A 
ATOM     17  N   UNL     1       0.877  -1.338  -0.095  0.00  0.00    -0.220 NA
ATOM     18  C   UNL     1      -0.357  -0.862  -0.105  0.00  0.00    +0.116 A 
ENDBRANCH  12  16
ENDBRANCH   9  12
ENDBRANCH   1   9
BRANCH   2  19
ATOM     19  N   UNL     1       5.104  -2.998  -2.468  0.00  0.00    -0.356 N 
ATOM     20  H   UNL     1       4.201  -2.644  -2.467  0.00  0.00    +0.142 HD
ATOM     21  H   UNL     1       5.517  -3.272  -3.302  0.00  0.00    +0.142 HD
ENDBRANCH   2  19
TORSDOF 4
