REMARK  Name = ZINC16958326
REMARK  5 active torsions:
REMARK  status: ('A' for Active; 'I' for Inactive)
REMARK    1  A    between atoms: C_6  and  C_7
REMARK    2  A    between atoms: N_13  and  N_14
REMARK    3  A    between atoms: C_17  and  C_20
REMARK    4  A    between atoms: C_23  and  O_27
REMARK    5  A    between atoms: C_24  and  O_26
REMARK                            x       y       z     vdW  Elec       q    Type
REMARK                         _______ _______ _______ _____ _____    ______ ____
ROOT
ATOM      1  C   UNL     1       3.748   1.515  -0.025  0.00  0.00    +0.020 C 
ATOM      2  C   UNL     1       2.497   1.175  -0.353  0.00  0.00    +0.015 C 
ATOM      3  C   UNL     1       1.303   2.062  -0.657  0.00  0.00    +0.186 C 
ATOM      4  N   UNL     1       0.104   1.319  -0.973  0.00  0.00    -0.257 NA
ATOM      5  C   UNL     1       0.115   0.022  -0.979  0.00  0.00    +0.171 C 
ATOM      6  S   UNL     1       1.778  -0.447  -0.550  0.00  0.00    -0.056 S 
ATOM      7  N   UNL     1      -0.940  -0.817  -1.258  0.00  0.00    -0.244 N 
ATOM      8  H   UNL     1      -0.814  -1.778  -1.232  0.00  0.00    +0.172 HD
ENDROOT
BRANCH   1  14
ATOM      9  C   UNL     1       5.981   0.744   0.756  0.00  0.00    +0.012 A 
ATOM     10  C   UNL     1       6.955  -0.229   0.849  0.00  0.00    +0.050 A 
ATOM     11  C   UNL     1       6.765  -1.466   0.254  0.00  0.00    +0.166 A 
ATOM     12  C   UNL     1       5.584  -1.736  -0.437  0.00  0.00    +0.167 A 
ATOM     13  C   UNL     1       4.601  -0.768  -0.529  0.00  0.00    +0.057 A 
ATOM     14  C   UNL     1       4.794   0.479   0.071  0.00  0.00    -0.021 A 
ATOM     15  O   UNL     1       5.645  -3.010  -0.923  0.00  0.00    -0.453 OA
ATOM     16  C   UNL     1       7.037  -3.374  -0.875  0.00  0.00    +0.466 C 
ATOM     17  O   UNL     1       7.563  -2.573   0.199  0.00  0.00    -0.453 OA
ENDBRANCH   1  14
BRANCH   7  18
ATOM     18  N   UNL     1      -2.194  -0.282  -1.581  0.00  0.00    -0.243 N 
ATOM     19  C   UNL     1      -3.255  -1.127  -1.862  0.00  0.00    +0.175 A 
ATOM     20  N   UNL     1      -4.501  -0.825  -2.178  0.00  0.00    -0.224 NA
ATOM     21  C   UNL     1      -5.399  -1.777  -2.424  0.00  0.00    +0.080 A 
ATOM     22  C   UNL     1      -5.024  -3.087  -2.335  0.00  0.00    +0.077 A 
ATOM     23  S   UNL     1      -3.303  -2.913  -1.886  0.00  0.00    -0.059 S 
ATOM     24  H   UNL     1      -2.319   0.679  -1.607  0.00  0.00    +0.172 HD
BRANCH  21  25
ATOM     25  C   UNL     1      -6.792  -1.419  -2.784  0.00  0.00    +0.005 A 
ATOM     26  C   UNL     1      -7.727  -2.420  -3.040  0.00  0.00    +0.014 A 
ATOM     27  C   UNL     1      -9.025  -2.086  -3.369  0.00  0.00    +0.050 A 
ATOM     28  C   UNL     1      -9.399  -0.754  -3.458  0.00  0.00    +0.158 A 
ATOM     29  C   UNL     1      -8.468   0.251  -3.209  0.00  0.00    +0.159 A 
ATOM     30  C   UNL     1      -7.167  -0.079  -2.873  0.00  0.00    +0.059 A 
BRANCH  29  31
ATOM     31  O   UNL     1      -8.838   1.557  -3.297  0.00  0.00    -0.503 OA
ATOM     32  H   UNL     1      -8.722   1.940  -4.177  0.00  0.00    +0.292 HD
ENDBRANCH  29  31
BRANCH  28  33
ATOM     33  O   UNL     1     -10.678  -0.429  -3.789  0.00  0.00    -0.503 OA
ATOM     34  H   UNL     1     -10.825  -0.329  -4.739  0.00  0.00    +0.292 HD
ENDBRANCH  28  33
ENDBRANCH  21  25
ENDBRANCH   7  18
TORSDOF 5
