REMARK  Name = ZINC39110305
REMARK  6 active torsions:
REMARK  status: ('A' for Active; 'I' for Inactive)
REMARK    1  A    between atoms: C_1  and  C_2
REMARK    2  A    between atoms: C_2  and  C_4
REMARK    3  A    between atoms: C_2  and  O_17
REMARK    4  A    between atoms: C_8  and  C_9
REMARK    5  A    between atoms: C_8  and  C_10
REMARK    6  A    between atoms: C_13  and  O_16
REMARK                            x       y       z     vdW  Elec       q    Type
REMARK                         _______ _______ _______ _____ _____    ______ ____
ROOT
ATOM      1  C   UNL     1       0.479  -0.578  -1.174  0.00  0.00    +0.099 C 
ATOM      2  N   UNL     1       0.873   0.281  -2.032  0.00  0.00    -0.090 NA
ATOM      3  O   UNL     1       1.665  -0.282  -3.059  0.00  0.00    -0.392 OA
ATOM      4  C   UNL     1       2.121  -1.570  -2.599  0.00  0.00    +0.280 C 
ATOM      5  C   UNL     1       1.031  -1.935  -1.565  0.00  0.00    +0.073 C 
ATOM      6  C   UNL     1      -0.056  -2.799  -2.209  0.00  0.00    +0.026 C 
ENDROOT
BRANCH   5   7
ATOM      7  C   UNL     1       1.633  -2.632  -0.373  0.00  0.00    -0.032 A 
ATOM      8  C   UNL     1       2.750  -2.101   0.246  0.00  0.00    +0.008 A 
ATOM      9  C   UNL     1       3.305  -2.739   1.339  0.00  0.00    +0.046 A 
ATOM     10  C   UNL     1       2.740  -3.912   1.816  0.00  0.00    +0.117 A 
ATOM     11  C   UNL     1       1.619  -4.443   1.194  0.00  0.00    +0.046 A 
ATOM     12  C   UNL     1       1.065  -3.799   0.105  0.00  0.00    +0.008 A 
BRANCH  10  13
ATOM     13  O   UNL     1       3.284  -4.541   2.891  0.00  0.00    -0.507 OA
ATOM     14  H   UNL     1       2.921  -4.254   3.740  0.00  0.00    +0.292 HD
ENDBRANCH  10  13
ENDBRANCH   5   7
BRANCH   1  16
ATOM     15  C   UNL     1      -0.835   1.171  -0.005  0.00  0.00    +0.044 C 
ATOM     16  C   UNL     1      -0.382  -0.290   0.029  0.00  0.00    +0.160 C 
BRANCH  16  17
ATOM     17  O   UNL     1       0.369  -0.528   1.221  0.00  0.00    -0.386 OA
ATOM     18  H   UNL     1      -0.124  -0.363   2.036  0.00  0.00    +0.210 HD
ENDBRANCH  16  17
ENDBRANCH   1  16
TORSDOF 4
