REMARK  Name = ZINC13981354
REMARK  7 active torsions:
REMARK  status: ('A' for Active; 'I' for Inactive)
REMARK    1  A    between atoms: C_6  and  O_29
REMARK    2  A    between atoms: C_7  and  C_11
REMARK    3  A    between atoms: N_13  and  N_14
REMARK    4  A    between atoms: N_14  and  C_15
REMARK    5  A    between atoms: C_15  and  N_17
REMARK    6  A    between atoms: C_18  and  C_20
REMARK    7  A    between atoms: C_21  and  C_22
REMARK                            x       y       z     vdW  Elec       q    Type
REMARK                         _______ _______ _______ _____ _____    ______ ____
ROOT
ATOM      1  N   UNL     1       4.754   1.198  -0.037  0.00  0.00    -0.245 N 
ATOM      2  H   UNL     1       5.588   1.694  -0.042  0.00  0.00    +0.172 HD
ENDROOT
BRANCH   1   5
ATOM      3  C   UNL     1       5.949  -0.861  -0.059  0.00  0.00    +0.264 C 
ATOM      4  O   UNL     1       6.994  -0.238  -0.066  0.00  0.00    -0.269 OA
ATOM      5  N   UNL     1       4.773  -0.203  -0.045  0.00  0.00    -0.231 N 
ATOM      6  H   UNL     1       3.940  -0.699  -0.039  0.00  0.00    +0.173 HD
BRANCH   3  13
ATOM      7  C   UNL     1       3.667  -6.550  -0.067  0.00  0.00    +0.001 A 
ATOM      8  C   UNL     1       4.891  -7.216  -0.082  0.00  0.00    +0.001 A 
ATOM      9  C   UNL     1       6.065  -6.527  -0.090  0.00  0.00    +0.008 A 
ATOM     10  C   UNL     1       6.048  -5.121  -0.083  0.00  0.00    -0.014 A 
ATOM     11  C   UNL     1       7.244  -4.384  -0.091  0.00  0.00    +0.054 A 
ATOM     12  C   UNL     1       7.204  -3.021  -0.083  0.00  0.00    +0.130 A 
ATOM     13  C   UNL     1       5.969  -2.336  -0.068  0.00  0.00    +0.080 A 
ATOM     14  C   UNL     1       4.777  -3.041  -0.054  0.00  0.00    +0.025 A 
ATOM     15  C   UNL     1       4.802  -4.443  -0.068  0.00  0.00    -0.017 A 
ATOM     16  C   UNL     1       3.610  -5.190  -0.060  0.00  0.00    +0.008 A 
BRANCH  12  17
ATOM     17  O   UNL     1       8.363  -2.315  -0.090  0.00  0.00    -0.506 OA
ATOM     18  H   UNL     1       8.707  -2.115   0.792  0.00  0.00    +0.292 HD
ENDBRANCH  12  17
ENDBRANCH   3  13
ENDBRANCH   1   5
BRANCH   1  19
ATOM     19  C   UNL     1       3.578   1.856  -0.022  0.00  0.00    +0.153 C 
ATOM     20  S   UNL     1       3.555   3.568  -0.013  0.00  0.00    -0.017 S 
BRANCH  19  21
ATOM     21  N   UNL     1       2.420   1.166  -0.015  0.00  0.00    -0.263 N 
ATOM     22  C   UNL     1       1.244   1.824   0.000  0.00  0.00    +0.242 C 
ATOM     23  O   UNL     1       1.228   3.041   0.007  0.00  0.00    -0.270 OA
ATOM     24  H   UNL     1       2.433   0.197  -0.020  0.00  0.00    +0.157 HD
BRANCH  22  25
ATOM     25  C   UNL     1      -0.013   1.076   0.008  0.00  0.00    +0.068 C 
ATOM     26  C   UNL     1      -1.190   1.734   0.017  0.00  0.00    +0.014 C 
BRANCH  26  27
ATOM     27  C   UNL     1      -2.454   0.982   0.019  0.00  0.00    -0.007 A 
ATOM     28  C   UNL     1      -2.440  -0.417   0.011  0.00  0.00    +0.009 A 
ATOM     29  C   UNL     1      -3.628  -1.115   0.014  0.00  0.00    +0.001 A 
ATOM     30  C   UNL     1      -4.835  -0.436   0.024  0.00  0.00    +0.001 A 
ATOM     31  C   UNL     1      -4.859   0.947   0.031  0.00  0.00    +0.020 A 
ATOM     32  C   UNL     1      -3.678   1.661   0.034  0.00  0.00    +0.048 A 
ATOM     33 CL   UNL     1      -3.710   3.397   0.051  0.00  0.00    -0.083 Cl
ENDBRANCH  26  27
ENDBRANCH  22  25
ENDBRANCH  19  21
ENDBRANCH   1  19
TORSDOF 7
