REMARK  Name = ZINC13958471
REMARK  6 active torsions:
REMARK  status: ('A' for Active; 'I' for Inactive)
REMARK    1  A    between atoms: C_1  and  C_2
REMARK    2  A    between atoms: C_5  and  N_12
REMARK    3  A    between atoms: C_8  and  C_10
REMARK    4  A    between atoms: C_8  and  C_11
REMARK    5  A    between atoms: N_15  and  C_16
REMARK    6  A    between atoms: N_21  and  C_23
REMARK                            x       y       z     vdW  Elec       q    Type
REMARK                         _______ _______ _______ _____ _____    ______ ____
ROOT
ATOM      1  N   UNL     1      -2.479  10.667   0.268  0.00  0.00    -0.297 N 
ATOM      2  C   UNL     1      -1.733   9.723  -0.340  0.00  0.00    +0.300 C 
ATOM      3  O   UNL     1      -1.161   9.977  -1.382  0.00  0.00    -0.253 OA
ATOM      4  N   UNL     1      -1.622   8.497   0.208  0.00  0.00    -0.295 N 
ATOM      5  H   UNL     1      -2.936  10.464   1.099  0.00  0.00    +0.151 HD
ATOM      6  H   UNL     1      -2.079   8.294   1.039  0.00  0.00    +0.151 HD
ENDROOT
BRANCH   1  10
ATOM      7  C   UNL     1      -0.355  15.119  -0.076  0.00  0.00    +0.007 C 
ATOM      8  C   UNL     1      -1.541  14.256  -0.513  0.00  0.00    -0.012 C 
ATOM      9  C   UNL     1      -1.415  12.864   0.109  0.00  0.00    +0.025 C 
ATOM     10  C   UNL     1      -2.600  12.000  -0.328  0.00  0.00    +0.075 C 
ATOM     11  C   UNL     1      -3.904  12.651   0.138  0.00  0.00    +0.028 C 
ATOM     12  C   UNL     1      -4.030  14.043  -0.484  0.00  0.00    -0.033 C 
ATOM     13  C   UNL     1      -2.845  14.906  -0.047  0.00  0.00    +0.009 C 
ATOM     14  C   UNL     1      -4.037  13.922  -2.009  0.00  0.00    +0.011 C 
ATOM     15  C   UNL     1      -5.334  14.694  -0.018  0.00  0.00    +0.011 C 
ENDBRANCH   1  10
BRANCH   4  16
ATOM     16  C   UNL     1      -0.812   7.470  -0.452  0.00  0.00    +0.101 C 
ATOM     17  C   UNL     1       0.637   7.476   0.088  0.00  0.00    +0.120 C 
ATOM     18  C   UNL     1       1.026   6.014   0.125  0.00  0.00    +0.222 C 
ATOM     19  O   UNL     1       2.162   5.600   0.225  0.00  0.00    -0.275 OA
ATOM     20  N   UNL     1      -0.069   5.242   0.029  0.00  0.00    -0.270 N 
ATOM     21  C   UNL     1      -1.288   6.054  -0.061  0.00  0.00    +0.136 C 
BRANCH  20  22
ATOM     22  C   UNL     1      -0.050   3.842   0.022  0.00  0.00    +0.036 A 
ATOM     23  C   UNL     1      -1.242   3.130   0.046  0.00  0.00    +0.023 A 
ATOM     24  C   UNL     1      -1.220   1.749   0.038  0.00  0.00    +0.002 A 
ATOM     25  C   UNL     1      -0.013   1.076   0.007  0.00  0.00    +0.000 A 
ATOM     26  C   UNL     1       1.176   1.782  -0.012  0.00  0.00    +0.002 A 
ATOM     27  C   UNL     1       1.161   3.163  -0.010  0.00  0.00    +0.023 A 
ENDBRANCH  20  22
ENDBRANCH   4  16
TORSDOF 3
