REMARK  Name = ZINC01052072
REMARK  3 active torsions:
REMARK  status: ('A' for Active; 'I' for Inactive)
REMARK    1  A    between atoms: C_1  and  C_2
REMARK    2  A    between atoms: C_1  and  N_5
REMARK    3  A    between atoms: N_5  and  C_6
REMARK                            x       y       z     vdW  Elec       q    Type
REMARK                         _______ _______ _______ _____ _____    ______ ____
ROOT
ATOM      1  C   UNL     1       1.584   3.334   0.005  0.00  0.00    +0.086 C 
ATOM      2  C   UNL     1       2.885   3.815   0.100  0.00  0.00    +0.118 C 
ATOM      3  C   UNL     1       4.044   2.911   0.082  0.00  0.00    +0.286 C 
ATOM      4  N   UNL     1       5.256   3.449   0.177  0.00  0.00    -0.184 NA
ATOM      5  C   UNL     1       5.430   4.757   0.286  0.00  0.00    +0.195 C 
ATOM      6  N   UNL     1       4.437   5.634   0.310  0.00  0.00    -0.150 NA
ATOM      7  C   UNL     1       3.167   5.253   0.217  0.00  0.00    +0.276 C 
ATOM      8  O   UNL     1       2.175   6.152   0.236  0.00  0.00    -0.268 OA
ATOM      9  S   UNL     1       7.078   5.367   0.407  0.00  0.00    -0.012 SA
ATOM     10  O   UNL     1       3.884   1.586  -0.028  0.00  0.00    -0.265 OA
ENDROOT
BRANCH   1  11
ATOM     11  N   UNL     1       1.350   2.012   0.066  0.00  0.00    -0.339 N 
ATOM     12  H   UNL     1       2.078   1.400   0.258  0.00  0.00    +0.146 HD
BRANCH  11  13
ATOM     13  C   UNL     1      -0.002   1.496  -0.158  0.00  0.00    +0.227 C 
BRANCH  13  14
ATOM     14  C   UNL     1       0.006  -0.006  -0.035  0.00  0.00    +0.373 C 
ATOM     15  O   UNL     1       1.046  -0.591   0.216  0.00  0.00    -0.245 OA
ATOM     16  O   UNL     1      -1.026  -0.636  -0.187  0.00  0.00    -0.245 OA
ENDBRANCH  13  14
ENDBRANCH  11  13
ENDBRANCH   1  11
TORSDOF 3
