REMARK  Name = ZINC65315518
REMARK  7 active torsions:
REMARK  status: ('A' for Active; 'I' for Inactive)
REMARK    1  A    between atoms: C_1  and  C_2
REMARK    2  A    between atoms: C_5  and  N_9
REMARK    3  A    between atoms: C_6  and  C_8
REMARK    4  A    between atoms: N_12  and  C_13
REMARK    5  A    between atoms: C_16  and  N_19
REMARK    6  A    between atoms: C_26  and  C_29
REMARK    7  A    between atoms: N_31  and  C_32
REMARK                            x       y       z     vdW  Elec       q    Type
REMARK                         _______ _______ _______ _____ _____    ______ ____
ROOT
ATOM      1  C   UNL     1       0.384  -6.780  -2.462  0.00  0.00    +0.035 A 
ATOM      2  C   UNL     1      -0.246  -6.204  -3.557  0.00  0.00    +0.025 A 
ATOM      3  C   UNL     1      -0.294  -6.878  -4.761  0.00  0.00    +0.025 A 
ATOM      4  C   UNL     1       0.289  -8.133  -4.877  0.00  0.00    +0.035 A 
ATOM      5  C   UNL     1       0.918  -8.710  -3.782  0.00  0.00    +0.025 A 
ATOM      6  C   UNL     1       0.971  -8.033  -2.580  0.00  0.00    +0.025 A 
ENDROOT
BRANCH   4   7
ATOM      7  N   UNL     1       0.241  -8.818  -6.098  0.00  0.00    -0.269 N 
ATOM      8  C   UNL     1       0.158 -10.163  -6.114  0.00  0.00    +0.306 C 
ATOM      9  O   UNL     1      -0.008 -10.774  -5.076  0.00  0.00    -0.252 OA
ATOM     10  N   UNL     1       0.258 -10.831  -7.281  0.00  0.00    -0.285 N 
ATOM     11  C   UNL     1       0.581 -10.119  -8.525  0.00  0.00    +0.109 C 
ATOM     12  C   UNL     1       1.790 -10.796  -9.180  0.00  0.00    +0.020 C 
ATOM     13  C   UNL     1       1.497 -12.286  -9.366  0.00  0.00    +0.016 C 
ATOM     14  C   UNL     1       1.261 -12.936  -8.000  0.00  0.00    +0.092 C 
ATOM     15  C   UNL     1       0.052 -12.285  -7.331  0.00  0.00    +0.122 C 
ATOM     16  H   UNL     1       0.268  -8.324  -6.933  0.00  0.00    +0.156 HD
BRANCH  14  17
ATOM     17  C   UNL     1       1.005 -14.410  -8.182  0.00  0.00    +0.218 C 
ATOM     18  O   UNL     1       1.011 -14.894  -9.294  0.00  0.00    -0.275 OA
ATOM     19  N   UNL     1       0.770 -15.190  -7.109  0.00  0.00    -0.312 N 
ATOM     20  H   UNL     1       0.766 -14.803  -6.219  0.00  0.00    +0.149 HD
BRANCH  19  21
ATOM     21  C   UNL     1       0.522 -16.623  -7.285  0.00  0.00    +0.073 C 
ATOM     22  C   UNL     1      -0.617 -17.247  -6.477  0.00  0.00    +0.024 C 
ATOM     23  C   UNL     1       0.837 -17.545  -6.106  0.00  0.00    +0.024 C 
ENDBRANCH  19  21
ENDBRANCH  14  17
ENDBRANCH   4   7
BRANCH   1  27
ATOM     24  N   UNL     1       1.507  -5.660   0.785  0.00  0.00    -0.269 N 
ATOM     25  C   UNL     1       1.510  -6.218  -0.442  0.00  0.00    +0.308 C 
ATOM     26  O   UNL     1       2.486  -6.833  -0.827  0.00  0.00    -0.252 OA
ATOM     27  N   UNL     1       0.432  -6.095  -1.241  0.00  0.00    -0.269 N 
ATOM     28  H   UNL     1       0.707  -5.222   1.116  0.00  0.00    +0.156 HD
ATOM     29  H   UNL     1      -0.311  -5.533  -0.971  0.00  0.00    +0.156 HD
BRANCH  24  34
ATOM     30  C   UNL     1       6.168  -5.874   4.011  0.00  0.00    +0.044 C 
ATOM     31  C   UNL     1       4.930  -5.818   3.154  0.00  0.00    -0.050 A 
ATOM     32  C   UNL     1       4.642  -6.856   2.287  0.00  0.00    +0.005 A 
ATOM     33  C   UNL     1       3.508  -6.807   1.501  0.00  0.00    +0.024 A 
ATOM     34  C   UNL     1       2.656  -5.713   1.581  0.00  0.00    +0.038 A 
ATOM     35  C   UNL     1       2.948  -4.672   2.453  0.00  0.00    -0.029 A 
ATOM     36  C   UNL     1       4.081  -4.730   3.241  0.00  0.00    +0.008 A 
ATOM     37  C   UNL     1       2.026  -3.483   2.542  0.00  0.00    +0.045 C 
ENDBRANCH  24  34
ENDBRANCH   1  27
TORSDOF 5
