REMARK  Name = ZINC04163845
REMARK  6 active torsions:
REMARK  status: ('A' for Active; 'I' for Inactive)
REMARK    1  A    between atoms: C_1  and  C_2
REMARK    2  A    between atoms: C_5  and  C_8
REMARK    3  A    between atoms: C_8  and  C_10
REMARK    4  A    between atoms: C_12  and  C_24
REMARK    5  A    between atoms: C_18  and  C_19
REMARK    6  A    between atoms: C_18  and  O_23
REMARK                            x       y       z     vdW  Elec       q    Type
REMARK                         _______ _______ _______ _____ _____    ______ ____
ROOT
ATOM      1  C   UNL     1      -0.296   1.746  -0.058  0.00  0.00    +0.144 C 
ATOM      2  C   UNL     1       0.256   2.224   1.290  0.00  0.00    +0.120 C 
ATOM      3  N   UNL     1      -0.389   1.470   2.367  0.00  0.00    -0.292 N 
ATOM      4  C   UNL     1      -1.633   0.986   2.232  0.00  0.00    +0.302 C 
ATOM      5  O   UNL     1      -2.126   0.376   3.162  0.00  0.00    -0.253 OA
ATOM      6  N   UNL     1      -2.354   1.147   1.113  0.00  0.00    -0.264 N 
ATOM      7  C   UNL     1      -1.822   1.883  -0.041  0.00  0.00    +0.243 C 
ATOM      8  H   UNL     1       0.093   1.318   3.195  0.00  0.00    +0.151 HD
ATOM      9  H   UNL     1      -3.246   0.770   1.064  0.00  0.00    +0.153 HD
ENDROOT
BRANCH   2  10
ATOM     10  C   UNL     1      -0.034   3.693   1.460  0.00  0.00    -0.026 A 
ATOM     11  C   UNL     1       0.799   4.632   0.882  0.00  0.00    +0.007 A 
ATOM     12  C   UNL     1       0.531   5.980   1.033  0.00  0.00    +0.020 A 
ATOM     13  C   UNL     1      -0.564   6.388   1.773  0.00  0.00    +0.041 A 
ATOM     14  C   UNL     1      -1.394   5.448   2.356  0.00  0.00    +0.020 A 
ATOM     15  C   UNL     1      -1.129   4.100   2.199  0.00  0.00    +0.007 A 
ATOM     16 CL   UNL     1      -0.898   8.081   1.968  0.00  0.00    -0.084 Cl
ENDBRANCH   2  10
BRANCH   7  17
ATOM     17  C   UNL     1      -2.401   1.306  -1.334  0.00  0.00    +0.436 C 
ATOM     18  F   UNL     1      -2.200  -0.078  -1.359  0.00  0.00    -0.166 F 
ATOM     19  F   UNL     1      -3.772   1.579  -1.393  0.00  0.00    -0.166 F 
ATOM     20  F   UNL     1      -1.762   1.890  -2.433  0.00  0.00    -0.166 F 
ENDBRANCH   7  17
BRANCH   1  21
ATOM     21  C   UNL     1       0.080   0.303  -0.275  0.00  0.00    +0.173 C 
ATOM     22  O   UNL     1      -0.581  -0.579   0.230  0.00  0.00    -0.292 OA
BRANCH  21  27
ATOM     23  C   UNL     1       4.651  -1.020  -3.502  0.00  0.00    +0.044 C 
ATOM     24  C   UNL     1       3.453  -0.673  -2.656  0.00  0.00    -0.050 A 
ATOM     25  C   UNL     1       2.715  -1.682  -2.061  0.00  0.00    +0.004 A 
ATOM     26  C   UNL     1       1.618  -1.373  -1.285  0.00  0.00    +0.011 A 
ATOM     27  C   UNL     1       1.251  -0.036  -1.101  0.00  0.00    +0.018 A 
ATOM     28  C   UNL     1       1.998   0.977  -1.710  0.00  0.00    +0.011 A 
ATOM     29  C   UNL     1       3.096   0.652  -2.478  0.00  0.00    +0.004 A 
ENDBRANCH  21  27
ENDBRANCH   1  21
BRANCH   7  30
ATOM     30  O   UNL     1      -2.177   3.263   0.069  0.00  0.00    -0.364 OA
ATOM     31  H   UNL     1      -3.130   3.424   0.086  0.00  0.00    +0.212 HD
ENDBRANCH   7  30
TORSDOF 5
