REMARK  Name = ZINC13571362
REMARK  6 active torsions:
REMARK  status: ('A' for Active; 'I' for Inactive)
REMARK    1  A    between atoms: C_1  and  C_2
REMARK    2  A    between atoms: C_10  and  C_12
REMARK    3  A    between atoms: C_15  and  N_18
REMARK    4  A    between atoms: C_19  and  C_21
REMARK    5  A    between atoms: C_25  and  C_28
REMARK    6  A    between atoms: C_31  and  O_34
REMARK                            x       y       z     vdW  Elec       q    Type
REMARK                         _______ _______ _______ _____ _____    ______ ____
ROOT
ATOM      1  C   UNL     1      -0.211   1.825  -0.253  0.00  0.00    +0.069 C 
ATOM      2  C   UNL     1      -0.137   0.332  -0.059  0.00  0.00    +0.087 A 
ATOM      3  C   UNL     1      -0.045  -0.621  -1.070  0.00  0.00    +0.049 A 
ATOM      4  C   UNL     1      -0.002  -1.856  -0.485  0.00  0.00    +0.226 A 
ATOM      5  O   UNL     1      -0.060  -1.688   0.835  0.00  0.00    -0.339 OA
ATOM      6  N   UNL     1      -0.142  -0.294   1.090  0.00  0.00    -0.081 NA
ATOM      7  N   UNL     1       0.082  -3.010  -1.243  0.00  0.00    -0.286 N 
ATOM      8  C   UNL     1      -0.183  -2.934  -2.588  0.00  0.00    +0.019 C 
ATOM      9  C   UNL     1      -0.231  -1.758  -3.249  0.00  0.00    +0.024 C 
ATOM     10  C   UNL     1       0.006  -0.432  -2.560  0.00  0.00    +0.091 C 
ATOM     11  C   UNL     1      -0.503  -1.716  -4.630  0.00  0.00    +0.162 C 
ATOM     12  O   UNL     1      -0.563  -0.639  -5.190  0.00  0.00    -0.292 OA
ATOM     13  C   UNL     1      -0.720  -2.971  -5.427  0.00  0.00    +0.088 C 
ATOM     14  C   UNL     1       0.046  -4.120  -4.762  0.00  0.00    +0.032 C 
ATOM     15  C   UNL     1      -0.429  -4.238  -3.313  0.00  0.00    +0.059 C 
ATOM     16  H   UNL     1       0.324  -3.855  -0.833  0.00  0.00    +0.155 HD
ENDROOT
BRANCH  10  17
ATOM     17  C   UNL     1       1.360   0.102  -2.952  0.00  0.00    -0.035 A 
ATOM     18  C   UNL     1       2.499  -0.632  -2.672  0.00  0.00    +0.006 A 
ATOM     19  C   UNL     1       3.741  -0.145  -3.029  0.00  0.00    +0.023 A 
ATOM     20  C   UNL     1       3.846   1.082  -3.671  0.00  0.00    +0.033 A 
ATOM     21  C   UNL     1       2.701   1.816  -3.950  0.00  0.00    +0.023 A 
ATOM     22  C   UNL     1       1.461   1.322  -3.595  0.00  0.00    +0.006 A 
BRANCH  20  23
ATOM     23  N   UNL     1       5.103   1.578  -4.033  0.00  0.00    -0.286 N 
ATOM     24  C   UNL     1       6.082   0.728  -4.402  0.00  0.00    +0.214 C 
ATOM     25  O   UNL     1       5.847  -0.457  -4.511  0.00  0.00    -0.276 OA
ATOM     26  C   UNL     1       7.469   1.250  -4.678  0.00  0.00    +0.109 C 
ATOM     27  H   UNL     1       5.270   2.533  -4.020  0.00  0.00    +0.155 HD
ENDBRANCH  20  23
ENDBRANCH  10  17
BRANCH  14  28
ATOM     28  C   UNL     1      -0.231  -5.407  -5.495  0.00  0.00    -0.043 A 
ATOM     29  C   UNL     1      -1.527  -5.880  -5.593  0.00  0.00    +0.007 A 
ATOM     30  C   UNL     1      -1.784  -7.060  -6.264  0.00  0.00    +0.045 A 
ATOM     31  C   UNL     1      -0.740  -7.770  -6.840  0.00  0.00    +0.117 A 
ATOM     32  C   UNL     1       0.559  -7.293  -6.741  0.00  0.00    +0.045 A 
ATOM     33  C   UNL     1       0.810  -6.111  -6.073  0.00  0.00    +0.007 A 
BRANCH  31  34
ATOM     34  O   UNL     1      -0.991  -8.931  -7.501  0.00  0.00    -0.507 OA
ATOM     35  H   UNL     1      -1.171  -8.816  -8.444  0.00  0.00    +0.292 HD
ENDBRANCH  31  34
ENDBRANCH  14  28
TORSDOF 4
