REMARK  Name = ZINC03371049
REMARK  7 active torsions:
REMARK  status: ('A' for Active; 'I' for Inactive)
REMARK    1  A    between atoms: C_3  and  C_8
REMARK    2  A    between atoms: C_8  and  O_10
REMARK    3  A    between atoms: O_10  and  C_11
REMARK    4  A    between atoms: C_11  and  C_12
REMARK    5  A    between atoms: N_14  and  C_15
REMARK    6  A    between atoms: C_18  and  S_21
REMARK    7  A    between atoms: S_21  and  N_24
REMARK                            x       y       z     vdW  Elec       q    Type
REMARK                         _______ _______ _______ _____ _____    ______ ____
ROOT
ATOM      1  C   UNL     1      -2.588   7.989   0.067  0.00  0.00    +0.255 C 
ATOM      2  O   UNL     1      -3.540   7.237   0.064  0.00  0.00    -0.272 OA
ATOM      3  N   UNL     1      -2.782   9.322   0.077  0.00  0.00    -0.283 N 
ATOM      4  H   UNL     1      -2.023   9.923   0.147  0.00  0.00    +0.155 HD
ENDROOT
BRANCH   3   5
ATOM      5  C   UNL     1      -4.079   9.841  -0.013  0.00  0.00    +0.034 A 
ATOM      6  C   UNL     1      -4.307  11.028  -0.696  0.00  0.00    +0.025 A 
ATOM      7  C   UNL     1      -5.589  11.534  -0.789  0.00  0.00    +0.030 A 
ATOM      8  C   UNL     1      -6.642  10.867  -0.192  0.00  0.00    +0.105 A 
ATOM      9  C   UNL     1      -6.417   9.688   0.494  0.00  0.00    +0.030 A 
ATOM     10  C   UNL     1      -5.139   9.173   0.585  0.00  0.00    +0.025 A 
BRANCH   8  11
ATOM     11  S   UNL     1      -8.275  11.520  -0.307  0.00  0.00    +0.056 S 
ATOM     12  O   UNL     1      -8.302  12.345  -1.464  0.00  0.00    -0.153 OA
ATOM     13  O   UNL     1      -9.163  10.425  -0.130  0.00  0.00    -0.153 OA
BRANCH  11  14
ATOM     14  N   UNL     1      -8.494  12.522   0.994  0.00  0.00    -0.204 NA
ATOM     15  H   UNL     1      -9.088  13.285   0.924  0.00  0.00    +0.144 HD
ATOM     16  H   UNL     1      -8.027  12.345   1.826  0.00  0.00    +0.144 HD
ENDBRANCH  11  14
ENDBRANCH   8  11
ENDBRANCH   3   5
BRANCH   1  17
ATOM     17  C   UNL     1      -1.188   7.431   0.059  0.00  0.00    +0.328 C 
BRANCH  17  18
ATOM     18  O   UNL     1      -1.244   5.981   0.049  0.00  0.00    -0.452 OA
BRANCH  18  19
ATOM     19  C   UNL     1      -0.069   5.323   0.041  0.00  0.00    +0.340 C 
ATOM     20  O   UNL     1       0.975   5.944   0.042  0.00  0.00    -0.245 OA
BRANCH  19  23
ATOM     21  C   UNL     1       1.179   1.781   0.011  0.00  0.00    +0.002 A 
ATOM     22  C   UNL     1       1.167   3.161   0.021  0.00  0.00    +0.015 A 
ATOM     23  C   UNL     1      -0.049   3.846   0.030  0.00  0.00    +0.060 A 
ATOM     24  C   UNL     1      -1.247   3.128   0.027  0.00  0.00    +0.029 A 
ATOM     25  C   UNL     1      -1.222   1.749   0.011  0.00  0.00    +0.014 A 
ATOM     26  C   UNL     1      -0.012   1.076   0.008  0.00  0.00    +0.014 A 
ATOM     27  I   UNL     1      -3.018   0.670  -0.002  0.00  0.00    -0.044 I 
ENDBRANCH  19  23
ENDBRANCH  18  19
ENDBRANCH  17  18
ENDBRANCH   1  17
TORSDOF 7
