REMARK  Name = ZINC57932786
REMARK  4 active torsions:
REMARK  status: ('A' for Active; 'I' for Inactive)
REMARK    1  A    between atoms: C_1  and  C_2
REMARK    2  A    between atoms: N_6  and  C_16
REMARK    3  A    between atoms: C_16  and  C_17
REMARK    4  A    between atoms: N_19  and  C_20
REMARK                            x       y       z     vdW  Elec       q    Type
REMARK                         _______ _______ _______ _____ _____    ______ ____
ROOT
ATOM      1  C   UNL     1      -0.019   1.526   0.010  0.00  0.00    +0.038 C 
ATOM      2  C   UNL     1       0.002  -0.004   0.002  0.00  0.00    +0.154 C 
ATOM      3  C   UNL     1       0.711  -0.492  -1.235  0.00  0.00    +0.240 C 
ATOM      4  O   UNL     1       0.079  -0.682  -2.253  0.00  0.00    -0.273 OA
ATOM      5  N   UNL     1       2.038  -0.719  -1.225  0.00  0.00    -0.259 N 
ATOM      6  C   UNL     1       2.783  -0.555  -0.049  0.00  0.00    +0.061 A 
ATOM      7  C   UNL     1       4.167  -0.499  -0.090  0.00  0.00    +0.066 A 
ATOM      8  C   UNL     1       4.885  -0.342   1.083  0.00  0.00    +0.160 A 
ATOM      9  C   UNL     1       4.226  -0.239   2.299  0.00  0.00    +0.160 A 
ATOM     10  C   UNL     1       2.842  -0.292   2.346  0.00  0.00    +0.066 A 
ATOM     11  C   UNL     1       2.121  -0.447   1.175  0.00  0.00    +0.052 A 
ATOM     12  N   UNL     1       0.717  -0.493   1.191  0.00  0.00    -0.332 N 
ATOM     13  F   UNL     1       4.934  -0.088   3.439  0.00  0.00    -0.202 F 
ATOM     14  F   UNL     1       6.234  -0.288   1.043  0.00  0.00    -0.202 F 
ATOM     15  H   UNL     1       0.234  -0.836   1.959  0.00  0.00    +0.147 HD
ENDROOT
BRANCH   5  16
ATOM     16  C   UNL     1       2.711  -1.143  -2.455  0.00  0.00    +0.209 C 
BRANCH  16  17
ATOM     17  C   UNL     1       3.177   0.071  -3.216  0.00  0.00    +0.231 C 
ATOM     18  O   UNL     1       2.968   1.181  -2.775  0.00  0.00    -0.274 OA
ATOM     19  N   UNL     1       3.826  -0.076  -4.388  0.00  0.00    -0.311 N 
ATOM     20  H   UNL     1       3.994  -0.964  -4.742  0.00  0.00    +0.149 HD
BRANCH  19  21
ATOM     21  C   UNL     1       4.279   1.104  -5.128  0.00  0.00    +0.073 C 
ATOM     22  C   UNL     1       3.158   1.605  -6.062  0.00  0.00    +0.022 C 
ATOM     23  C   UNL     1       3.905   2.079  -7.333  0.00  0.00    +0.002 C 
ATOM     24  C   UNL     1       5.031   1.025  -7.481  0.00  0.00    +0.002 C 
ATOM     25  C   UNL     1       5.470   0.736  -6.030  0.00  0.00    +0.022 C 
ENDBRANCH  19  21
ENDBRANCH  16  17
ENDBRANCH   5  16
TORSDOF 3
