REMARK  Name = ZINC00089763
REMARK  5 active torsions:
REMARK  status: ('A' for Active; 'I' for Inactive)
REMARK    1  A    between atoms: C_1  and  C_2
REMARK    2  A    between atoms: C_4  and  N_7
REMARK    3  A    between atoms: N_7  and  S_8
REMARK    4  A    between atoms: S_8  and  C_11
REMARK    5  A    between atoms: C_14  and  N_17
REMARK                            x       y       z     vdW  Elec       q    Type
REMARK                         _______ _______ _______ _____ _____    ______ ____
ROOT
ATOM      1  S   UNL     1      -0.738  -4.787  -0.022  0.00  0.00    +0.093 S 
ATOM      2  O   UNL     1      -0.075  -4.918  -1.272  0.00  0.00    -0.148 OA
ATOM      3  O   UNL     1      -0.062  -4.933   1.218  0.00  0.00    -0.148 OA
ENDROOT
BRANCH   1   4
ATOM      4  C   UNL     1      -2.050  -5.963  -0.022  0.00  0.00    +0.111 A 
ATOM      5  C   UNL     1      -2.562  -6.426   1.176  0.00  0.00    +0.030 A 
ATOM      6  C   UNL     1      -3.590  -7.347   1.180  0.00  0.00    +0.024 A 
ATOM      7  C   UNL     1      -4.111  -7.809  -0.022  0.00  0.00    +0.025 A 
ATOM      8  C   UNL     1      -3.595  -7.342  -1.224  0.00  0.00    +0.024 A 
ATOM      9  C   UNL     1      -2.571  -6.416  -1.221  0.00  0.00    +0.030 A 
BRANCH   7  10
ATOM     10  N   UNL     1      -5.151  -8.742  -0.022  0.00  0.00    -0.358 N 
ATOM     11  H   UNL     1      -5.510  -9.068   0.818  0.00  0.00    +0.142 HD
ATOM     12  H   UNL     1      -5.514  -9.064  -0.862  0.00  0.00    +0.142 HD
ENDBRANCH   7  10
ENDBRANCH   1   4
BRANCH   1  13
ATOM     13  N   UNL     1      -1.430  -3.282  -0.010  0.00  0.00    -0.074 NA
BRANCH  13  17
ATOM     14  C   UNL     1      -0.018   1.503   0.010  0.00  0.00    +0.089 C 
ATOM     15  C   UNL     1       0.002  -0.004   0.002  0.00  0.00    +0.136 A 
ATOM     16  C   UNL     1      -1.076  -0.807   0.003  0.00  0.00    +0.094 A 
ATOM     17  C   UNL     1      -0.625  -2.147  -0.008  0.00  0.00    +0.205 A 
ATOM     18  N   UNL     1       0.684  -2.130  -0.014  0.00  0.00    -0.060 NA
ATOM     19  O   UNL     1       1.100  -0.776  -0.013  0.00  0.00    -0.358 OA
ENDBRANCH  13  17
ENDBRANCH   1  13
TORSDOF 4
