REMARK  Name = ZINC62874573
REMARK  4 active torsions:
REMARK  status: ('A' for Active; 'I' for Inactive)
REMARK    1  A    between atoms: C_1  and  C_2
REMARK    2  A    between atoms: C_2  and  C_20
REMARK    3  A    between atoms: N_10  and  C_11
REMARK    4  A    between atoms: C_17  and  N_19
REMARK                            x       y       z     vdW  Elec       q    Type
REMARK                         _______ _______ _______ _____ _____    ______ ____
ROOT
ATOM      1  C   UNL     1      -0.026   1.522   0.018  0.00  0.00    +0.024 C 
ATOM      2  C   UNL     1      -0.001  -0.008   0.006  0.00  0.00    +0.085 C 
ATOM      3  C   UNL     1       0.718  -0.498  -1.253  0.00  0.00    +0.021 C 
ATOM      4  C   UNL     1       2.141   0.064  -1.281  0.00  0.00    +0.020 C 
ATOM      5  C   UNL     1       2.910  -0.444  -0.057  0.00  0.00    +0.109 C 
ATOM      6  N   UNL     1       2.151  -0.103   1.153  0.00  0.00    -0.285 N 
ATOM      7  C   UNL     1       0.744  -0.516   1.245  0.00  0.00    +0.127 C 
ATOM      8  C   UNL     1       2.734   0.576   2.161  0.00  0.00    +0.302 C 
ATOM      9  O   UNL     1       2.071   0.935   3.115  0.00  0.00    -0.253 OA
ATOM     10  N   UNL     1       4.051   0.857   2.111  0.00  0.00    -0.298 N 
ATOM     11  H   UNL     1       4.565   0.635   1.319  0.00  0.00    +0.150 HD
ENDROOT
BRANCH  10  12
ATOM     12  C   UNL     1       4.707   1.498   3.254  0.00  0.00    +0.060 C 
ATOM     13  C   UNL     1       5.123   0.430   4.268  0.00  0.00    +0.021 C 
ATOM     14  C   UNL     1       5.808   1.100   5.461  0.00  0.00    +0.002 C 
ATOM     15  C   UNL     1       7.048   1.855   4.979  0.00  0.00    -0.001 C 
ATOM     16  C   UNL     1       6.633   2.923   3.965  0.00  0.00    -0.014 C 
ATOM     17  C   UNL     1       5.947   2.254   2.772  0.00  0.00    -0.054 C 
BRANCH  17  18
ATOM     18  N   UNL     1       5.548   3.279   1.798  0.00  0.00    +0.381 N 
ATOM     19  H   UNL     1       4.908   3.926   2.234  0.00  0.00    -0.090 HD
ATOM     20  H   UNL     1       6.366   3.777   1.480  0.00  0.00    -0.090 HD
ATOM     21  H   UNL     1       5.096   2.838   1.011  0.00  0.00    -0.090 HD
ENDBRANCH  17  18
ENDBRANCH  10  12
BRANCH   2  22
ATOM     22  C   UNL     1      -1.413  -0.534   0.017  0.00  0.00    +0.363 C 
ATOM     23  O   UNL     1      -2.353   0.242   0.033  0.00  0.00    -0.246 OA
ATOM     24  O   UNL     1      -1.615  -1.737   0.011  0.00  0.00    -0.246 OA
ENDBRANCH   2  22
TORSDOF 3
