REMARK  Name = ZINC05581004
REMARK  6 active torsions:
REMARK  status: ('A' for Active; 'I' for Inactive)
REMARK    1  A    between atoms: C_3  and  S_21
REMARK    2  A    between atoms: C_6  and  N_7
REMARK    3  A    between atoms: N_7  and  C_8
REMARK    4  A    between atoms: C_8  and  N_10
REMARK    5  A    between atoms: C_11  and  C_13
REMARK    6  A    between atoms: S_21  and  N_24
REMARK                            x       y       z     vdW  Elec       q    Type
REMARK                         _______ _______ _______ _____ _____    ______ ____
ROOT
ATOM      1  N   UNL     1      -1.197   2.366   0.021  0.00  0.00    -0.297 N 
ATOM      2  H   UNL     1      -1.174   3.441  -0.210  0.00  0.00    +0.154 HD
ENDROOT
BRANCH   1   8
ATOM      3  C   UNL     1      -3.216   1.829  -1.191  0.00  0.00    +0.025 A 
ATOM      4  C   UNL     1      -4.398   1.121  -1.293  0.00  0.00    +0.030 A 
ATOM      5  C   UNL     1      -4.771   0.248  -0.288  0.00  0.00    +0.105 A 
ATOM      6  C   UNL     1      -3.961   0.076   0.819  0.00  0.00    +0.030 A 
ATOM      7  C   UNL     1      -2.775   0.776   0.924  0.00  0.00    +0.025 A 
ATOM      8  C   UNL     1      -2.397   1.655  -0.083  0.00  0.00    +0.033 A 
BRANCH   5   9
ATOM      9  S   UNL     1      -6.282  -0.649  -0.419  0.00  0.00    +0.056 S 
ATOM     10  O   UNL     1      -6.593  -0.721  -1.804  0.00  0.00    -0.153 OA
ATOM     11  O   UNL     1      -6.139  -1.807   0.391  0.00  0.00    -0.153 OA
BRANCH   9  12
ATOM     12  N   UNL     1      -7.463   0.276   0.283  0.00  0.00    -0.204 NA
ATOM     13  H   UNL     1      -8.427  -0.250   0.222  0.00  0.00    +0.144 HD
ATOM     14  H   UNL     1      -7.537   1.239  -0.245  0.00  0.00    +0.144 HD
ENDBRANCH   9  12
ENDBRANCH   5   9
ENDBRANCH   1   8
BRANCH   1  15
ATOM     15  C   UNL     1      -0.070   1.734   0.404  0.00  0.00    +0.141 C 
ATOM     16  S   UNL     1      -0.128   0.086   0.867  0.00  0.00    -0.018 S 
BRANCH  15  17
ATOM     17  N   UNL     1       1.103   2.396   0.416  0.00  0.00    -0.264 N 
ATOM     18  C   UNL     1       2.231   1.763   0.794  0.00  0.00    +0.251 C 
ATOM     19  O   UNL     1       2.190   0.594   1.123  0.00  0.00    -0.270 OA
ATOM     20  H   UNL     1       1.140   3.455   0.118  0.00  0.00    +0.157 HD
BRANCH  18  21
ATOM     21  C   UNL     1       3.516   2.489   0.808  0.00  0.00    +0.055 A 
ATOM     22  C   UNL     1       3.567   3.833   0.430  0.00  0.00    +0.016 A 
ATOM     23  C   UNL     1       4.770   4.505   0.445  0.00  0.00    +0.021 A 
ATOM     24  C   UNL     1       5.928   3.852   0.833  0.00  0.00    +0.042 A 
ATOM     25  C   UNL     1       5.887   2.520   1.209  0.00  0.00    +0.040 A 
ATOM     26  C   UNL     1       4.687   1.836   1.204  0.00  0.00    +0.054 A 
ATOM     27 CL   UNL     1       4.634   0.168   1.683  0.00  0.00    -0.083 Cl
ATOM     28 CL   UNL     1       7.439   4.707   0.849  0.00  0.00    -0.083 Cl
ENDBRANCH  18  21
ENDBRANCH  15  17
ENDBRANCH   1  15
TORSDOF 6
