REMARK  Name = ZINC44250122
REMARK  6 active torsions:
REMARK  status: ('A' for Active; 'I' for Inactive)
REMARK    1  A    between atoms: C_1  and  C_2
REMARK    2  A    between atoms: C_3  and  C_17
REMARK    3  A    between atoms: C_4  and  C_12
REMARK    4  A    between atoms: C_6  and  C_10
REMARK    5  A    between atoms: C_10  and  N_11
REMARK    6  A    between atoms: C_17  and  C_19
REMARK                            x       y       z     vdW  Elec       q    Type
REMARK                         _______ _______ _______ _____ _____    ______ ____
ROOT
ATOM      1  C   UNL     1       0.216   1.440   0.089  0.00  0.00    +0.086 C 
ATOM      2  C   UNL     1       0.137  -0.064   0.050  0.00  0.00    +0.111 C 
ATOM      3  C   UNL     1      -1.071  -0.643   0.068  0.00  0.00    +0.043 C 
ATOM      4  C   UNL     1      -1.263  -2.134   0.006  0.00  0.00    +0.102 C 
ATOM      5  C   UNL     1       0.039  -2.836   0.412  0.00  0.00    +0.072 C 
ATOM      6  C   UNL     1       1.183  -2.098  -0.257  0.00  0.00    +0.191 C 
ATOM      7  O   UNL     1       1.283  -0.767  -0.009  0.00  0.00    -0.446 OA
ATOM      8  N   UNL     1       2.021  -2.705  -1.028  0.00  0.00    -0.270 NA
ATOM      9  H   UNL     1       2.744  -2.210  -1.443  0.00  0.00    +0.190 HD
ENDROOT
BRANCH   4  10
ATOM     10  C   UNL     1      -2.366  -2.538   0.949  0.00  0.00    +0.113 A 
ATOM     11  C   UNL     1      -3.419  -3.316   0.640  0.00  0.00    +0.045 A 
ATOM     12  C   UNL     1      -4.198  -3.436   1.815  0.00  0.00    +0.041 A 
ATOM     13  C   UNL     1      -3.574  -2.724   2.770  0.00  0.00    +0.195 A 
ATOM     14  O   UNL     1      -2.462  -2.187   2.242  0.00  0.00    -0.467 OA
ENDBRANCH   4  10
BRANCH   3  15
ATOM     15  C   UNL     1      -2.210   0.179   0.151  0.00  0.00    +0.160 C 
ATOM     16  O   UNL     1      -2.416   0.832   1.154  0.00  0.00    -0.293 OA
ATOM     17  C   UNL     1      -3.173   0.250  -1.006  0.00  0.00    +0.091 C 
ENDBRANCH   3  15
BRANCH   5  18
ATOM     18  C   UNL     1       0.205  -2.784   1.932  0.00  0.00    -0.073 C 
BRANCH  18  19
ATOM     19  N   UNL     1       1.389  -3.561   2.322  0.00  0.00    +0.379 N 
ATOM     20  H   UNL     1       1.275  -4.519   2.028  0.00  0.00    -0.090 HD
ATOM     21  H   UNL     1       2.208  -3.170   1.881  0.00  0.00    -0.090 HD
ATOM     22  H   UNL     1       1.499  -3.526   3.324  0.00  0.00    -0.090 HD
ENDBRANCH  18  19
ENDBRANCH   5  18
TORSDOF 4
