REMARK  Name = ZINC49741290
REMARK  6 active torsions:
REMARK  status: ('A' for Active; 'I' for Inactive)
REMARK    1  A    between atoms: C_1  and  C_2
REMARK    2  A    between atoms: C_7  and  S_8
REMARK    3  A    between atoms: S_8  and  N_11
REMARK    4  A    between atoms: N_11  and  C_12
REMARK    5  A    between atoms: C_18  and  C_22
REMARK    6  A    between atoms: C_18  and  C_23
REMARK                            x       y       z     vdW  Elec       q    Type
REMARK                         _______ _______ _______ _____ _____    ______ ____
ROOT
ATOM      1  N   UNL     1       1.175   1.031   2.916  0.00  0.00    -0.216 N 
ATOM      2  H   UNL     1       1.881   0.855   3.557  0.00  0.00    +0.174 HD
ENDROOT
BRANCH   1   3
ATOM      3  C   UNL     1       1.214   2.191   2.134  0.00  0.00    +0.048 A 
ATOM      4  C   UNL     1       0.966   2.120   0.768  0.00  0.00    +0.026 A 
ATOM      5  C   UNL     1       1.004   3.261  -0.005  0.00  0.00    +0.025 A 
ATOM      6  C   UNL     1       1.291   4.494   0.578  0.00  0.00    +0.038 A 
ATOM      7  C   UNL     1       1.537   4.555   1.943  0.00  0.00    -0.010 A 
ATOM      8  C   UNL     1       1.495   3.419   2.720  0.00  0.00    +0.031 A 
ATOM      9  C   UNL     1       1.810   6.007   2.263  0.00  0.00    +0.068 C 
ATOM     10  C   UNL     1       1.684   6.708   0.927  0.00  0.00    +0.227 C 
ATOM     11  O   UNL     1       1.826   7.895   0.721  0.00  0.00    -0.275 OA
ATOM     12  N   UNL     1       1.385   5.770   0.013  0.00  0.00    -0.285 N 
ATOM     13  C   UNL     1       0.772   6.543   3.250  0.00  0.00    +0.025 C 
ATOM     14  C   UNL     1       3.223   6.175   2.825  0.00  0.00    +0.025 C 
ATOM     15  H   UNL     1       1.250   5.956  -0.929  0.00  0.00    +0.155 HD
ENDBRANCH   1   3
BRANCH   1  16
ATOM     16  S   UNL     1      -0.075  -0.041   2.745  0.00  0.00    +0.073 S 
ATOM     17  O   UNL     1      -1.271   0.727   2.743  0.00  0.00    -0.150 OA
ATOM     18  O   UNL     1       0.157  -1.087   3.679  0.00  0.00    -0.150 OA
BRANCH  16  25
ATOM     19  C   UNL     1       2.241  -1.770   1.856  0.00  0.00    +0.046 C 
ATOM     20  C   UNL     1       1.166  -1.534   0.827  0.00  0.00    -0.021 A 
ATOM     21  C   UNL     1       1.275  -2.101  -0.429  0.00  0.00    +0.043 A 
ATOM     22  C   UNL     1       0.287  -1.884  -1.374  0.00  0.00    +0.124 A 
ATOM     23  C   UNL     1      -0.810  -1.101  -1.060  0.00  0.00    +0.040 A 
ATOM     24  C   UNL     1      -0.918  -0.536   0.197  0.00  0.00    +0.032 A 
ATOM     25  C   UNL     1       0.067  -0.757   1.141  0.00  0.00    +0.112 A 
ATOM     26  F   UNL     1       0.394  -2.437  -2.602  0.00  0.00    -0.205 F 
ENDBRANCH  16  25
ENDBRANCH   1  16
TORSDOF 3
