REMARK  Name = ZINC40333811
REMARK  5 active torsions:
REMARK  status: ('A' for Active; 'I' for Inactive)
REMARK    1  A    between atoms: C_1  and  C_2
REMARK    2  A    between atoms: C_5  and  S_9
REMARK    3  A    between atoms: C_6  and  N_8
REMARK    4  A    between atoms: S_9  and  N_12
REMARK    5  A    between atoms: C_16  and  C_18
REMARK                            x       y       z     vdW  Elec       q    Type
REMARK                         _______ _______ _______ _____ _____    ______ ____
ROOT
ATOM      1  S   UNL     1       0.677  -4.409   0.023  0.00  0.00    +0.063 S 
ATOM      2  O   UNL     1      -0.370  -4.956   0.812  0.00  0.00    -0.153 OA
ATOM      3  O   UNL     1       0.900  -4.800  -1.325  0.00  0.00    -0.153 OA
ENDROOT
BRANCH   1   8
ATOM      4  C   UNL     1      -0.149   1.573  -0.037  0.00  0.00    +0.044 C 
ATOM      5  C   UNL     1       0.057   0.080  -0.018  0.00  0.00    -0.049 A 
ATOM      6  C   UNL     1       0.308  -0.598  -1.197  0.00  0.00    +0.005 A 
ATOM      7  C   UNL     1       0.497  -1.968  -1.184  0.00  0.00    +0.030 A 
ATOM      8  C   UNL     1       0.437  -2.663   0.008  0.00  0.00    +0.126 A 
ATOM      9  C   UNL     1       0.186  -1.986   1.194  0.00  0.00    +0.051 A 
ATOM     10  C   UNL     1       0.001  -0.609   1.178  0.00  0.00    +0.028 A 
BRANCH   9  11
ATOM     11  N   UNL     1       0.124  -2.686   2.401  0.00  0.00    -0.356 N 
ATOM     12  H   UNL     1       0.145  -3.656   2.400  0.00  0.00    +0.142 HD
ATOM     13  H   UNL     1       0.060  -2.203   3.239  0.00  0.00    +0.142 HD
ENDBRANCH   9  11
ENDBRANCH   1   8
BRANCH   1  14
ATOM     14  N   UNL     1       2.088  -4.702   0.841  0.00  0.00    -0.168 NA
ATOM     15  C   UNL     1       3.443  -4.640   0.264  0.00  0.00    +0.110 C 
ATOM     16  C   UNL     1       4.375  -4.368   1.472  0.00  0.00    +0.019 C 
ATOM     17  C   UNL     1       3.697  -5.210   2.584  0.00  0.00    +0.028 C 
ATOM     18  C   UNL     1       2.196  -5.060   2.262  0.00  0.00    +0.126 C 
BRANCH  18  19
ATOM     19  C   UNL     1       1.486  -6.364   2.517  0.00  0.00    +0.035 A 
ATOM     20  C   UNL     1       1.427  -7.411   1.669  0.00  0.00    +0.024 A 
ATOM     21  C   UNL     1       0.670  -8.420   2.297  0.00  0.00    +0.019 A 
ATOM     22  C   UNL     1       0.295  -7.952   3.504  0.00  0.00    +0.083 A 
ATOM     23  N   UNL     1       0.798  -6.693   3.648  0.00  0.00    -0.363 N 
ATOM     24  H   UNL     1       0.683  -6.123   4.425  0.00  0.00    +0.165 HD
ENDBRANCH  18  19
ENDBRANCH   1  14
TORSDOF 4
