REMARK  Name = ZINC39856191
REMARK  11 active torsions:
REMARK  status: ('A' for Active; 'I' for Inactive)
REMARK    1  A    between atoms: C_1  and  C_2
REMARK    2  A    between atoms: C_2  and  O_3
REMARK    3  A    between atoms: O_3  and  C_4
REMARK    4  A    between atoms: C_7  and  N_10
REMARK    5  A    between atoms: C_11  and  C_13
REMARK    6  A    between atoms: C_14  and  C_29
REMARK    7  A    between atoms: C_19  and  C_27
REMARK    8  A    between atoms: C_19  and  C_28
REMARK    9  A    between atoms: N_22  and  N_23
REMARK   10  A    between atoms: N_23  and  C_24
REMARK   11  A    between atoms: C_24  and  N_26
REMARK                            x       y       z     vdW  Elec       q    Type
REMARK                         _______ _______ _______ _____ _____    ______ ____
ROOT
ATOM      1  C   UNL     1       1.650  -7.889  -3.189  0.00  0.00    +0.193 A 
ATOM      2  C   UNL     1       2.164  -8.523  -4.286  0.00  0.00    +0.009 A 
ATOM      3  C   UNL     1       1.964  -9.893  -4.075  0.00  0.00    +0.042 A 
ATOM      4  C   UNL     1       1.336 -10.037  -2.861  0.00  0.00    +0.116 A 
ATOM      5  O   UNL     1       1.163  -8.824  -2.341  0.00  0.00    -0.454 OA
ATOM      6  C   UNL     1       0.950 -11.378  -2.292  0.00  0.00    +0.081 C 
ATOM      7  C   UNL     1       0.878 -12.409  -3.421  0.00  0.00    -0.023 C 
ATOM      8  C   UNL     1       2.177 -12.412  -4.234  0.00  0.00    +0.064 C 
ATOM      9  C   UNL     1       2.316 -11.059  -4.916  0.00  0.00    +0.070 C 
ATOM     10  N   UNL     1       2.713 -10.937  -6.145  0.00  0.00    -0.185 NA
ATOM     11  C   UNL     1       0.654 -13.799  -2.823  0.00  0.00    +0.011 C 
ATOM     12  C   UNL     1      -0.293 -12.064  -4.345  0.00  0.00    +0.011 C 
ATOM     13  C   UNL     1       2.814  -7.877  -5.482  0.00  0.00    +0.048 C 
ENDROOT
BRANCH   1  15
ATOM     14  N   UNL     1       1.102  -5.937  -1.834  0.00  0.00    -0.279 N 
ATOM     15  C   UNL     1       1.635  -6.439  -2.965  0.00  0.00    +0.284 C 
ATOM     16  O   UNL     1       2.105  -5.690  -3.802  0.00  0.00    -0.266 OA
ATOM     17  H   UNL     1       0.797  -6.536  -1.134  0.00  0.00    +0.155 HD
BRANCH  14  21
ATOM     18  C   UNL     1       0.761  -1.811  -1.344  0.00  0.00    +0.121 A 
ATOM     19  C   UNL     1       1.006  -2.622  -0.245  0.00  0.00    +0.047 A 
ATOM     20  C   UNL     1       1.119  -3.989  -0.407  0.00  0.00    +0.027 A 
ATOM     21  C   UNL     1       0.987  -4.551  -1.670  0.00  0.00    +0.034 A 
ATOM     22  C   UNL     1       0.742  -3.739  -2.769  0.00  0.00    +0.027 A 
ATOM     23  C   UNL     1       0.624  -2.373  -2.605  0.00  0.00    +0.047 A 
BRANCH  18  24
ATOM     24  O   UNL     1       0.650  -0.465  -1.184  0.00  0.00    -0.492 OA
BRANCH  24  26
ATOM     25  C   UNL     1       0.647   1.567   0.123  0.00  0.00    +0.048 C 
ATOM     26  C   UNL     1       0.803   0.045   0.142  0.00  0.00    +0.225 C 
ENDBRANCH  24  26
ENDBRANCH  18  24
ENDBRANCH  14  21
ENDBRANCH   1  15
BRANCH  10  27
ATOM     27  N   UNL     1       3.033 -12.077  -6.894  0.00  0.00    -0.218 N 
ATOM     28  H   UNL     1       2.957 -12.958  -6.494  0.00  0.00    +0.176 HD
BRANCH  27  29
ATOM     29  C   UNL     1       3.446 -11.950  -8.171  0.00  0.00    +0.147 C 
ATOM     30  S   UNL     1       3.836 -13.343  -9.087  0.00  0.00    -0.017 S 
BRANCH  29  31
ATOM     31  N   UNL     1       3.551 -10.727  -8.727  0.00  0.00    -0.339 N 
ATOM     32  H   UNL     1       3.330  -9.938  -8.208  0.00  0.00    +0.144 HD
ATOM     33  H   UNL     1       3.848 -10.636  -9.646  0.00  0.00    +0.144 HD
ENDBRANCH  29  31
ENDBRANCH  27  29
ENDBRANCH  10  27
TORSDOF 7
