REMARK  Name = ZINC59367533
REMARK  7 active torsions:
REMARK  status: ('A' for Active; 'I' for Inactive)
REMARK    1  A    between atoms: C_6  and  C_7
REMARK    2  A    between atoms: N_9  and  C_10
REMARK    3  A    between atoms: C_10  and  C_12
REMARK    4  A    between atoms: C_10  and  O_25
REMARK    5  A    between atoms: C_12  and  N_14
REMARK    6  A    between atoms: C_12  and  O_24
REMARK    7  A    between atoms: C_15  and  C_17
REMARK                            x       y       z     vdW  Elec       q    Type
REMARK                         _______ _______ _______ _____ _____    ______ ____
ROOT
ATOM      1  C   UNL     1      -2.501  -2.864   0.011  0.00  0.00    +0.250 C 
ENDROOT
BRANCH   1   4
ATOM      2  C   UNL     1      -1.266  -0.763   0.011  0.00  0.00    +0.246 C 
ATOM      3  O   UNL     1      -2.328  -0.172   0.024  0.00  0.00    -0.270 OA
ATOM      4  N   UNL     1      -1.244  -2.111   0.003  0.00  0.00    -0.283 N 
ATOM      5  H   UNL     1      -0.397  -2.583  -0.008  0.00  0.00    +0.152 HD
BRANCH   2  11
ATOM      6  C   UNL     1      -0.017   1.392   0.010  0.00  0.00    +0.014 A 
ATOM      7  C   UNL     1       1.170   2.095   0.002  0.00  0.00    +0.016 A 
ATOM      8  C   UNL     1       2.378   1.419  -0.013  0.00  0.00    +0.018 A 
ATOM      9  C   UNL     1       2.403   0.034  -0.021  0.00  0.00    +0.016 A 
ATOM     10  C   UNL     1       1.224  -0.680  -0.014  0.00  0.00    +0.014 A 
ATOM     11  C   UNL     1       0.002  -0.004   0.002  0.00  0.00    +0.037 A 
ATOM     12 BR   UNL     1       4.000   2.390  -0.023  0.00  0.00    -0.050 Br
ENDBRANCH   2  11
ENDBRANCH   1   4
BRANCH   1  13
ATOM     13  O   UNL     1      -2.836  -3.216   1.355  0.00  0.00    -0.370 OA
ATOM     14  H   UNL     1      -2.172  -3.765   1.795  0.00  0.00    +0.212 HD
ENDBRANCH   1  13
BRANCH   1  15
ATOM     15  C   UNL     1      -2.340  -4.135  -0.824  0.00  0.00    +0.250 C 
BRANCH  15  16
ATOM     16  N   UNL     1      -3.597  -4.888  -0.816  0.00  0.00    -0.283 N 
ATOM     17  C   UNL     1      -3.577  -6.232  -0.722  0.00  0.00    +0.246 C 
ATOM     18  O   UNL     1      -2.516  -6.820  -0.643  0.00  0.00    -0.270 OA
ATOM     19  H   UNL     1      -4.444  -4.418  -0.878  0.00  0.00    +0.152 HD
BRANCH  17  20
ATOM     20  C   UNL     1      -4.845  -6.991  -0.713  0.00  0.00    +0.037 A 
ATOM     21  C   UNL     1      -6.065  -6.319  -0.808  0.00  0.00    +0.014 A 
ATOM     22  C   UNL     1      -7.245  -7.033  -0.800  0.00  0.00    +0.016 A 
ATOM     23  C   UNL     1      -7.221  -8.414  -0.698  0.00  0.00    +0.018 A 
ATOM     24  C   UNL     1      -6.014  -9.086  -0.602  0.00  0.00    +0.016 A 
ATOM     25  C   UNL     1      -4.827  -8.384  -0.615  0.00  0.00    +0.014 A 
ATOM     26 BR   UNL     1      -8.843  -9.385  -0.687  0.00  0.00    -0.050 Br
ENDBRANCH  17  20
ENDBRANCH  15  16
BRANCH  15  27
ATOM     27  O   UNL     1      -2.005  -3.782  -2.168  0.00  0.00    -0.370 OA
ATOM     28  H   UNL     1      -2.669  -3.234  -2.608  0.00  0.00    +0.212 HD
ENDBRANCH  15  27
ENDBRANCH   1  15
TORSDOF 7
