REMARK  Name = ZINC49474072
REMARK  1 active torsions:
REMARK  status: ('A' for Active; 'I' for Inactive)
REMARK    1  A    between atoms: C_1  and  N_2
REMARK                            x       y       z     vdW  Elec       q    Type
REMARK                         _______ _______ _______ _____ _____    ______ ____
ROOT
ATOM      1  C   UNL     1      -0.018   1.465   0.010  0.00  0.00    -0.096 C 
ATOM      2  N   UNL     1       0.002  -0.004   0.002  0.00  0.00    +0.378 N 
ATOM      3  C   UNL     1       0.681  -0.476  -1.211  0.00  0.00    -0.076 C 
ATOM      4  C   UNL     1       0.632  -2.005  -1.265  0.00  0.00    +0.022 C 
ATOM      5  C   UNL     1       1.330  -2.576  -0.029  0.00  0.00    +0.098 C 
ATOM      6  C   UNL     1       0.665  -2.018   1.231  0.00  0.00    +0.022 C 
ATOM      7  C   UNL     1       0.712  -0.489   1.192  0.00  0.00    -0.076 C 
ATOM      8  N   UNL     1       2.749  -2.196  -0.046  0.00  0.00    -0.220 NA
ATOM      9  N   UNL     1       3.417  -2.775   0.996  0.00  0.00    -0.260 N 
ATOM     10  C   UNL     1       3.003  -3.951   1.503  0.00  0.00    +0.158 C 
ATOM     11  S   UNL     1       3.866  -4.657   2.802  0.00  0.00    -0.016 S 
ATOM     12  N   UNL     1       1.923  -4.581   1.006  0.00  0.00    -0.260 N 
ATOM     13  N   UNL     1       1.224  -4.041  -0.035  0.00  0.00    -0.220 NA
ATOM     14  H   UNL     1       3.178  -2.437  -0.927  0.00  0.00    +0.146 HD
ATOM     15  H   UNL     1       4.194  -2.335   1.374  0.00  0.00    +0.168 HD
ATOM     16  H   UNL     1       1.640  -5.425   1.391  0.00  0.00    +0.168 HD
ATOM     17  H   UNL     1       0.258  -4.334  -0.012  0.00  0.00    +0.146 HD
ATOM     18  H   UNL     1      -0.945  -0.352   0.012  0.00  0.00    -0.082 HD
ENDROOT
TORSDOF 0
