REMARK  Name = ZINC59384903
REMARK  8 active torsions:
REMARK  status: ('A' for Active; 'I' for Inactive)
REMARK    1  A    between atoms: C_1  and  C_2
REMARK    2  A    between atoms: C_3  and  C_17
REMARK    3  A    between atoms: C_4  and  C_10
REMARK    4  A    between atoms: N_19  and  N_20
REMARK    5  A    between atoms: C_21  and  C_22
REMARK    6  A    between atoms: C_25  and  N_28
REMARK    7  A    between atoms: N_28  and  C_29
REMARK    8  A    between atoms: N_28  and  C_30
REMARK                            x       y       z     vdW  Elec       q    Type
REMARK                         _______ _______ _______ _____ _____    ______ ____
ROOT
ATOM      1  C   UNL     1      -1.497  -1.474   2.128  0.00  0.00    +0.061 C 
ATOM      2  C   UNL     1      -0.579  -1.490   0.933  0.00  0.00    +0.017 C 
ATOM      3  C   UNL     1      -0.970  -0.891  -0.213  0.00  0.00    +0.057 C 
ATOM      4  C   UNL     1      -0.017  -0.931  -1.390  0.00  0.00    +0.141 C 
ATOM      5  N   UNL     1       1.266  -1.624  -1.187  0.00  0.00    -0.315 N 
ATOM      6  C   UNL     1       1.514  -2.175   0.018  0.00  0.00    +0.135 C 
ATOM      7  S   UNL     1       3.002  -2.984   0.269  0.00  0.00    -0.019 S 
ATOM      8  N   UNL     1       0.637  -2.105   1.027  0.00  0.00    -0.300 N 
ATOM      9  H   UNL     1       1.917  -1.683  -1.903  0.00  0.00    +0.149 HD
ATOM     10  H   UNL     1       0.876  -2.518   1.872  0.00  0.00    +0.154 HD
ENDROOT
BRANCH   4  11
ATOM     11  C   UNL     1      -0.727  -1.598  -2.540  0.00  0.00    -0.004 A 
ATOM     12  C   UNL     1      -0.622  -2.964  -2.719  0.00  0.00    +0.007 A 
ATOM     13  C   UNL     1      -1.274  -3.576  -3.773  0.00  0.00    +0.000 A 
ATOM     14  C   UNL     1      -2.030  -2.821  -4.651  0.00  0.00    +0.001 A 
ATOM     15  C   UNL     1      -2.136  -1.454  -4.473  0.00  0.00    +0.020 A 
ATOM     16  C   UNL     1      -1.489  -0.843  -3.414  0.00  0.00    +0.046 A 
ATOM     17 CL   UNL     1      -1.626   0.873  -3.186  0.00  0.00    -0.083 Cl
ENDBRANCH   4  11
BRANCH   3  18
ATOM     18  C   UNL     1      -2.228  -0.249  -0.310  0.00  0.00    +0.263 C 
ATOM     19  O   UNL     1      -2.303   0.963  -0.208  0.00  0.00    -0.269 OA
ATOM     20  N   UNL     1      -3.343  -0.977  -0.517  0.00  0.00    -0.203 N 
ATOM     21  H   UNL     1      -3.295  -1.946  -0.526  0.00  0.00    +0.178 HD
BRANCH  20  22
ATOM     22  N   UNL     1      -4.572  -0.336  -0.718  0.00  0.00    -0.187 NA
ATOM     23  C   UNL     1      -5.627  -1.032  -1.013  0.00  0.00    +0.138 C 
BRANCH  23  24
ATOM     24  C   UNL     1      -6.894  -0.350  -1.334  0.00  0.00    -0.005 A 
ATOM     25  C   UNL     1      -6.960   1.046  -1.326  0.00  0.00    +0.011 A 
ATOM     26  C   UNL     1      -8.146   1.679  -1.626  0.00  0.00    +0.024 A 
ATOM     27  C   UNL     1      -9.277   0.932  -1.937  0.00  0.00    +0.029 A 
ATOM     28  C   UNL     1      -9.215  -0.458  -1.945  0.00  0.00    +0.024 A 
ATOM     29  C   UNL     1      -8.031  -1.098  -1.651  0.00  0.00    +0.011 A 
BRANCH  27  30
ATOM     30  N   UNL     1     -10.476   1.577  -2.239  0.00  0.00    -0.336 N 
ATOM     31  C   UNL     1     -10.514   3.037  -2.351  0.00  0.00    +0.129 C 
ATOM     32  C   UNL     1     -11.697   0.794  -2.445  0.00  0.00    +0.129 C 
ENDBRANCH  27  30
ENDBRANCH  23  24
ENDBRANCH  20  22
ENDBRANCH   3  18
TORSDOF 5
