REMARK  Name = ZINC09764767
REMARK  13 active torsions:
REMARK  status: ('A' for Active; 'I' for Inactive)
REMARK    1  A    between atoms: C_1  and  C_2
REMARK    2  A    between atoms: C_2  and  C_3
REMARK    3  A    between atoms: N_9  and  S_10
REMARK    4  A    between atoms: S_10  and  C_13
REMARK    5  A    between atoms: C_16  and  C_19
REMARK    6  A    between atoms: C_19  and  N_21
REMARK    7  A    between atoms: N_23  and  C_34
REMARK    8  A    between atoms: C_25  and  O_31
REMARK    9  A    between atoms: O_31  and  C_32
REMARK   10  A    between atoms: C_32  and  C_33
REMARK   11  A    between atoms: C_34  and  C_35
REMARK   12  A    between atoms: C_35  and  O_36
REMARK   13  A    between atoms: O_36  and  C_37
REMARK                            x       y       z     vdW  Elec       q    Type
REMARK                         _______ _______ _______ _____ _____    ______ ____
ROOT
ATOM      1  C   UNL     1       1.143   1.172  -2.859  0.00  0.00    +0.269 C 
ATOM      2  O   UNL     1       2.260   1.322  -2.395  0.00  0.00    -0.268 OA
ENDROOT
BRANCH   1   3
ATOM      3  N   UNL     1       0.112   0.915  -2.050  0.00  0.00    -0.152 NA
ATOM      4  C   UNL     1       0.304   0.822  -0.738  0.00  0.00    +0.167 A 
ATOM      5  N   UNL     1      -0.614   0.569   0.233  0.00  0.00    -0.316 N 
ATOM      6  C   UNL     1      -0.223   0.514   1.560  0.00  0.00    +0.100 A 
ATOM      7  C   UNL     1      -1.017   0.262   2.695  0.00  0.00    +0.145 A 
ATOM      8  C   UNL     1      -0.456   0.238   3.954  0.00  0.00    +0.048 A 
ATOM      9  C   UNL     1       0.899   0.457   4.139  0.00  0.00    +0.005 A 
ATOM     10  C   UNL     1       1.701   0.702   3.039  0.00  0.00    +0.017 A 
ATOM     11  C   UNL     1       1.144   0.725   1.781  0.00  0.00    +0.042 A 
ATOM     12  S   UNL     1       1.785   0.994   0.147  0.00  0.00    -0.052 S 
BRANCH   7  13
ATOM     13  O   UNL     1      -2.351   0.045   2.548  0.00  0.00    -0.490 OA
BRANCH  13  14
ATOM     14  C   UNL     1      -3.103  -0.200   3.739  0.00  0.00    +0.226 C 
ATOM     15  C   UNL     1      -4.574  -0.419   3.377  0.00  0.00    +0.048 C 
ENDBRANCH  13  14
ENDBRANCH   7  13
BRANCH   5  16
ATOM     16  C   UNL     1      -2.019   0.359  -0.125  0.00  0.00    +0.152 C 
BRANCH  16  17
ATOM     17  C   UNL     1      -2.263  -1.129  -0.386  0.00  0.00    +0.181 C 
BRANCH  17  18
ATOM     18  O   UNL     1      -3.633  -1.333  -0.735  0.00  0.00    -0.381 OA
ATOM     19  C   UNL     1      -3.968  -2.697  -1.000  0.00  0.00    +0.194 C 
ENDBRANCH  17  18
ENDBRANCH  16  17
ENDBRANCH   5  16
ENDBRANCH   1   3
BRANCH   1  23
ATOM     20  C   UNL     1       0.530   1.469  -7.054  0.00  0.00    +0.106 A 
ATOM     21  C   UNL     1       1.799   1.640  -6.530  0.00  0.00    +0.029 A 
ATOM     22  C   UNL     1       2.004   1.545  -5.169  0.00  0.00    +0.015 A 
ATOM     23  C   UNL     1       0.930   1.276  -4.321  0.00  0.00    +0.039 A 
ATOM     24  C   UNL     1      -0.346   1.099  -4.857  0.00  0.00    +0.015 A 
ATOM     25  C   UNL     1      -0.540   1.202  -6.219  0.00  0.00    +0.029 A 
BRANCH  20  26
ATOM     26  S   UNL     1       0.276   1.592  -8.794  0.00  0.00    +0.061 S 
ATOM     27  O   UNL     1      -1.123   1.747  -8.990  0.00  0.00    -0.153 OA
ATOM     28  O   UNL     1       1.221   2.536  -9.277  0.00  0.00    -0.153 OA
BRANCH  26  34
ATOM     29  C   UNL     1      -0.262  -0.992  -9.439  0.00  0.00    +0.080 C 
ATOM     30  C   UNL     1       0.422  -2.208  -8.807  0.00  0.00    +0.021 C 
ATOM     31  C   UNL     1       1.727  -2.498  -9.551  0.00  0.00    +0.003 C 
ATOM     32  C   UNL     1       2.667  -1.297  -9.425  0.00  0.00    +0.017 C 
ATOM     33  C   UNL     1       2.006  -0.068 -10.069  0.00  0.00    +0.110 C 
ATOM     34  N   UNL     1       0.687   0.130  -9.453  0.00  0.00    -0.174 NA
BRANCH  29  36
ATOM     35  C   UNL     1      -2.410  -1.827  -8.474  0.00  0.00    +0.005 C 
ATOM     36  C   UNL     1      -1.496  -0.609  -8.619  0.00  0.00    +0.017 C 
ENDBRANCH  29  36
ENDBRANCH  26  34
ENDBRANCH  20  26
ENDBRANCH   1  23
TORSDOF 10
