REMARK  Name = ZINC12573894
REMARK  10 active torsions:
REMARK  status: ('A' for Active; 'I' for Inactive)
REMARK    1  A    between atoms: C_1  and  C_2
REMARK    2  A    between atoms: C_5  and  C_9
REMARK    3  A    between atoms: N_11  and  N_12
REMARK    4  A    between atoms: N_12  and  C_13
REMARK    5  A    between atoms: C_13  and  N_15
REMARK    6  A    between atoms: C_16  and  C_18
REMARK    7  A    between atoms: C_21  and  C_24
REMARK    8  A    between atoms: C_24  and  C_25
REMARK    9  A    between atoms: C_24  and  C_26
REMARK   10  A    between atoms: C_24  and  C_27
REMARK                            x       y       z     vdW  Elec       q    Type
REMARK                         _______ _______ _______ _____ _____    ______ ____
ROOT
ATOM      1  C   UNL     1       2.320   1.243  -0.013  0.00  0.00    +0.153 C 
ATOM      2  S   UNL     1       2.343  -0.469  -0.023  0.00  0.00    -0.017 S 
ENDROOT
BRANCH   1   3
ATOM      3  N   UNL     1       1.143   1.901   0.001  0.00  0.00    -0.263 N 
ATOM      4  C   UNL     1      -0.014   1.211   0.009  0.00  0.00    +0.250 C 
ATOM      5  O   UNL     1       0.002  -0.004   0.002  0.00  0.00    -0.270 OA
ATOM      6  H   UNL     1       1.130   2.871   0.007  0.00  0.00    +0.157 HD
BRANCH   4   7
ATOM      7  C   UNL     1      -1.304   1.932   0.019  0.00  0.00    +0.037 A 
ATOM      8  C   UNL     1      -1.327   3.328   0.032  0.00  0.00    +0.013 A 
ATOM      9  C   UNL     1      -2.534   3.995   0.036  0.00  0.00    +0.005 A 
ATOM     10  C   UNL     1      -3.721   3.284   0.037  0.00  0.00    -0.042 A 
ATOM     11  C   UNL     1      -3.706   1.901   0.030  0.00  0.00    +0.005 A 
ATOM     12  C   UNL     1      -2.505   1.221   0.021  0.00  0.00    +0.013 A 
BRANCH  10  13
ATOM     13  C   UNL     1      -5.036   4.020   0.047  0.00  0.00    -0.013 C 
ATOM     14  C   UNL     1      -5.828   3.633   1.298  0.00  0.00    +0.015 C 
ATOM     15  C   UNL     1      -4.777   5.528   0.054  0.00  0.00    +0.015 C 
ATOM     16  C   UNL     1      -5.839   3.646  -1.201  0.00  0.00    +0.015 C 
ENDBRANCH  10  13
ENDBRANCH   4   7
ENDBRANCH   1   3
BRANCH   1  17
ATOM     17  N   UNL     1       3.478   1.933  -0.021  0.00  0.00    -0.245 N 
ATOM     18  H   UNL     1       4.324   1.459  -0.031  0.00  0.00    +0.172 HD
BRANCH  17  21
ATOM     19  C   UNL     1       4.617   4.023  -0.020  0.00  0.00    +0.260 C 
ATOM     20  O   UNL     1       5.677   3.430  -0.034  0.00  0.00    -0.269 OA
ATOM     21  N   UNL     1       3.459   3.333  -0.013  0.00  0.00    -0.231 N 
ATOM     22  H   UNL     1       2.612   3.807  -0.002  0.00  0.00    +0.173 HD
BRANCH  19  27
ATOM     23  C   UNL     1       4.536   9.778   0.011  0.00  0.00    +0.045 C 
ATOM     24  C   UNL     1       4.558   8.271   0.003  0.00  0.00    -0.036 A 
ATOM     25  C   UNL     1       3.368   7.565   0.011  0.00  0.00    +0.005 A 
ATOM     26  C   UNL     1       3.380   6.186  -0.003  0.00  0.00    +0.013 A 
ATOM     27  C   UNL     1       4.596   5.501  -0.012  0.00  0.00    +0.039 A 
ATOM     28  C   UNL     1       5.793   6.218  -0.020  0.00  0.00    +0.028 A 
ATOM     29  C   UNL     1       5.768   7.599  -0.013  0.00  0.00    +0.021 A 
ATOM     30 BR   UNL     1       7.388   8.573  -0.023  0.00  0.00    -0.050 Br
ENDBRANCH  19  27
ENDBRANCH  17  21
ENDBRANCH   1  17
TORSDOF 6
