REMARK  Name = ZINC40782340
REMARK  6 active torsions:
REMARK  status: ('A' for Active; 'I' for Inactive)
REMARK    1  A    between atoms: C_3  and  C_6
REMARK    2  A    between atoms: C_6  and  C_7
REMARK    3  A    between atoms: C_7  and  N_8
REMARK    4  A    between atoms: C_10  and  N_23
REMARK    5  A    between atoms: C_11  and  N_15
REMARK    6  A    between atoms: N_15  and  C_16
REMARK                            x       y       z     vdW  Elec       q    Type
REMARK                         _______ _______ _______ _____ _____    ______ ____
ROOT
ATOM      1  N   UNL     1       5.771   2.117   1.439  0.00  0.00    -0.327 N 
ATOM      2  C   UNL     1       6.364   2.551   2.619  0.00  0.00    +0.145 A 
ATOM      3  C   UNL     1       7.683   3.010   2.622  0.00  0.00    +0.105 A 
ATOM      4  C   UNL     1       8.230   3.434   3.834  0.00  0.00    +0.149 A 
ATOM      5  N   UNL     1       7.479   3.385   4.933  0.00  0.00    -0.219 NA
ATOM      6  C   UNL     1       6.238   2.945   4.886  0.00  0.00    +0.225 A 
ATOM      7  N   UNL     1       5.682   2.541   3.761  0.00  0.00    -0.219 NA
ATOM      8  H   UNL     1       6.276   2.127   0.610  0.00  0.00    +0.148 HD
ENDROOT
BRANCH   3   9
ATOM      9  N   UNL     1       8.439   3.043   1.439  0.00  0.00    -0.353 N 
ATOM     10  H   UNL     1       8.046   2.745   0.604  0.00  0.00    +0.143 HD
ATOM     11  H   UNL     1       9.354   3.364   1.457  0.00  0.00    +0.143 HD
ENDBRANCH   3   9
BRANCH   4  12
ATOM     12  N   UNL     1       9.539   3.899   3.894  0.00  0.00    -0.298 N 
ATOM     13  H   UNL     1      10.052   4.010   3.078  0.00  0.00    +0.154 HD
BRANCH  12  14
ATOM     14  C   UNL     1      10.115   4.207   5.130  0.00  0.00    +0.032 A 
ATOM     15  C   UNL     1      10.999   5.274   5.239  0.00  0.00    +0.024 A 
ATOM     16  C   UNL     1      11.567   5.576   6.461  0.00  0.00    +0.017 A 
ATOM     17  C   UNL     1      11.257   4.818   7.576  0.00  0.00    +0.018 A 
ATOM     18  C   UNL     1      10.377   3.755   7.470  0.00  0.00    +0.017 A 
ATOM     19  C   UNL     1       9.802   3.452   6.252  0.00  0.00    +0.024 A 
ATOM     20 BR   UNL     1      12.037   5.235   9.247  0.00  0.00    -0.050 Br
ENDBRANCH  12  14
ENDBRANCH   4  12
BRANCH   1  21
ATOM     21  C   UNL     1       4.385   1.643   1.447  0.00  0.00    +0.108 C 
BRANCH  21  22
ATOM     22  C   UNL     1       3.980   1.228   0.031  0.00  0.00    +0.061 C 
BRANCH  22  25
ATOM     23  C   UNL     1       0.199   0.781  -0.097  0.00  0.00    +0.008 A 
ATOM     24  C   UNL     1       1.411   1.444  -0.148  0.00  0.00    +0.011 A 
ATOM     25  C   UNL     1       2.554   0.741   0.039  0.00  0.00    -0.009 A 
ATOM     26  S   UNL     1       1.932  -0.913   0.297  0.00  0.00    -0.102 S 
ATOM     27  C   UNL     1       0.190  -0.554   0.138  0.00  0.00    +0.045 A 
ENDBRANCH  22  25
ENDBRANCH  21  22
ENDBRANCH   1  21
TORSDOF 6
