REMARK  Name = ZINC22152156
REMARK  4 active torsions:
REMARK  status: ('A' for Active; 'I' for Inactive)
REMARK    1  A    between atoms: C_4  and  S_8
REMARK    2  A    between atoms: C_6  and  N_7
REMARK    3  A    between atoms: S_8  and  N_11
REMARK    4  A    between atoms: N_11  and  C_12
REMARK                            x       y       z     vdW  Elec       q    Type
REMARK                         _______ _______ _______ _____ _____    ______ ____
ROOT
ATOM      1  C   UNL     1      -1.081   1.534  -0.080  0.00  0.00    +0.024 A 
ATOM      2  C   UNL     1       0.157   0.931   0.020  0.00  0.00    +0.024 A 
ATOM      3  C   UNL     1       1.304   1.704   0.042  0.00  0.00    +0.068 A 
ATOM      4  C   UNL     1       1.214   3.083  -0.030  0.00  0.00    +0.130 A 
ATOM      5  C   UNL     1      -0.022   3.692  -0.124  0.00  0.00    +0.053 A 
ATOM      6  C   UNL     1      -1.175   2.918  -0.147  0.00  0.00    +0.027 A 
ATOM      7 CL   UNL     1       2.860   0.943   0.162  0.00  0.00    -0.082 Cl
ENDROOT
BRANCH   6   8
ATOM      8  N   UNL     1      -2.427   3.531  -0.243  0.00  0.00    -0.358 N 
ATOM      9  H   UNL     1      -2.500   4.628  -0.296  0.00  0.00    +0.142 HD
ATOM     10  H   UNL     1      -3.340   2.918  -0.265  0.00  0.00    +0.142 HD
ENDBRANCH   6   8
BRANCH   4  11
ATOM     11  S   UNL     1       2.678   4.064  -0.001  0.00  0.00    +0.095 S 
ATOM     12  O   UNL     1       3.560   3.505  -0.965  0.00  0.00    -0.148 OA
ATOM     13  O   UNL     1       2.259   5.421  -0.048  0.00  0.00    -0.148 OA
BRANCH  11  14
ATOM     14  N   UNL     1       3.389   3.839   1.478  0.00  0.00    -0.070 NA
BRANCH  14  15
ATOM     15  C   UNL     1       2.731   4.239   2.631  0.00  0.00    +0.201 A 
ATOM     16  N   UNL     1       1.515   4.733   2.763  0.00  0.00    -0.231 NA
ATOM     17  C   UNL     1       1.037   5.062   3.948  0.00  0.00    +0.120 A 
ATOM     18  C   UNL     1       1.828   4.891   5.034  0.00  0.00    +0.068 A 
ATOM     19  S   UNL     1       3.300   4.224   4.272  0.00  0.00    -0.058 S 
ENDBRANCH  14  15
ENDBRANCH  11  14
ENDBRANCH   4  11
TORSDOF 4
