REMARK  Name = ZINC44884290
REMARK  4 active torsions:
REMARK  status: ('A' for Active; 'I' for Inactive)
REMARK    1  A    between atoms: C_1  and  C_2
REMARK    2  A    between atoms: C_2  and  N_9
REMARK    3  A    between atoms: C_10  and  C_12
REMARK    4  A    between atoms: C_14  and  N_20
REMARK                            x       y       z     vdW  Elec       q    Type
REMARK                         _______ _______ _______ _____ _____    ______ ____
ROOT
ATOM      1  N   UNL     1       0.731  -0.456  -1.186  0.00  0.00    -0.304 N 
ATOM      2  C   UNL     1       0.300  -0.105  -2.414  0.00  0.00    +0.245 C 
ATOM      3  O   UNL     1      -0.693   0.586  -2.536  0.00  0.00    -0.270 OA
ATOM      4  H   UNL     1       1.523  -1.007  -1.089  0.00  0.00    +0.150 HD
ENDROOT
BRANCH   1   6
ATOM      5  C   UNL     1      -0.019   1.526   0.010  0.00  0.00    +0.033 C 
ATOM      6  C   UNL     1       0.002  -0.004   0.002  0.00  0.00    +0.053 C 
ATOM      7  C   UNL     1      -1.436  -0.513  -0.087  0.00  0.00    +0.049 C 
ATOM      8  C   UNL     1      -1.556  -1.909   0.586  0.00  0.00    +0.168 C 
ATOM      9  S   UNL     1      -0.454  -1.644   2.043  0.00  0.00    -0.029 S 
ATOM     10  O   UNL     1      -1.172  -0.949   3.053  0.00  0.00    -0.174 OA
ATOM     11  O   UNL     1       0.202  -2.864   2.361  0.00  0.00    -0.174 OA
ATOM     12  C   UNL     1       0.751  -0.495   1.257  0.00  0.00    +0.191 C 
ENDBRANCH   1   6
BRANCH   2  13
ATOM     13  C   UNL     1       1.035  -0.561  -3.613  0.00  0.00    +0.040 A 
ATOM     14  C   UNL     1       0.595  -0.195  -4.885  0.00  0.00    +0.037 A 
ATOM     15  C   UNL     1       1.288  -0.625  -6.005  0.00  0.00    +0.045 A 
ATOM     16  C   UNL     1       2.420  -1.421  -5.859  0.00  0.00    +0.080 A 
ATOM     17  C   UNL     1       2.857  -1.784  -4.597  0.00  0.00    +0.062 A 
ATOM     18  C   UNL     1       2.175  -1.354  -3.475  0.00  0.00    +0.034 A 
ATOM     19 CL   UNL     1       4.270  -2.778  -4.423  0.00  0.00    -0.082 Cl
ATOM     20 CL   UNL     1       3.287  -1.959  -7.263  0.00  0.00    -0.080 Cl
BRANCH  15  21
ATOM     21  N   UNL     1       0.850  -0.260  -7.281  0.00  0.00    -0.357 N 
ATOM     22  H   UNL     1       0.061   0.294  -7.383  0.00  0.00    +0.142 HD
ATOM     23  H   UNL     1       1.336  -0.562  -8.065  0.00  0.00    +0.142 HD
ENDBRANCH  15  21
ENDBRANCH   2  13
TORSDOF 3
