REMARK  Name = ZINC27255163
REMARK  6 active torsions:
REMARK  status: ('A' for Active; 'I' for Inactive)
REMARK    1  A    between atoms: C_1  and  C_2
REMARK    2  A    between atoms: C_3  and  C_25
REMARK    3  A    between atoms: C_7  and  N_8
REMARK    4  A    between atoms: C_9  and  C_11
REMARK    5  A    between atoms: C_12  and  C_13
REMARK    6  A    between atoms: C_16  and  C_18
REMARK                            x       y       z     vdW  Elec       q    Type
REMARK                         _______ _______ _______ _____ _____    ______ ____
ROOT
ATOM      1  N   UNL     1      -5.891   1.736   0.664  0.00  0.00    -0.282 N 
ATOM      2  C   UNL     1      -7.078   1.156   0.930  0.00  0.00    +0.241 C 
ATOM      3  O   UNL     1      -7.163  -0.058   0.989  0.00  0.00    -0.270 OA
ATOM      4  H   UNL     1      -5.795   2.832   0.694  0.00  0.00    +0.155 HD
ENDROOT
BRANCH   1  11
ATOM      5  C   UNL     1      -3.327   2.628   1.508  0.00  0.00    +0.046 C 
ATOM      6  C   UNL     1      -3.513   1.344   0.742  0.00  0.00    -0.017 A 
ATOM      7  C   UNL     1      -2.409   0.554   0.420  0.00  0.00    +0.041 A 
ATOM      8  C   UNL     1      -2.590  -0.636  -0.285  0.00  0.00    +0.013 A 
ATOM      9  C   UNL     1      -3.857  -1.027  -0.667  0.00  0.00    +0.003 A 
ATOM     10  C   UNL     1      -4.951  -0.242  -0.353  0.00  0.00    +0.023 A 
ATOM     11  C   UNL     1      -4.781   0.946   0.349  0.00  0.00    +0.037 A 
BRANCH   7  12
ATOM     12  C   UNL     1      -1.052   0.975   0.830  0.00  0.00    +0.242 C 
ATOM     13  O   UNL     1      -0.881   2.065   1.340  0.00  0.00    -0.270 OA
ATOM     14  N   UNL     1      -0.004   0.150   0.637  0.00  0.00    -0.325 N 
ATOM     15  H   UNL     1       1.006   0.463   0.942  0.00  0.00    +0.145 HD
ATOM     16  H   UNL     1      -0.158  -0.837   0.176  0.00  0.00    +0.145 HD
ENDBRANCH   7  12
ENDBRANCH   1  11
BRANCH   2  17
ATOM     17  C   UNL     1      -8.224   1.956   1.141  0.00  0.00    +0.068 C 
ATOM     18  C   UNL     1      -9.420   1.372   1.410  0.00  0.00    +0.020 C 
BRANCH  18  19
ATOM     19  C   UNL     1     -10.567   2.172   1.621  0.00  0.00    +0.013 A 
ATOM     20  C   UNL     1     -11.870   1.775   1.905  0.00  0.00    +0.016 A 
ATOM     21  C   UNL     1     -12.825   2.737   2.071  0.00  0.00    +0.017 A 
ATOM     22  C   UNL     1     -12.459   4.069   1.950  0.00  0.00    +0.020 A 
ATOM     23  S   UNL     1     -10.713   3.951   1.599  0.00  0.00    -0.089 S 
BRANCH  22  24
ATOM     24  C   UNL     1     -13.298   5.277   2.085  0.00  0.00    -0.010 A 
ATOM     25  C   UNL     1     -14.661   5.156   2.367  0.00  0.00    +0.009 A 
ATOM     26  C   UNL     1     -15.438   6.288   2.495  0.00  0.00    +0.002 A 
ATOM     27  C   UNL     1     -14.874   7.541   2.336  0.00  0.00    +0.015 A 
ATOM     28  C   UNL     1     -13.525   7.668   2.051  0.00  0.00    +0.018 A 
ATOM     29  C   UNL     1     -12.734   6.544   1.925  0.00  0.00    +0.024 A 
ATOM     30 BR   UNL     1     -12.764   9.386   1.835  0.00  0.00    -0.050 Br
ENDBRANCH  22  24
ENDBRANCH  18  19
ENDBRANCH   2  17
TORSDOF 5
