REMARK  Name = ZINC60602898
REMARK  5 active torsions:
REMARK  status: ('A' for Active; 'I' for Inactive)
REMARK    1  A    between atoms: C_4  and  C_7
REMARK    2  A    between atoms: C_7  and  C_8
REMARK    3  A    between atoms: C_7  and  N_25
REMARK    4  A    between atoms: C_8  and  N_9
REMARK    5  A    between atoms: C_10  and  C_12
REMARK                            x       y       z     vdW  Elec       q    Type
REMARK                         _______ _______ _______ _____ _____    ______ ____
ROOT
ATOM      1  N   UNL     1       4.190   0.014   2.241  0.00  0.00    -0.313 N 
ATOM      2  C   UNL     1       4.465  -0.155   3.550  0.00  0.00    +0.244 C 
ATOM      3  O   UNL     1       4.438  -1.267   4.038  0.00  0.00    -0.270 OA
ATOM      4  H   UNL     1       4.211   0.902   1.851  0.00  0.00    +0.149 HD
ENDROOT
BRANCH   2   5
ATOM      5  C   UNL     1       4.801   1.016   4.393  0.00  0.00    +0.039 A 
ATOM      6  C   UNL     1       4.824   2.299   3.824  0.00  0.00    +0.014 A 
ATOM      7  C   UNL     1       5.130   3.391   4.578  0.00  0.00    +0.016 A 
ATOM      8  C   UNL     1       5.426   3.239   5.940  0.00  0.00    +0.065 A 
ATOM      9  C   UNL     1       5.405   1.947   6.529  0.00  0.00    +0.080 A 
ATOM     10  C   UNL     1       5.083   0.836   5.737  0.00  0.00    +0.041 A 
ATOM     11  N   UNL     1       5.690   1.819   7.833  0.00  0.00    -0.223 NA
ATOM     12  C   UNL     1       5.987   2.879   8.568  0.00  0.00    +0.180 A 
ATOM     13  N   UNL     1       6.019   4.122   8.059  0.00  0.00    -0.301 N 
ATOM     14  H   UNL     1       6.242   4.870   8.635  0.00  0.00    +0.171 HD
ATOM     15  C   UNL     1       5.746   4.345   6.755  0.00  0.00    +0.260 A 
ATOM     16  O   UNL     1       5.779   5.589   6.247  0.00  0.00    -0.267 OA
ATOM     17  S   UNL     1       6.342   2.659  10.228  0.00  0.00    -0.011 S 
ENDBRANCH   2   5
BRANCH   1  18
ATOM     18  C   UNL     1       3.858  -1.144   1.407  0.00  0.00    +0.094 C 
BRANCH  18  19
ATOM     19  C   UNL     1       3.463  -0.668   0.008  0.00  0.00    -0.020 C 
BRANCH  19  23
ATOM     20  C   UNL     1      -0.150   1.598   0.237  0.00  0.00    +0.000 A 
ATOM     21  C   UNL     1       1.068   2.246   0.153  0.00  0.00    +0.000 A 
ATOM     22  C   UNL     1       2.237   1.512   0.079  0.00  0.00    +0.002 A 
ATOM     23  C   UNL     1       2.188   0.131   0.090  0.00  0.00    -0.059 A 
ATOM     24  C   UNL     1       0.971  -0.517   0.175  0.00  0.00    +0.002 A 
ATOM     25  C   UNL     1      -0.199   0.216   0.247  0.00  0.00    +0.000 A 
ENDBRANCH  19  23
BRANCH  19  26
ATOM     26  N   UNL     1       3.256  -1.832  -0.865  0.00  0.00    +0.385 N 
ATOM     27  C   UNL     1       2.886  -1.387  -2.232  0.00  0.00    -0.078 C 
ATOM     28  C   UNL     1       3.255  -2.607  -3.114  0.00  0.00    -0.020 C 
ATOM     29  C   UNL     1       4.553  -3.129  -2.456  0.00  0.00    -0.020 C 
ATOM     30  C   UNL     1       4.519  -2.588  -1.014  0.00  0.00    -0.078 C 
ATOM     31  H   UNL     1       2.537  -2.429  -0.485  0.00  0.00    -0.081 HD
ENDBRANCH  19  26
ENDBRANCH  18  19
ENDBRANCH   1  18
TORSDOF 5
