REMARK  Name = ZINC39733389
REMARK  8 active torsions:
REMARK  status: ('A' for Active; 'I' for Inactive)
REMARK    1  A    between atoms: C_1  and  C_2
REMARK    2  A    between atoms: C_8  and  C_10
REMARK    3  A    between atoms: C_10  and  N_11
REMARK    4  A    between atoms: N_14  and  C_15
REMARK    5  A    between atoms: N_14  and  C_16
REMARK    6  A    between atoms: C_16  and  C_17
REMARK    7  A    between atoms: C_18  and  C_28
REMARK    8  A    between atoms: N_20  and  C_22
REMARK                            x       y       z     vdW  Elec       q    Type
REMARK                         _______ _______ _______ _____ _____    ______ ____
ROOT
ATOM      1  C   UNL     1      -3.543  -2.051   5.925  0.00  0.00    +0.143 C 
ENDROOT
BRANCH   1   5
ATOM      2  N   UNL     1      -1.484  -1.373   2.956  0.00  0.00    -0.298 N 
ATOM      3  C   UNL     1      -2.535  -1.422   3.798  0.00  0.00    +0.302 C 
ATOM      4  O   UNL     1      -3.604  -0.949   3.465  0.00  0.00    -0.253 OA
ATOM      5  N   UNL     1      -2.401  -1.997   5.010  0.00  0.00    -0.285 N 
ATOM      6  C   UNL     1      -1.113  -2.568   5.411  0.00  0.00    +0.134 C 
ATOM      7  H   UNL     1      -0.631  -1.751   3.222  0.00  0.00    +0.150 HD
BRANCH   2   8
ATOM      8  C   UNL     1      -1.630  -0.748   1.639  0.00  0.00    +0.122 C 
BRANCH   8  16
ATOM      9  C   UNL     1      -0.400   1.430  -0.380  0.00  0.00    +0.040 C 
ATOM     10  C   UNL     1      -0.425  -0.077  -0.405  0.00  0.00    -0.058 C 
ATOM     11  C   UNL     1      -0.553  -0.695  -1.568  0.00  0.00    +0.022 C 
ATOM     12  C   UNL     1      -0.571  -2.170  -1.615  0.00  0.00    +0.026 C 
ATOM     13  N   UNL     1      -0.102  -2.883  -0.504  0.00  0.00    -0.285 N 
ATOM     14  C   UNL     1       0.053  -2.264   0.677  0.00  0.00    +0.226 C 
ATOM     15  O   UNL     1       0.500  -2.896   1.610  0.00  0.00    -0.275 OA
ATOM     16  C   UNL     1      -0.299  -0.825   0.888  0.00  0.00    +0.118 C 
ATOM     17  C   UNL     1      -1.025  -2.812  -2.695  0.00  0.00    +0.033 C 
ATOM     18  H   UNL     1       0.110  -3.825  -0.588  0.00  0.00    +0.155 HD
ENDBRANCH   8  16
ENDBRANCH   2   8
ENDBRANCH   1   5
BRANCH   1  19
ATOM     19  C   UNL     1      -4.318  -3.321   5.688  0.00  0.00    -0.011 C 
ATOM     20  C   UNL     1      -4.196  -4.457   6.369  0.00  0.00    +0.054 C 
ATOM     21  N   UNL     1      -5.061  -5.433   5.891  0.00  0.00    -0.263 N 
ATOM     22  N   UNL     1      -5.816  -4.932   4.822  0.00  0.00    -0.249 N 
ATOM     23  C   UNL     1      -5.382  -3.538   4.635  0.00  0.00    +0.162 C 
ATOM     24  H   UNL     1      -5.132  -6.332   6.247  0.00  0.00    +0.170 HD
BRANCH  22  25
ATOM     25  C   UNL     1      -6.787  -5.616   4.087  0.00  0.00    +0.048 A 
ATOM     26  C   UNL     1      -7.448  -4.978   3.045  0.00  0.00    +0.025 A 
ATOM     27  C   UNL     1      -8.407  -5.657   2.320  0.00  0.00    +0.002 A 
ATOM     28  C   UNL     1      -8.710  -6.970   2.630  0.00  0.00    +0.000 A 
ATOM     29  C   UNL     1      -8.055  -7.608   3.667  0.00  0.00    +0.002 A 
ATOM     30  C   UNL     1      -7.090  -6.936   4.393  0.00  0.00    +0.025 A 
ENDBRANCH  22  25
BRANCH  20  31
ATOM     31  C   UNL     1      -3.256  -4.656   7.496  0.00  0.00    -0.003 A 
ATOM     32  C   UNL     1      -3.194  -3.723   8.530  0.00  0.00    +0.010 A 
ATOM     33  C   UNL     1      -2.316  -3.913   9.577  0.00  0.00    +0.001 A 
ATOM     34  C   UNL     1      -1.498  -5.028   9.602  0.00  0.00    +0.000 A 
ATOM     35  C   UNL     1      -1.554  -5.958   8.580  0.00  0.00    +0.001 A 
ATOM     36  C   UNL     1      -2.432  -5.781   7.530  0.00  0.00    +0.010 A 
ENDBRANCH  20  31
ENDBRANCH   1  19
TORSDOF 6
