REMARK  Name = ZINC23296129
REMARK  8 active torsions:
REMARK  status: ('A' for Active; 'I' for Inactive)
REMARK    1  A    between atoms: C_6  and  C_7
REMARK    2  A    between atoms: C_12  and  N_16
REMARK    3  A    between atoms: N_16  and  C_17
REMARK    4  A    between atoms: C_17  and  C_18
REMARK    5  A    between atoms: C_18  and  C_19
REMARK    6  A    between atoms: C_19  and  C_20
REMARK    7  A    between atoms: C_21  and  C_27
REMARK    8  A    between atoms: C_22  and  N_26
REMARK                            x       y       z     vdW  Elec       q    Type
REMARK                         _______ _______ _______ _____ _____    ______ ____
ROOT
ATOM      1  C   UNL     1       1.259  -0.057   4.975  0.00  0.00    +0.002 A 
ATOM      2  C   UNL     1       1.463  -0.654   6.172  0.00  0.00    +0.056 A 
ATOM      3  S   UNL     1       0.444   0.292   7.288  0.00  0.00    -0.076 S 
ATOM      4  C   UNL     1      -0.229   1.458   6.134  0.00  0.00    +0.114 A 
ATOM      5  C   UNL     1       0.351   1.083   4.904  0.00  0.00    +0.055 A 
ATOM      6  C   UNL     1      -0.023   1.877   3.787  0.00  0.00    +0.131 A 
ATOM      7  N   UNL     1      -0.870   2.879   3.961  0.00  0.00    -0.220 NA
ATOM      8  C   UNL     1      -1.378   3.172   5.144  0.00  0.00    +0.224 A 
ATOM      9  N   UNL     1      -1.065   2.474   6.218  0.00  0.00    -0.228 NA
ENDROOT
BRANCH   1  15
ATOM     10  C   UNL     1       1.193  -1.002   2.669  0.00  0.00    +0.010 A 
ATOM     11  C   UNL     1       1.833  -1.460   1.535  0.00  0.00    +0.020 A 
ATOM     12  C   UNL     1       3.216  -1.486   1.482  0.00  0.00    +0.041 A 
ATOM     13  C   UNL     1       3.964  -1.048   2.561  0.00  0.00    +0.020 A 
ATOM     14  C   UNL     1       3.334  -0.583   3.697  0.00  0.00    +0.010 A 
ATOM     15  C   UNL     1       1.941  -0.555   3.757  0.00  0.00    -0.017 A 
ATOM     16 CL   UNL     1       4.015  -2.070   0.056  0.00  0.00    -0.084 Cl
ENDBRANCH   1  15
BRANCH   6  17
ATOM     17  N   UNL     1       0.488   1.601   2.531  0.00  0.00    -0.328 N 
ATOM     18  H   UNL     1       1.263   0.831   2.409  0.00  0.00    +0.147 HD
BRANCH  17  19
ATOM     19  C   UNL     1      -0.004   2.336   1.363  0.00  0.00    +0.103 C 
BRANCH  19  20
ATOM     20  C   UNL     1       0.719   1.843   0.108  0.00  0.00    +0.025 C 
BRANCH  20  21
ATOM     21  C   UNL     1       0.206   2.611  -1.112  0.00  0.00    +0.060 C 
BRANCH  21  22
ATOM     22  C   UNL     1       0.918   2.125  -2.348  0.00  0.00    +0.082 A 
ATOM     23  C   UNL     1       0.497   1.065  -3.184  0.00  0.00    +0.113 A 
ATOM     24  C   UNL     1       1.440   0.953  -4.203  0.00  0.00    +0.129 A 
ATOM     25  N   UNL     1       2.376   1.899  -3.985  0.00  0.00    -0.263 N 
ATOM     26  H   UNL     1       3.230   1.997  -4.671  0.00  0.00    +0.190 HD
ATOM     27  N   UNL     1       2.025   2.612  -2.833  0.00  0.00    -0.176 NA
BRANCH  24  28
ATOM     28  N   UNL     1       1.419   0.042  -5.243  0.00  0.00    -0.342 N 
ATOM     29  H   UNL     1       2.223   0.048  -5.994  0.00  0.00    +0.144 HD
ATOM     30  H   UNL     1       0.600  -0.688  -5.319  0.00  0.00    +0.144 HD
ENDBRANCH  24  28
BRANCH  23  31
ATOM     31  C   UNL     1      -0.675   0.260  -3.015  0.00  0.00    +0.104 C 
ATOM     32  N   UNL     1      -1.605  -0.378  -2.882  0.00  0.00    -0.191 NA
ENDBRANCH  23  31
ENDBRANCH  21  22
ENDBRANCH  20  21
ENDBRANCH  19  20
ENDBRANCH  17  19
ENDBRANCH   6  17
TORSDOF 8
