REMARK  Name = ZINC35341631
REMARK  3 active torsions:
REMARK  status: ('A' for Active; 'I' for Inactive)
REMARK    1  A    between atoms: C_3  and  O_9
REMARK    2  A    between atoms: O_9  and  C_10
REMARK    3  A    between atoms: C_15  and  N_16
REMARK                            x       y       z     vdW  Elec       q    Type
REMARK                         _______ _______ _______ _____ _____    ______ ____
ROOT
ATOM      1  C   UNL     1       3.379   3.456  -0.005  0.00  0.00    +0.149 A 
ATOM      2  C   UNL     1       2.104   3.994   0.075  0.00  0.00    +0.053 A 
ATOM      3  C   UNL     1       1.931   5.364   0.091  0.00  0.00    -0.022 A 
ATOM      4  C   UNL     1       3.033   6.207   0.027  0.00  0.00    +0.039 A 
ATOM      5  C   UNL     1       4.311   5.674  -0.053  0.00  0.00    +0.050 A 
ATOM      6  C   UNL     1       4.487   4.298  -0.063  0.00  0.00    +0.069 A 
ATOM      7  N   UNL     1       2.851   7.596   0.044  0.00  0.00    -0.285 N 
ATOM      8  C   UNL     1       1.697   8.127   0.486  0.00  0.00    +0.218 C 
ATOM      9  O   UNL     1       1.550   9.331   0.481  0.00  0.00    -0.275 OA
ATOM     10  C   UNL     1       0.586   7.245   0.988  0.00  0.00    +0.101 C 
ATOM     11  C   UNL     1       0.544   5.949   0.178  0.00  0.00    +0.046 C 
ATOM     12  H   UNL     1       3.562   8.178  -0.266  0.00  0.00    +0.155 HD
ENDROOT
BRANCH   6  13
ATOM     13  N   UNL     1       5.776   3.757  -0.138  0.00  0.00    -0.355 N 
ATOM     14  H   UNL     1       5.897   2.795  -0.149  0.00  0.00    +0.142 HD
ATOM     15  H   UNL     1       6.546   4.345  -0.178  0.00  0.00    +0.142 HD
ENDBRANCH   6  13
BRANCH   1  16
ATOM     16  O   UNL     1       3.548   2.106  -0.021  0.00  0.00    -0.453 OA
BRANCH  16  19
ATOM     17  C   UNL     1       3.989   1.556   3.549  0.00  0.00    +0.019 A 
ATOM     18  C   UNL     1       3.745   2.195   2.348  0.00  0.00    +0.049 A 
ATOM     19  C   UNL     1       3.788   1.479   1.161  0.00  0.00    +0.147 A 
ATOM     20  C   UNL     1       4.076   0.121   1.181  0.00  0.00    +0.084 A 
ATOM     21  C   UNL     1       4.319  -0.514   2.385  0.00  0.00    +0.039 A 
ATOM     22  C   UNL     1       4.276   0.203   3.567  0.00  0.00    +0.019 A 
ATOM     23 BR   UNL     1       4.610  -0.669   5.212  0.00  0.00    -0.050 Br
ATOM     24 CL   UNL     1       4.130  -0.779  -0.302  0.00  0.00    -0.080 Cl
ENDBRANCH  16  19
ENDBRANCH   1  16
TORSDOF 3
