REMARK  Name = ZINC08397803
REMARK  6 active torsions:
REMARK  status: ('A' for Active; 'I' for Inactive)
REMARK    1  A    between atoms: C_1  and  C_2
REMARK    2  A    between atoms: C_5  and  N_9
REMARK    3  A    between atoms: N_10  and  C_11
REMARK    4  A    between atoms: C_13  and  C_21
REMARK    5  A    between atoms: N_15  and  C_18
REMARK    6  A    between atoms: C_18  and  N_20
REMARK                            x       y       z     vdW  Elec       q    Type
REMARK                         _______ _______ _______ _____ _____    ______ ____
ROOT
ATOM      1  C   UNL     1       0.089  -6.235   1.040  0.00  0.00    +0.261 C 
ATOM      2  C   UNL     1       0.033  -6.778   2.452  0.00  0.00    +0.070 C 
ATOM      3  N   UNL     1       1.105  -7.442   2.643  0.00  0.00    -0.178 NA
ATOM      4  N   UNL     1       1.947  -7.454   1.536  0.00  0.00    -0.138 N 
ATOM      5  C   UNL     1       1.415  -6.749   0.510  0.00  0.00    +0.273 C 
ATOM      6  O   UNL     1       1.891  -6.566  -0.589  0.00  0.00    -0.271 OA
ATOM      7  C   UNL     1      -1.081  -6.571   3.446  0.00  0.00    +0.065 C 
ENDROOT
BRANCH   1   9
ATOM      8  N   UNL     1       0.057  -4.144  -0.022  0.00  0.00    -0.154 NA
ATOM      9  N   UNL     1       0.070  -4.770   1.048  0.00  0.00    -0.168 NA
BRANCH   8  14
ATOM     10  C   UNL     1      -0.018   1.503   0.010  0.00  0.00    +0.045 C 
ATOM     11  C   UNL     1       0.002  -0.004   0.002  0.00  0.00    -0.036 A 
ATOM     12  C   UNL     1       0.006  -0.686  -1.202  0.00  0.00    +0.006 A 
ATOM     13  C   UNL     1       0.024  -2.065  -1.217  0.00  0.00    +0.030 A 
ATOM     14  C   UNL     1       0.039  -2.774  -0.013  0.00  0.00    +0.087 A 
ATOM     15  C   UNL     1       0.036  -2.080   1.198  0.00  0.00    +0.045 A 
ATOM     16  C   UNL     1       0.023  -0.700   1.199  0.00  0.00    +0.023 A 
ATOM     17 BR   UNL     1       0.026   0.243   2.838  0.00  0.00    -0.050 Br
ENDBRANCH   8  14
ENDBRANCH   1   9
BRANCH   4  18
ATOM     18  C   UNL     1       3.137  -8.085   1.489  0.00  0.00    +0.158 C 
ATOM     19  S   UNL     1       4.083  -8.024   0.063  0.00  0.00    -0.017 S 
BRANCH  18  20
ATOM     20  N   UNL     1       3.582  -8.765   2.564  0.00  0.00    -0.339 N 
ATOM     21  H   UNL     1       3.046  -8.799   3.372  0.00  0.00    +0.144 HD
ATOM     22  H   UNL     1       4.438  -9.219   2.531  0.00  0.00    +0.144 HD
ENDBRANCH  18  20
ENDBRANCH   4  18
TORSDOF 4
