REMARK  Name = ZINC44328453
REMARK  7 active torsions:
REMARK  status: ('A' for Active; 'I' for Inactive)
REMARK    1  A    between atoms: C_4  and  S_22
REMARK    2  A    between atoms: C_5  and  N_7
REMARK    3  A    between atoms: N_10  and  C_11
REMARK    4  A    between atoms: C_11  and  C_12
REMARK    5  A    between atoms: C_15  and  S_18
REMARK    6  A    between atoms: S_18  and  N_21
REMARK    7  A    between atoms: S_22  and  C_23
REMARK                            x       y       z     vdW  Elec       q    Type
REMARK                         _______ _______ _______ _____ _____    ______ ____
ROOT
ATOM      1  N   UNL     1       1.233  -2.083  -0.021  0.00  0.00    -0.268 N 
ATOM      2  C   UNL     1       0.082  -2.775   0.088  0.00  0.00    +0.304 C 
ATOM      3  O   UNL     1      -0.982  -2.186   0.102  0.00  0.00    -0.252 OA
ATOM      4  N   UNL     1       0.110  -4.119   0.181  0.00  0.00    -0.295 N 
ATOM      5  H   UNL     1       2.075  -2.554  -0.115  0.00  0.00    +0.156 HD
ATOM      6  H   UNL     1       0.958  -4.588   0.170  0.00  0.00    +0.151 HD
ENDROOT
BRANCH   1  11
ATOM      7  C   UNL     1       0.154   1.372   0.642  0.00  0.00    +0.002 A 
ATOM      8  C   UNL     1       1.173   2.090   0.042  0.00  0.00    +0.001 A 
ATOM      9  C   UNL     1       2.215   1.430  -0.580  0.00  0.00    +0.016 A 
ATOM     10  C   UNL     1       2.241   0.042  -0.605  0.00  0.00    +0.029 A 
ATOM     11  C   UNL     1       1.213  -0.681   0.000  0.00  0.00    +0.048 A 
ATOM     12  C   UNL     1       0.172  -0.010   0.622  0.00  0.00    +0.024 A 
BRANCH  10  13
ATOM     13  S   UNL     1       3.568  -0.802  -1.398  0.00  0.00    -0.120 S 
BRANCH  13  14
ATOM     14  C   UNL     1       4.629   0.532  -2.019  0.00  0.00    +0.051 C 
ATOM     15  C   UNL     1       3.908   1.298  -3.147  0.00  0.00    +0.014 C 
ATOM     16  C   UNL     1       5.034   1.641  -4.154  0.00  0.00    +0.001 C 
ATOM     17  C   UNL     1       5.922   0.372  -4.118  0.00  0.00    +0.001 C 
ATOM     18  C   UNL     1       5.909  -0.057  -2.637  0.00  0.00    +0.014 C 
ENDBRANCH  13  14
ENDBRANCH  10  13
ENDBRANCH   1  11
BRANCH   4  19
ATOM     19  C   UNL     1      -1.142  -4.871   0.300  0.00  0.00    +0.141 C 
BRANCH  19  20
ATOM     20  C   UNL     1      -0.836  -6.344   0.388  0.00  0.00    -0.030 A 
ATOM     21  C   UNL     1      -0.753  -7.103  -0.765  0.00  0.00    +0.007 A 
ATOM     22  C   UNL     1      -0.472  -8.454  -0.684  0.00  0.00    +0.029 A 
ATOM     23  C   UNL     1      -0.275  -9.046   0.550  0.00  0.00    +0.105 A 
ATOM     24  C   UNL     1      -0.358  -8.287   1.702  0.00  0.00    +0.029 A 
ATOM     25  C   UNL     1      -0.634  -6.936   1.621  0.00  0.00    +0.007 A 
BRANCH  23  26
ATOM     26  S   UNL     1       0.081 -10.769   0.653  0.00  0.00    +0.056 S 
ATOM     27  O   UNL     1      -0.316 -11.189   1.951  0.00  0.00    -0.153 OA
ATOM     28  O   UNL     1      -0.435 -11.362  -0.531  0.00  0.00    -0.153 OA
BRANCH  26  29
ATOM     29  N   UNL     1       1.728 -10.933   0.585  0.00  0.00    -0.204 NA
ATOM     30  H   UNL     1       2.290 -10.148   0.503  0.00  0.00    +0.144 HD
ATOM     31  H   UNL     1       2.129 -11.815   0.627  0.00  0.00    +0.144 HD
ENDBRANCH  26  29
ENDBRANCH  23  26
ENDBRANCH  19  20
ENDBRANCH   4  19
TORSDOF 7
