REMARK  Name = ZINC05022578
REMARK  7 active torsions:
REMARK  status: ('A' for Active; 'I' for Inactive)
REMARK    1  A    between atoms: C_1  and  C_2
REMARK    2  A    between atoms: C_2  and  C_13
REMARK    3  A    between atoms: N_3  and  N_4
REMARK    4  A    between atoms: C_5  and  C_6
REMARK    5  A    between atoms: C_16  and  O_19
REMARK    6  A    between atoms: O_19  and  C_20
REMARK    7  A    between atoms: C_20  and  C_21
REMARK                            x       y       z     vdW  Elec       q    Type
REMARK                         _______ _______ _______ _____ _____    ______ ____
ROOT
ATOM      1  C   UNL     1      -7.546   4.289   0.128  0.00  0.00    -0.002 A 
ATOM      2  C   UNL     1      -7.307   2.910   0.115  0.00  0.00    +0.013 A 
ATOM      3  C   UNL     1      -6.013   2.438   0.105  0.00  0.00    +0.046 A 
ATOM      4  C   UNL     1      -4.946   3.328   0.107  0.00  0.00    +0.121 A 
ATOM      5  C   UNL     1      -5.178   4.698   0.125  0.00  0.00    +0.046 A 
ATOM      6  C   UNL     1      -6.468   5.181   0.130  0.00  0.00    +0.013 A 
ENDROOT
BRANCH   1   8
ATOM      7  C   UNL     1      -9.179   6.284   0.152  0.00  0.00    +0.068 C 
ATOM      8  C   UNL     1      -8.925   4.799   0.138  0.00  0.00    +0.068 C 
ATOM      9  N   UNL     1      -9.931   3.963   0.136  0.00  0.00    -0.152 NA
BRANCH   9  10
ATOM     10  N   UNL     1     -11.140   4.411   0.145  0.00  0.00    -0.132 NA
ATOM     11  C   UNL     1     -12.152   3.570   0.142  0.00  0.00    +0.171 C 
ATOM     12  N   UNL     1     -11.919   2.211   0.130  0.00  0.00    -0.340 N 
ATOM     13  H   UNL     1     -11.013   1.874   0.048  0.00  0.00    +0.144 HD
ATOM     14  H   UNL     1     -12.662   1.591   0.203  0.00  0.00    +0.144 HD
BRANCH  11  15
ATOM     15  C   UNL     1     -13.537   4.082   0.153  0.00  0.00    +0.189 A 
ATOM     16  C   UNL     1     -14.009   5.485   0.067  0.00  0.00    +0.191 A 
ATOM     17  N   UNL     1     -15.313   5.350   0.119  0.00  0.00    -0.033 NA
ATOM     18  O   UNL     1     -15.595   4.180   0.220  0.00  0.00    -0.240 OA
ATOM     19  N   UNL     1     -14.665   3.408   0.246  0.00  0.00    -0.044 NA
ATOM     20  N   UNL     1     -13.259   6.648  -0.042  0.00  0.00    -0.339 N 
ATOM     21  H   UNL     1     -12.296   6.597  -0.146  0.00  0.00    +0.144 HD
ATOM     22  H   UNL     1     -13.698   7.513  -0.015  0.00  0.00    +0.144 HD
ENDBRANCH  11  15
ENDBRANCH   9  10
ENDBRANCH   1   8
BRANCH   4  23
ATOM     23  O   UNL     1      -3.672   2.857   0.097  0.00  0.00    -0.487 OA
BRANCH  23  24
ATOM     24  C   UNL     1      -2.623   3.827   0.100  0.00  0.00    +0.265 C 
BRANCH  24  25
ATOM     25  C   UNL     1      -1.290   3.124   0.088  0.00  0.00    -0.003 A 
ATOM     26  C   UNL     1      -1.234   1.764   0.070  0.00  0.00    +0.007 A 
ATOM     27  C   UNL     1      -0.011   1.096   0.064  0.00  0.00    +0.001 A 
ATOM     28  C   UNL     1       1.164   1.784   0.065  0.00  0.00    +0.008 A 
ATOM     29  C   UNL     1       1.146   3.189   0.077  0.00  0.00    -0.018 A 
ATOM     30  C   UNL     1      -0.098   3.868   0.089  0.00  0.00    -0.011 A 
ATOM     31  C   UNL     1      -0.116   5.274   0.100  0.00  0.00    +0.009 A 
ATOM     32  C   UNL     1       1.058   5.962   0.101  0.00  0.00    +0.001 A 
ATOM     33  C   UNL     1       2.281   5.294   0.089  0.00  0.00    +0.001 A 
ATOM     34  C   UNL     1       2.337   3.934   0.077  0.00  0.00    +0.008 A 
ENDBRANCH  24  25
ENDBRANCH  23  24
ENDBRANCH   4  23
TORSDOF 6
