REMARK  Name = ZINC49776669
REMARK  5 active torsions:
REMARK  status: ('A' for Active; 'I' for Inactive)
REMARK    1  A    between atoms: C_1  and  C_2
REMARK    2  A    between atoms: C_6  and  N_9
REMARK    3  A    between atoms: C_7  and  C_8
REMARK    4  A    between atoms: N_12  and  C_15
REMARK    5  A    between atoms: C_18  and  C_21
REMARK                            x       y       z     vdW  Elec       q    Type
REMARK                         _______ _______ _______ _____ _____    ______ ____
ROOT
ATOM      1  N   UNL     1       0.051  -2.796   2.390  0.00  0.00    -0.327 N 
ATOM      2  C   UNL     1      -1.203  -3.201   3.044  0.00  0.00    +0.120 C 
ATOM      3  C   UNL     1      -1.157  -2.746   4.507  0.00  0.00    +0.105 C 
ATOM      4  N   UNL     1       0.066  -3.259   5.138  0.00  0.00    -0.272 NA
ATOM      5  C   UNL     1       1.268  -2.704   4.501  0.00  0.00    +0.105 C 
ATOM      6  C   UNL     1       1.322  -3.162   3.035  0.00  0.00    +0.120 C 
ENDROOT
BRANCH   4   7
ATOM      7  C   UNL     1       0.065  -2.992   6.583  0.00  0.00    +0.238 C 
ATOM      8  C   UNL     1       1.300  -3.580   7.238  0.00  0.00    +0.111 C 
ATOM      9  N   UNL     1       1.941  -2.556   7.744  0.00  0.00    -0.333 N 
ATOM     10  C   UNL     1       1.305  -1.402   7.513  0.00  0.00    +0.102 C 
ATOM     11  N   UNL     1       0.200  -1.548   6.846  0.00  0.00    -0.245 NA
ATOM     12  C   UNL     1       1.818  -0.065   7.984  0.00  0.00    +0.085 C 
ATOM     13  N   UNL     1       1.664  -4.889   7.289  0.00  0.00    -0.345 N 
ATOM     14  H   UNL     1       1.105  -5.564   6.875  0.00  0.00    +0.143 HD
ATOM     15  H   UNL     1       2.483  -5.147   7.740  0.00  0.00    +0.143 HD
ATOM     16  H   UNL     1       2.777  -2.626   8.229  0.00  0.00    +0.168 HD
ENDBRANCH   4   7
BRANCH   1  22
ATOM     17  C   UNL     1      -0.018   1.503   0.010  0.00  0.00    +0.044 C 
ATOM     18  C   UNL     1       0.002  -0.004   0.002  0.00  0.00    -0.046 A 
ATOM     19  C   UNL     1       0.006  -0.688  -1.200  0.00  0.00    +0.004 A 
ATOM     20  C   UNL     1       0.024  -2.071  -1.212  0.00  0.00    +0.002 A 
ATOM     21  C   UNL     1       0.039  -2.773  -0.023  0.00  0.00    +0.023 A 
ATOM     22  C   UNL     1       0.036  -2.089   1.186  0.00  0.00    +0.033 A 
ATOM     23  C   UNL     1       0.023  -0.700   1.194  0.00  0.00    -0.027 A 
ATOM     24  C   UNL     1       0.025   0.046   2.504  0.00  0.00    +0.046 C 
ENDBRANCH   1  22
TORSDOF 2
