REMARK  Name = ZINC40546215
REMARK  5 active torsions:
REMARK  status: ('A' for Active; 'I' for Inactive)
REMARK    1  A    between atoms: C_1  and  C_2
REMARK    2  A    between atoms: C_5  and  N_9
REMARK    3  A    between atoms: N_12  and  CA_13
REMARK    4  A    between atoms: CA_13  and  CB_15
REMARK    5  A    between atoms: CA_13  and  C_16
REMARK                            x       y       z     vdW  Elec       q    Type
REMARK                         _______ _______ _______ _____ _____    ______ ____
ROOT
ATOM      1  N   UNK A   0       0.058  -4.172  -0.021  0.00  0.00    -0.267 N 
ATOM      2  C   UNK A   0       0.472  -4.846   1.070  0.00  0.00    +0.305 C 
ATOM      3  O   UNK A   0       0.742  -4.244   2.091  0.00  0.00    -0.252 OA
ATOM      4  N   ALA A   1       0.586  -6.189   1.030  0.00  0.00    -0.286 N 
ATOM      5  H   UNK A   0      -0.228  -4.656  -0.811  0.00  0.00    +0.156 HD
ATOM      6  H   ALA A   1       0.370  -6.669   0.215  0.00  0.00    +0.151 HD
ENDROOT
BRANCH   1  11
ATOM      7  C   UNK A   0      -0.011   1.503   0.007  0.00  0.00    +0.044 C 
ATOM      8  C   UNK A   0       0.007  -0.004  -0.001  0.00  0.00    -0.048 A 
ATOM      9  C   UNK A   0       1.143  -0.678  -0.409  0.00  0.00    +0.020 A 
ATOM     10  C   UNK A   0       1.164  -2.060  -0.417  0.00  0.00    +0.040 A 
ATOM     11  C   UNK A   0       0.041  -2.772  -0.014  0.00  0.00    +0.063 A 
ATOM     12  C   UNK A   0      -1.099  -2.091   0.396  0.00  0.00    +0.040 A 
ATOM     13  C   UNK A   0      -1.110  -0.710   0.407  0.00  0.00    +0.020 A 
ATOM     14 BR   UNK A   0      -2.630  -3.055   0.945  0.00  0.00    -0.048 Br
ATOM     15 BR   UNK A   0       2.718  -2.980  -0.976  0.00  0.00    -0.048 Br
ENDBRANCH   1  11
BRANCH   4  16
ATOM     16  CA  ALA A   1       1.035  -6.922   2.216  0.00  0.00    +0.184 C 
ATOM     17  CB  ALA A   1       2.564  -6.940   2.255  0.00  0.00    +0.040 C 
BRANCH  16  18
ATOM     18  C   ALA A   1       0.517  -8.336   2.158  0.00  0.00    +0.376 C 
ATOM     19  O   ALA A   1      -0.005  -8.753   1.139  0.00  0.00    -0.244 OA
ATOM     20  OXT ALA A   1       0.621  -9.063   3.131  0.00  0.00    -0.244 OA
ENDBRANCH  16  18
ENDBRANCH   4  16
TORSDOF 3
