REMARK  Name = ZINC16790788
REMARK  9 active torsions:
REMARK  status: ('A' for Active; 'I' for Inactive)
REMARK    1  A    between atoms: C_1  and  C_2
REMARK    2  A    between atoms: C_2  and  C_4
REMARK    3  A    between atoms: C_2  and  S_20
REMARK    4  A    between atoms: N_6  and  C_7
REMARK    5  A    between atoms: C_12  and  S_13
REMARK    6  A    between atoms: S_13  and  C_14
REMARK    7  A    between atoms: S_20  and  C_21
REMARK    8  A    between atoms: C_24  and  C_27
REMARK    9  A    between atoms: N_25  and  N_26
REMARK                            x       y       z     vdW  Elec       q    Type
REMARK                         _______ _______ _______ _____ _____    ______ ____
ROOT
ATOM      1  C   UNL     1      -4.092   1.728  -0.089  0.00  0.00    +0.230 C 
ATOM      2  O   UNL     1      -4.219   2.901   0.191  0.00  0.00    -0.274 OA
ATOM      3  N   UNL     1      -5.156   1.017  -0.511  0.00  0.00    -0.284 N 
ATOM      4  H   UNL     1      -5.040   0.102  -0.811  0.00  0.00    +0.155 HD
ENDROOT
BRANCH   3   5
ATOM      5  C   UNL     1      -6.430   1.600  -0.516  0.00  0.00    +0.047 A 
ATOM      6  C   UNL     1      -6.719   2.650   0.342  0.00  0.00    +0.024 A 
ATOM      7  C   UNL     1      -7.975   3.227   0.332  0.00  0.00    +0.002 A 
ATOM      8  C   UNL     1      -8.951   2.753  -0.526  0.00  0.00    +0.001 A 
ATOM      9  C   UNL     1      -8.675   1.704  -1.382  0.00  0.00    +0.017 A 
ATOM     10  C   UNL     1      -7.415   1.122  -1.382  0.00  0.00    +0.034 A 
BRANCH  10  11
ATOM     11  S   UNL     1      -7.060  -0.217  -2.471  0.00  0.00    -0.088 S 
BRANCH  11  12
ATOM     12  C   UNL     1      -8.517  -0.368  -3.450  0.00  0.00    +0.013 A 
ATOM     13  C   UNL     1      -9.503  -1.281  -3.095  0.00  0.00    +0.015 A 
ATOM     14  C   UNL     1     -10.646  -1.393  -3.862  0.00  0.00    +0.001 A 
ATOM     15  C   UNL     1     -10.805  -0.606  -4.988  0.00  0.00    +0.000 A 
ATOM     16  C   UNL     1      -9.823   0.300  -5.347  0.00  0.00    +0.001 A 
ATOM     17  C   UNL     1      -8.680   0.421  -4.582  0.00  0.00    +0.015 A 
ENDBRANCH  11  12
ENDBRANCH  10  11
ENDBRANCH   3   5
BRANCH   1  19
ATOM     18  C   UNL     1      -2.685   0.272   1.342  0.00  0.00    +0.029 C 
ATOM     19  C   UNL     1      -2.744   1.065   0.035  0.00  0.00    +0.137 C 
BRANCH  19  20
ATOM     20  S   UNL     1      -1.448   2.329   0.037  0.00  0.00    -0.072 S 
BRANCH  20  21
ATOM     21  C   UNL     1      -0.018   1.300   0.037  0.00  0.00    +0.209 A 
ATOM     22  N   UNL     1      -0.003  -0.014   0.035  0.00  0.00    -0.121 NA
ATOM     23  N   UNL     1       1.208  -0.443   0.030  0.00  0.00    -0.126 NA
ATOM     24  C   UNL     1       2.044   0.572   0.028  0.00  0.00    +0.188 A 
ATOM     25  N   UNL     1       1.283   1.720   0.033  0.00  0.00    -0.223 N 
BRANCH  24  26
ATOM     26  C   UNL     1       3.514   0.496   0.023  0.00  0.00    +0.058 A 
ATOM     27  C   UNL     1       4.323  -0.578  -0.251  0.00  0.00    +0.019 A 
ATOM     28  C   UNL     1       5.688  -0.407  -0.198  0.00  0.00    +0.008 A 
ATOM     29  C   UNL     1       6.191   0.810   0.134  0.00  0.00    +0.046 A 
ATOM     30  S   UNL     1       4.708   1.774   0.378  0.00  0.00    -0.093 S 
ENDBRANCH  24  26
BRANCH  25  31
ATOM     31  N   UNL     1       1.734   3.010   0.032  0.00  0.00    -0.295 N 
ATOM     32  H   UNL     1       1.858   3.350   0.973  0.00  0.00    +0.163 HD
ATOM     33  H   UNL     1       2.589   3.093  -0.498  0.00  0.00    +0.163 HD
ENDBRANCH  25  31
ENDBRANCH  20  21
ENDBRANCH  19  20
ENDBRANCH   1  19
TORSDOF 8
