REMARK  Name = ZINC44168639
REMARK  7 active torsions:
REMARK  status: ('A' for Active; 'I' for Inactive)
REMARK    1  A    between atoms: C_1  and  C_2
REMARK    2  A    between atoms: C_2  and  O_3
REMARK    3  A    between atoms: O_3  and  C_4
REMARK    4  A    between atoms: C_6  and  O_20
REMARK    5  A    between atoms: C_8  and  O_19
REMARK    6  A    between atoms: C_10  and  O_18
REMARK    7  A    between atoms: C_12  and  C_15
REMARK                            x       y       z     vdW  Elec       q    Type
REMARK                         _______ _______ _______ _____ _____    ______ ____
ROOT
ATOM      1  C   UNL     1       0.746  -1.888  -1.280  0.00  0.00    +0.282 C 
ATOM      2  C   UNL     1       1.367  -2.268  -2.627  0.00  0.00    +0.201 C 
ATOM      3  C   UNL     1       2.796  -1.721  -2.693  0.00  0.00    +0.179 C 
ATOM      4  C   UNL     1       3.597  -2.270  -1.509  0.00  0.00    +0.185 C 
ATOM      5  C   UNL     1       2.890  -1.890  -0.205  0.00  0.00    +0.265 C 
ATOM      6  O   UNL     1       1.556  -2.403  -0.221  0.00  0.00    -0.331 OA
ENDROOT
BRANCH   5   7
ATOM      7  C   UNL     1       3.640  -2.477   0.963  0.00  0.00    +0.387 C 
ATOM      8  O   UNL     1       4.772  -2.100   1.212  0.00  0.00    -0.243 OA
ATOM      9  O   UNL     1       3.115  -3.329   1.659  0.00  0.00    -0.243 OA
ENDBRANCH   5   7
BRANCH   4  10
ATOM     10  O   UNL     1       4.912  -1.710  -1.521  0.00  0.00    -0.386 OA
ATOM     11  H   UNL     1       5.475  -2.015  -0.797  0.00  0.00    +0.210 HD
ENDBRANCH   4  10
BRANCH   3  12
ATOM     12  O   UNL     1       2.765  -0.293  -2.631  0.00  0.00    -0.386 OA
ATOM     13  H   UNL     1       3.638   0.121  -2.669  0.00  0.00    +0.210 HD
ENDBRANCH   3  12
BRANCH   2  14
ATOM     14  O   UNL     1       1.392  -3.691  -2.757  0.00  0.00    -0.384 OA
ATOM     15  H   UNL     1       0.519  -4.104  -2.719  0.00  0.00    +0.210 HD
ENDBRANCH   2  14
BRANCH   1  16
ATOM     16  O   UNL     1       0.671  -0.465  -1.174  0.00  0.00    -0.349 OA
BRANCH  16  18
ATOM     17  C   UNL     1      -0.019   1.526   0.010  0.00  0.00    +0.034 C 
ATOM     18  C   UNL     1       0.002  -0.004   0.002  0.00  0.00    +0.160 C 
ENDBRANCH  16  18
ENDBRANCH   1  16
TORSDOF 6
