REMARK  Name = ZINC62722643
REMARK  3 active torsions:
REMARK  status: ('A' for Active; 'I' for Inactive)
REMARK    1  A    between atoms: C_4  and  S_13
REMARK    2  A    between atoms: C_7  and  N_12
REMARK    3  A    between atoms: C_10  and  O_11
REMARK                            x       y       z     vdW  Elec       q    Type
REMARK                         _______ _______ _______ _____ _____    ______ ____
ROOT
ATOM      1  C   UNL     1      -0.013   1.393   0.139  0.00  0.00    +0.046 A 
ATOM      2  C   UNL     1       1.143   2.108   0.090  0.00  0.00    +0.014 A 
ATOM      3  C   UNL     1       2.376   1.436   0.031  0.00  0.00    +0.011 A 
ATOM      4  C   UNL     1       3.589   2.146  -0.020  0.00  0.00    +0.127 A 
ATOM      5  C   UNL     1       4.770   1.471  -0.077  0.00  0.00    +0.032 A 
ATOM      6  C   UNL     1       4.803   0.079  -0.086  0.00  0.00    +0.025 A 
ATOM      7  C   UNL     1       3.637  -0.654  -0.038  0.00  0.00    +0.033 A 
ATOM      8  C   UNL     1       2.397   0.019   0.022  0.00  0.00    +0.008 A 
ATOM      9  C   UNL     1       1.187  -0.689   0.073  0.00  0.00    +0.055 A 
ATOM     10  C   UNL     1       0.006  -0.005   0.130  0.00  0.00    +0.118 A 
ENDROOT
BRANCH   4  11
ATOM     11  S   UNL     1       3.580   3.908  -0.011  0.00  0.00    +0.140 S 
ATOM     12  O   UNL     1       3.469   4.322   1.379  0.00  0.00    -0.140 OA
ATOM     13  O   UNL     1       4.834   4.339  -0.608  0.00  0.00    -0.140 OA
ATOM     14  O   UNL     1       2.430   4.328  -0.797  0.00  0.00    -0.043 OA
ENDBRANCH   4  11
BRANCH   7  15
ATOM     15  N   UNL     1       3.681  -2.047  -0.049  0.00  0.00    -0.357 N 
ATOM     16  H   UNL     1       4.535  -2.505  -0.090  0.00  0.00    +0.142 HD
ATOM     17  H   UNL     1       2.857  -2.559  -0.015  0.00  0.00    +0.142 HD
ENDBRANCH   7  15
BRANCH  10  18
ATOM     18  O   UNL     1      -1.166  -0.692   0.180  0.00  0.00    -0.507 OA
ATOM     19  H   UNL     1      -1.545  -0.886  -0.688  0.00  0.00    +0.292 HD
ENDBRANCH  10  18
TORSDOF 3
