REMARK  Name = ZINC09595689
REMARK  3 active torsions:
REMARK  status: ('A' for Active; 'I' for Inactive)
REMARK    1  A    between atoms: C_10  and  C_13
REMARK    2  A    between atoms: C_16  and  O_20
REMARK    3  A    between atoms: C_18  and  O_19
REMARK                            x       y       z     vdW  Elec       q    Type
REMARK                         _______ _______ _______ _____ _____    ______ ____
ROOT
ATOM      1  C   UNL     1      -0.017   1.382   0.010  0.00  0.00    +0.001 A 
ATOM      2  C   UNL     1       0.002  -0.004   0.002  0.00  0.00    +0.002 A 
ATOM      3  C   UNL     1       1.201  -0.690  -0.012  0.00  0.00    +0.024 A 
ATOM      4  C   UNL     1       2.393   0.013  -0.019  0.00  0.00    +0.041 A 
ATOM      5  C   UNL     1       2.378   1.420  -0.014  0.00  0.00    +0.058 A 
ATOM      6  C   UNL     1       1.162   2.099   0.002  0.00  0.00    +0.015 A 
ATOM      7  C   UNL     1       3.666   2.136  -0.028  0.00  0.00    +0.247 C 
ATOM      8  O   UNL     1       3.705   3.326  -0.273  0.00  0.00    -0.270 OA
ATOM      9  N   UNL     1       4.802   1.455   0.233  0.00  0.00    -0.289 N 
ATOM     10  C   UNL     1       4.769   0.041   0.607  0.00  0.00    +0.193 C 
ATOM     11  N   UNL     1       3.627  -0.627  -0.028  0.00  0.00    -0.322 N 
ATOM     12  H   UNL     1       5.655   1.911   0.171  0.00  0.00    +0.151 HD
ATOM     13  H   UNL     1       3.731  -1.497  -0.445  0.00  0.00    +0.148 HD
ENDROOT
BRANCH  10  14
ATOM     14  C   UNL     1       4.645  -0.075   2.105  0.00  0.00    +0.032 A 
ATOM     15  C   UNL     1       3.919  -1.112   2.659  0.00  0.00    +0.014 A 
ATOM     16  C   UNL     1       3.808  -1.225   4.031  0.00  0.00    +0.046 A 
ATOM     17  C   UNL     1       4.418  -0.291   4.857  0.00  0.00    +0.120 A 
ATOM     18  C   UNL     1       5.142   0.753   4.303  0.00  0.00    +0.091 A 
ATOM     19  C   UNL     1       5.256   0.862   2.926  0.00  0.00    +0.127 A 
BRANCH  19  20
ATOM     20  O   UNL     1       5.965   1.884   2.380  0.00  0.00    -0.506 OA
ATOM     21  H   UNL     1       5.439   2.676   2.201  0.00  0.00    +0.292 HD
ENDBRANCH  19  20
BRANCH  17  22
ATOM     22  O   UNL     1       4.304  -0.399   6.207  0.00  0.00    -0.507 OA
ATOM     23  H   UNL     1       3.539   0.065   6.575  0.00  0.00    +0.292 HD
ENDBRANCH  17  22
ENDBRANCH  10  14
TORSDOF 3
