REMARK  Name = ZINC12364961
REMARK  5 active torsions:
REMARK  status: ('A' for Active; 'I' for Inactive)
REMARK    1  A    between atoms: C_1  and  C_2
REMARK    2  A    between atoms: C_2  and  C_3
REMARK    3  A    between atoms: C_2  and  C_4
REMARK    4  A    between atoms: C_2  and  C_5
REMARK    5  A    between atoms: C_11  and  C_15
REMARK                            x       y       z     vdW  Elec       q    Type
REMARK                         _______ _______ _______ _____ _____    ______ ____
ROOT
ATOM      1  C   UNK     1       1.393   4.278  -1.808  0.00  0.00    -0.006 C 
ATOM      2  C   UNK     1       1.283   2.848  -2.344  0.00  0.00    +0.003 C 
ATOM      3  C   UNK     1       1.989   1.890  -1.380  0.00  0.00    -0.002 C 
ATOM      4  C   UNK     1       1.367   2.003  -0.000  0.00  0.00    -0.019 C 
ATOM      5  C   UNK     1       1.418   3.421   0.538  0.00  0.00    -0.002 C 
ATOM      6  C   UNK     1       0.715   4.368  -0.440  0.00  0.00    +0.003 C 
ATOM      7  C   UNK     1       0.002  -0.004   0.002  0.00  0.00    +0.055 C 
ATOM      8  C   UNK     1       0.996  -0.540   1.066  0.00  0.00    +0.063 C 
ATOM      9  S   UNK     1       2.200   0.853   1.166  0.00  0.00    -0.174 S 
ATOM     10  N   UNK     1      -0.022   1.475   0.010  0.00  0.00    +0.398 N 
ATOM     11  H   UNK     1      -0.520   1.812  -0.822  0.00  0.00    -0.083 HD
ATOM     12  H   UNK     1      -0.505   1.803   0.855  0.00  0.00    -0.083 HD
ENDROOT
BRANCH   1  14
ATOM     13  C   UNK     1      -0.767   4.859  -2.920  0.00  0.00    +0.011 C 
ATOM     14  C   UNK     1       0.708   5.240  -2.781  0.00  0.00    -0.035 C 
ATOM     15  C   UNK     1       0.818   6.669  -2.247  0.00  0.00    +0.011 C 
ATOM     16  C   UNK     1       1.388   5.153  -4.149  0.00  0.00    +0.011 C 
ENDBRANCH   1  14
BRANCH   7  17
ATOM     17  C   UNK     1      -1.379  -0.522   0.308  0.00  0.00    +0.343 C 
ATOM     18  O   UNK     1      -2.284   0.253   0.512  0.00  0.00    -0.248 OA
ATOM     19  O   UNK     1      -1.605  -1.844   0.355  0.00  0.00    -0.248 OA
ENDBRANCH   7  17
TORSDOF 2
