REMARK  Name = ZINC07362341
REMARK  8 active torsions:
REMARK  status: ('A' for Active; 'I' for Inactive)
REMARK    1  A    between atoms: C_1  and  C_2
REMARK    2  A    between atoms: C_2  and  C_4
REMARK    3  A    between atoms: C_2  and  S_10
REMARK    4  A    between atoms: N_6  and  C_7
REMARK    5  A    between atoms: C_7  and  C_8
REMARK    6  A    between atoms: S_10  and  C_11
REMARK    7  A    between atoms: C_15  and  C_18
REMARK    8  A    between atoms: N_26  and  N_27
REMARK                            x       y       z     vdW  Elec       q    Type
REMARK                         _______ _______ _______ _____ _____    ______ ____
ROOT
ATOM      1  C   UNL     1      -3.072   1.788  -0.131  0.00  0.00    +0.190 A 
ATOM      2  N   UNL     1      -2.292   2.595  -0.822  0.00  0.00    -0.215 NA
ATOM      3  C   UNL     1      -2.751   3.238  -1.890  0.00  0.00    +0.117 A 
ATOM      4  C   UNL     1      -4.077   3.093  -2.334  0.00  0.00    +0.081 A 
ATOM      5  C   UNL     1      -4.418   3.870  -3.522  0.00  0.00    +0.004 A 
ATOM      6  C   UNL     1      -3.464   4.646  -4.088  0.00  0.00    +0.056 A 
ATOM      7  S   UNL     1      -2.041   4.376  -3.050  0.00  0.00    -0.076 S 
ATOM      8  C   UNL     1      -4.899   2.212  -1.566  0.00  0.00    +0.280 A 
ATOM      9  O   UNL     1      -6.063   2.026  -1.877  0.00  0.00    -0.265 OA
ATOM     10  N   UNL     1      -4.371   1.587  -0.498  0.00  0.00    -0.209 N 
ENDROOT
BRANCH   5  11
ATOM     11  C   UNL     1      -5.783   3.811  -4.097  0.00  0.00    -0.017 A 
ATOM     12  C   UNL     1      -6.381   2.578  -4.354  0.00  0.00    +0.008 A 
ATOM     13  C   UNL     1      -7.654   2.529  -4.885  0.00  0.00    +0.001 A 
ATOM     14  C   UNL     1      -8.332   3.700  -5.171  0.00  0.00    +0.000 A 
ATOM     15  C   UNL     1      -7.742   4.926  -4.922  0.00  0.00    +0.001 A 
ATOM     16  C   UNL     1      -6.471   4.988  -4.387  0.00  0.00    +0.008 A 
ENDBRANCH   5  11
BRANCH  10  17
ATOM     17  N   UNL     1      -5.151   0.739   0.236  0.00  0.00    -0.293 N 
ATOM     18  H   UNL     1      -6.084   0.685  -0.145  0.00  0.00    +0.163 HD
ATOM     19  H   UNL     1      -4.732  -0.176   0.298  0.00  0.00    +0.163 HD
ENDBRANCH  10  17
BRANCH   1  20
ATOM     20  S   UNL     1      -2.427   0.953   1.280  0.00  0.00    -0.074 S 
BRANCH  20  22
ATOM     21  C   UNL     1      -0.013   1.086   0.008  0.00  0.00    +0.029 C 
ATOM     22  C   UNL     1      -0.729   1.579   1.267  0.00  0.00    +0.137 C 
BRANCH  22  23
ATOM     23  C   UNL     1       0.000   1.080   2.488  0.00  0.00    +0.226 C 
ATOM     24  O   UNL     1      -0.360   0.059   3.034  0.00  0.00    -0.275 OA
ATOM     25  N   UNL     1       1.052   1.768   2.973  0.00  0.00    -0.311 N 
ATOM     26  H   UNL     1       1.340   2.585   2.536  0.00  0.00    +0.149 HD
BRANCH  25  27
ATOM     27  C   UNL     1       1.761   1.283   4.160  0.00  0.00    +0.131 C 
BRANCH  27  28
ATOM     28  C   UNL     1       2.888   2.227   4.493  0.00  0.00    -0.016 C 
ATOM     29  C   UNL     1       2.967   2.756   5.688  0.00  0.00    +0.005 C 
ENDBRANCH  27  28
ENDBRANCH  25  27
ENDBRANCH  22  23
ENDBRANCH  20  22
ENDBRANCH   1  20
TORSDOF 7
