REMARK  Name = ZINC35324494
REMARK  4 active torsions:
REMARK  status: ('A' for Active; 'I' for Inactive)
REMARK    1  A    between atoms: C_1  and  O_2
REMARK    2  A    between atoms: O_2  and  C_3
REMARK    3  A    between atoms: C_7  and  C_9
REMARK    4  A    between atoms: C_19  and  C_20
REMARK                            x       y       z     vdW  Elec       q    Type
REMARK                         _______ _______ _______ _____ _____    ______ ____
ROOT
ATOM      1  C   UNL     1       1.259  -3.862  -2.356  0.00  0.00    +0.068 C 
ATOM      2  C   UNL     1       2.764  -4.157  -2.423  0.00  0.00    +0.109 C 
ATOM      3  C   UNL     1       3.290  -3.936  -3.812  0.00  0.00    +0.218 C 
ATOM      4  O   UNL     1       4.391  -3.444  -3.944  0.00  0.00    -0.275 OA
ATOM      5  N   UNL     1       2.594  -4.261  -4.918  0.00  0.00    -0.283 N 
ATOM      6  C   UNL     1       1.233  -4.636  -4.775  0.00  0.00    +0.072 A 
ATOM      7  C   UNL     1       0.612  -4.452  -3.569  0.00  0.00    +0.039 A 
ATOM      8  S   UNL     1      -0.934  -5.013  -3.800  0.00  0.00    +0.010 S 
ATOM      9  N   UNL     1      -0.840  -5.457  -5.413  0.00  0.00    -0.208 NA
ATOM     10  C   UNL     1       0.404  -5.175  -5.758  0.00  0.00    +0.101 A 
ATOM     11  H   UNL     1       3.013  -4.239  -5.792  0.00  0.00    +0.155 HD
ENDROOT
BRANCH  10  12
ATOM     12  C   UNL     1       0.899  -5.422  -7.135  0.00  0.00    +0.003 A 
ATOM     13  C   UNL     1       2.164  -5.974  -7.334  0.00  0.00    +0.013 A 
ATOM     14  C   UNL     1       2.620  -6.202  -8.616  0.00  0.00    +0.039 A 
ATOM     15  C   UNL     1       1.824  -5.883  -9.704  0.00  0.00    +0.123 A 
ATOM     16  C   UNL     1       0.566  -5.335  -9.510  0.00  0.00    +0.039 A 
ATOM     17  C   UNL     1       0.100  -5.108  -8.232  0.00  0.00    +0.013 A 
ATOM     18  F   UNL     1       2.275  -6.108 -10.957  0.00  0.00    -0.205 F 
ENDBRANCH  10  12
BRANCH   1  23
ATOM     19  C   UNL     1       0.165  -0.419  -1.248  0.00  0.00    +0.120 A 
ATOM     20  C   UNL     1       0.622   0.365  -2.297  0.00  0.00    +0.045 A 
ATOM     21  C   UNL     1       1.283  -0.221  -3.359  0.00  0.00    +0.004 A 
ATOM     22  C   UNL     1       1.489  -1.588  -3.377  0.00  0.00    +0.004 A 
ATOM     23  C   UNL     1       1.034  -2.372  -2.333  0.00  0.00    -0.035 A 
ATOM     24  C   UNL     1       0.378  -1.790  -1.266  0.00  0.00    +0.050 A 
BRANCH  19  26
ATOM     25  C   UNL     1      -0.667   1.572  -0.251  0.00  0.00    +0.277 C 
ATOM     26  O   UNL     1      -0.484   0.156  -0.202  0.00  0.00    -0.495 OA
ENDBRANCH  19  26
ENDBRANCH   1  23
TORSDOF 3
