REMARK  Name = ZINC35116740
REMARK  14 active torsions:
REMARK  status: ('A' for Active; 'I' for Inactive)
REMARK    1  A    between atoms: C_1  and  C_2
REMARK    2  A    between atoms: C_5  and  N_9
REMARK    3  A    between atoms: C_6  and  C_8
REMARK    4  A    between atoms: C_19  and  C_20
REMARK    5  A    between atoms: C_20  and  C_22
REMARK    6  A    between atoms: C_20  and  N_23
REMARK    7  A    between atoms: N_23  and  C_24
REMARK    8  A    between atoms: N_23  and  S_29
REMARK    9  A    between atoms: C_24  and  C_25
REMARK   10  A    between atoms: C_25  and  C_26
REMARK   11  A    between atoms: C_26  and  O_27
REMARK   12  A    between atoms: O_27  and  C_28
REMARK   13  A    between atoms: S_29  and  C_32
REMARK   14  A    between atoms: C_33  and  C_34
REMARK                            x       y       z     vdW  Elec       q    Type
REMARK                         _______ _______ _______ _____ _____    ______ ____
ROOT
ATOM      1  N   UNL     1       0.377  -4.179   1.027  0.00  0.00    -0.263 N 
ATOM      2  C   UNL     1      -0.731  -4.878   1.363  0.00  0.00    +0.266 A 
ATOM      3  O   UNL     1      -1.530  -4.447   2.174  0.00  0.00    -0.267 OA
ATOM      4  C   UNL     1      -0.934  -6.180   0.710  0.00  0.00    +0.065 A 
ATOM      5  C   UNL     1      -2.043  -6.978   0.987  0.00  0.00    +0.015 A 
ATOM      6  C   UNL     1      -2.184  -8.189   0.346  0.00  0.00    +0.001 A 
ATOM      7  C   UNL     1      -1.232  -8.619  -0.570  0.00  0.00    +0.002 A 
ATOM      8  C   UNL     1      -0.129  -7.846  -0.856  0.00  0.00    +0.028 A 
ATOM      9  C   UNL     1       0.036  -6.614  -0.221  0.00  0.00    +0.078 A 
ATOM     10  N   UNL     1       1.106  -5.820  -0.474  0.00  0.00    -0.231 NA
ATOM     11  C   UNL     1       1.257  -4.672   0.114  0.00  0.00    +0.136 A 
ENDROOT
BRANCH   1  16
ATOM     12  C   UNL     1       1.351   0.869   3.429  0.00  0.00    +0.044 C 
ATOM     13  C   UNL     1       1.093  -0.471   2.791  0.00  0.00    -0.050 A 
ATOM     14  C   UNL     1       0.462  -0.541   1.562  0.00  0.00    +0.005 A 
ATOM     15  C   UNL     1       0.224  -1.768   0.974  0.00  0.00    +0.027 A 
ATOM     16  C   UNL     1       0.618  -2.933   1.619  0.00  0.00    +0.054 A 
ATOM     17  C   UNL     1       1.251  -2.860   2.853  0.00  0.00    -0.026 A 
ATOM     18  C   UNL     1       1.491  -1.629   3.433  0.00  0.00    +0.008 A 
ATOM     19  C   UNL     1       1.680  -4.122   3.556  0.00  0.00    +0.046 C 
ENDBRANCH   1  16
BRANCH  11  20
ATOM     20  C   UNL     1       2.471  -3.848  -0.228  0.00  0.00    +0.143 C 
ATOM     21  C   UNL     1       2.192  -3.028  -1.490  0.00  0.00    +0.034 C 
BRANCH  20  22
ATOM     22  N   UNL     1       3.613  -4.734  -0.465  0.00  0.00    -0.167 NA
BRANCH  22  23
ATOM     23  S   UNL     1       4.900  -4.723   0.578  0.00  0.00    +0.055 S 
ATOM     24  O   UNL     1       6.019  -5.203  -0.154  0.00  0.00    -0.153 OA
ATOM     25  O   UNL     1       4.895  -3.452   1.215  0.00  0.00    -0.153 OA
BRANCH  23  26
ATOM     26  C   UNL     1       4.566  -5.916   1.830  0.00  0.00    +0.153 C 
ATOM     27  C   UNL     1       5.334  -6.991   1.943  0.00  0.00    +0.028 C 
BRANCH  27  28
ATOM     28  C   UNL     1       5.054  -7.992   2.994  0.00  0.00    -0.024 A 
ATOM     29  C   UNL     1       3.980  -7.811   3.865  0.00  0.00    +0.008 A 
ATOM     30  C   UNL     1       3.724  -8.749   4.844  0.00  0.00    +0.001 A 
ATOM     31  C   UNL     1       4.531  -9.867   4.963  0.00  0.00    +0.000 A 
ATOM     32  C   UNL     1       5.598 -10.052   4.102  0.00  0.00    +0.001 A 
ATOM     33  C   UNL     1       5.860  -9.125   3.115  0.00  0.00    +0.008 A 
ENDBRANCH  27  28
ENDBRANCH  23  26
ENDBRANCH  22  23
BRANCH  22  34
ATOM     34  C   UNL     1       3.616  -5.631  -1.623  0.00  0.00    +0.112 C 
BRANCH  34  35
ATOM     35  C   UNL     1       4.176  -4.891  -2.839  0.00  0.00    +0.045 C 
BRANCH  35  36
ATOM     36  C   UNL     1       4.070  -5.787  -4.075  0.00  0.00    +0.161 C 
BRANCH  36  37
ATOM     37  O   UNL     1       4.593  -5.096  -5.211  0.00  0.00    -0.383 OA
ATOM     38  C   UNL     1       4.541  -5.850  -6.424  0.00  0.00    +0.193 C 
ENDBRANCH  36  37
ENDBRANCH  35  36
ENDBRANCH  34  35
ENDBRANCH  22  34
ENDBRANCH  20  22
ENDBRANCH  11  20
TORSDOF 10
