REMARK  Name = ZINC35347062
REMARK  5 active torsions:
REMARK  status: ('A' for Active; 'I' for Inactive)
REMARK    1  A    between atoms: C_1  and  C_2
REMARK    2  A    between atoms: C_6  and  N_20
REMARK    3  A    between atoms: C_7  and  S_8
REMARK    4  A    between atoms: S_8  and  N_11
REMARK    5  A    between atoms: C_15  and  C_17
REMARK                            x       y       z     vdW  Elec       q    Type
REMARK                         _______ _______ _______ _____ _____    ______ ____
ROOT
ATOM      1  S   UNL     1       1.050   0.376   1.092  0.00  0.00    +0.064 S 
ATOM      2  O   UNL     1       1.973  -0.620   1.511  0.00  0.00    -0.153 OA
ATOM      3  O   UNL     1       1.464   1.590   0.479  0.00  0.00    -0.153 OA
ENDROOT
BRANCH   1  10
ATOM      4  C   UNL     1      -0.552   1.844  -1.011  0.00  0.00    +0.046 C 
ATOM      5  C   UNL     1      -0.746   0.351  -0.963  0.00  0.00    -0.022 A 
ATOM      6  C   UNL     1      -1.609  -0.263  -1.853  0.00  0.00    +0.005 A 
ATOM      7  C   UNL     1      -1.791  -1.633  -1.812  0.00  0.00    +0.002 A 
ATOM      8  C   UNL     1      -1.109  -2.394  -0.883  0.00  0.00    +0.025 A 
ATOM      9  C   UNL     1      -0.240  -1.781   0.011  0.00  0.00    +0.051 A 
ATOM     10  C   UNL     1      -0.056  -0.405  -0.036  0.00  0.00    +0.129 A 
BRANCH   9  11
ATOM     11  N   UNL     1       0.452  -2.548   0.952  0.00  0.00    -0.356 N 
ATOM     12  H   UNL     1       0.600  -3.493   0.792  0.00  0.00    +0.142 HD
ATOM     13  H   UNL     1       0.783  -2.135   1.765  0.00  0.00    +0.142 HD
ENDBRANCH   9  11
ENDBRANCH   1  10
BRANCH   1  14
ATOM     14  N   UNL     1       0.169   0.797   2.429  0.00  0.00    -0.165 NA
ATOM     15  C   UNL     1      -0.155  -0.091   3.560  0.00  0.00    +0.110 C 
ATOM     16  C   UNL     1      -0.407   0.862   4.754  0.00  0.00    +0.019 C 
ATOM     17  C   UNL     1      -1.121   2.051   4.059  0.00  0.00    +0.031 C 
ATOM     18  C   UNL     1      -0.415   2.122   2.688  0.00  0.00    +0.165 C 
BRANCH  18  19
ATOM     19  C   UNL     1       0.673   3.163   2.723  0.00  0.00    +0.229 C 
ATOM     20  O   UNL     1       1.783   2.868   3.113  0.00  0.00    -0.274 OA
ATOM     21  N   UNL     1       0.413   4.423   2.321  0.00  0.00    -0.328 N 
ATOM     22  H   UNL     1      -0.474   4.659   2.009  0.00  0.00    +0.145 HD
ATOM     23  H   UNL     1       1.114   5.094   2.343  0.00  0.00    +0.145 HD
ENDBRANCH  18  19
ENDBRANCH   1  14
TORSDOF 4
