REMARK  Name = ZINC13220339
REMARK  8 active torsions:
REMARK  status: ('A' for Active; 'I' for Inactive)
REMARK    1  A    between atoms: C_1  and  C_2
REMARK    2  A    between atoms: C_3  and  C_8
REMARK    3  A    between atoms: N_10  and  N_11
REMARK    4  A    between atoms: C_12  and  C_13
REMARK    5  A    between atoms: C_18  and  O_19
REMARK    6  A    between atoms: O_19  and  C_20
REMARK    7  A    between atoms: C_20  and  C_21
REMARK    8  A    between atoms: C_21  and  C_22
REMARK                            x       y       z     vdW  Elec       q    Type
REMARK                         _______ _______ _______ _____ _____    ______ ____
ROOT
ATOM      1  N   UNL     1       2.399   5.231   0.007  0.00  0.00    -0.187 NA
ATOM      2  C   UNL     1       2.420   3.933   0.000  0.00  0.00    +0.142 C 
ENDROOT
BRANCH   2   3
ATOM      3  C   UNL     1       1.156   3.175   0.008  0.00  0.00    +0.036 A 
ATOM      4  C   UNL     1       1.174   1.779   0.000  0.00  0.00    +0.013 A 
ATOM      5  C   UNL     1      -0.013   1.076   0.008  0.00  0.00    +0.001 A 
ATOM      6  C   UNL     1      -1.222   1.749   0.017  0.00  0.00    +0.004 A 
ATOM      7  C   UNL     1      -1.254   3.131   0.030  0.00  0.00    +0.046 A 
ATOM      8  C   UNL     1      -0.071   3.852   0.022  0.00  0.00    +0.129 A 
BRANCH   8   9
ATOM      9  O   UNL     1      -0.101   5.210   0.029  0.00  0.00    -0.491 OA
BRANCH   9  10
ATOM     10  C   UNL     1      -1.388   5.831   0.044  0.00  0.00    +0.233 C 
BRANCH  10  11
ATOM     11  C   UNL     1      -1.221   7.351   0.050  0.00  0.00    +0.076 C 
BRANCH  11  12
ATOM     12  C   UNL     1      -2.579   8.006   0.066  0.00  0.00    -0.044 A 
ATOM     13  C   UNL     1      -3.210   8.317  -1.124  0.00  0.00    +0.004 A 
ATOM     14  C   UNL     1      -4.457   8.912  -1.109  0.00  0.00    +0.000 A 
ATOM     15  C   UNL     1      -5.069   9.207   0.095  0.00  0.00    +0.000 A 
ATOM     16  C   UNL     1      -4.434   8.901   1.285  0.00  0.00    +0.000 A 
ATOM     17  C   UNL     1      -3.190   8.300   1.270  0.00  0.00    +0.004 A 
ENDBRANCH  11  12
ENDBRANCH  10  11
ENDBRANCH   9  10
ENDBRANCH   8   9
ENDBRANCH   2   3
BRANCH   1  20
ATOM     18  C   UNL     1       3.579   7.298   0.007  0.00  0.00    +0.272 C 
ATOM     19  O   UNL     1       2.514   7.890   0.019  0.00  0.00    -0.268 OA
ATOM     20  N   UNL     1       3.601   5.951  -0.000  0.00  0.00    -0.202 N 
ATOM     21  H   UNL     1       4.448   5.480  -0.010  0.00  0.00    +0.178 HD
BRANCH  18  24
ATOM     22  C   UNL     1       3.888  10.388   0.006  0.00  0.00    +0.067 C 
ATOM     23  C   UNL     1       5.044   9.421  -0.001  0.00  0.00    +0.060 A 
ATOM     24  C   UNL     1       4.833   8.050  -0.001  0.00  0.00    +0.100 A 
ATOM     25  S   UNL     1       6.519   7.457  -0.019  0.00  0.00    -0.048 S 
ATOM     26  C   UNL     1       7.304   9.006  -0.018  0.00  0.00    +0.156 A 
ATOM     27  N   UNL     1       6.281   9.847  -0.004  0.00  0.00    -0.230 NA
ATOM     28  N   UNL     1       8.653   9.289  -0.029  0.00  0.00    -0.337 N 
ATOM     29  H   UNL     1       9.300   8.566  -0.039  0.00  0.00    +0.144 HD
ATOM     30  H   UNL     1       8.955  10.210  -0.028  0.00  0.00    +0.144 HD
ENDBRANCH  18  24
ENDBRANCH   1  20
TORSDOF 7
