REMARK  Name = ZINC12558273
REMARK  10 active torsions:
REMARK  status: ('A' for Active; 'I' for Inactive)
REMARK    1  A    between atoms: C_1  and  C_2
REMARK    2  A    between atoms: C_11  and  N_26
REMARK    3  A    between atoms: C_13  and  S_15
REMARK    4  A    between atoms: S_15  and  C_16
REMARK    5  A    between atoms: C_16  and  C_17
REMARK    6  A    between atoms: N_19  and  C_20
REMARK    7  A    between atoms: C_20  and  C_22
REMARK    8  A    between atoms: C_20  and  C_23
REMARK    9  A    between atoms: C_23  and  O_24
REMARK   10  A    between atoms: O_24  and  C_25
REMARK                            x       y       z     vdW  Elec       q    Type
REMARK                         _______ _______ _______ _____ _____    ______ ____
ROOT
ATOM      1  C   UNL     1      -1.243  -0.754  -0.606  0.00  0.00    +0.008 C 
ATOM      2  C   UNL     1       0.165  -0.165  -0.721  0.00  0.00    -0.009 C 
ATOM      3  C   UNL     1       1.021  -0.638   0.458  0.00  0.00    +0.008 C 
ATOM      4  C   UNL     1       2.484  -0.262   0.219  0.00  0.00    +0.037 C 
ATOM      5  C   UNL     1       2.567   1.230  -0.094  0.00  0.00    -0.025 A 
ATOM      6  C   UNL     1       1.469   1.910  -0.494  0.00  0.00    -0.004 A 
ATOM      7  S   UNL     1       2.018   3.580  -0.741  0.00  0.00    -0.073 S 
ATOM      8  C   UNL     1       3.715   3.367  -0.311  0.00  0.00    +0.115 A 
ATOM      9  C   UNL     1       3.802   1.990   0.015  0.00  0.00    +0.051 A 
ATOM     10  C   UNL     1       5.080   1.499   0.412  0.00  0.00    +0.129 A 
ATOM     11  N   UNL     1       6.065   2.393   0.436  0.00  0.00    -0.207 NA
ATOM     12  C   UNL     1       5.913   3.670   0.117  0.00  0.00    +0.191 A 
ATOM     13  N   UNL     1       4.743   4.190  -0.262  0.00  0.00    -0.214 NA
ATOM     14  C   UNL     1       0.086   1.367  -0.687  0.00  0.00    +0.046 C 
ENDROOT
BRANCH  10  15
ATOM     15  N   UNL     1       5.283   0.174   0.753  0.00  0.00    -0.343 N 
ATOM     16  H   UNL     1       4.629  -0.497   0.502  0.00  0.00    +0.144 HD
ATOM     17  H   UNL     1       6.079  -0.084   1.244  0.00  0.00    +0.144 HD
ENDBRANCH  10  15
BRANCH  12  18
ATOM     18  S   UNL     1       7.318   4.729   0.197  0.00  0.00    -0.077 S 
BRANCH  18  19
ATOM     19  C   UNL     1       8.574   3.546   0.743  0.00  0.00    +0.173 C 
BRANCH  19  20
ATOM     20  C   UNL     1       9.899   4.249   0.885  0.00  0.00    +0.224 C 
ATOM     21  O   UNL     1       9.986   5.434   0.641  0.00  0.00    -0.275 OA
ATOM     22  N   UNL     1      10.988   3.562   1.283  0.00  0.00    -0.310 N 
ATOM     23  H   UNL     1      10.918   2.614   1.479  0.00  0.00    +0.149 HD
BRANCH  22  24
ATOM     24  C   UNL     1      12.276   4.245   1.421  0.00  0.00    +0.095 C 
ATOM     25  C   UNL     1      12.979   4.286   0.063  0.00  0.00    +0.030 C 
BRANCH  24  26
ATOM     26  C   UNL     1      13.149   3.490   2.425  0.00  0.00    +0.181 C 
BRANCH  26  27
ATOM     27  O   UNL     1      13.461   2.196   1.906  0.00  0.00    -0.381 OA
ATOM     28  C   UNL     1      14.278   1.404   2.771  0.00  0.00    +0.194 C 
ENDBRANCH  26  27
ENDBRANCH  24  26
ENDBRANCH  22  24
ENDBRANCH  19  20
ENDBRANCH  18  19
ENDBRANCH  12  18
TORSDOF 7
