REMARK  Name = ZINC04436493
REMARK  9 active torsions:
REMARK  status: ('A' for Active; 'I' for Inactive)
REMARK    1  A    between atoms: C_1  and  C_2
REMARK    2  A    between atoms: C_5  and  C_28
REMARK    3  A    between atoms: C_6  and  C_8
REMARK    4  A    between atoms: C_10  and  C_24
REMARK    5  A    between atoms: C_11  and  C_16
REMARK    6  A    between atoms: C_16  and  S_17
REMARK    7  A    between atoms: S_17  and  C_18
REMARK    8  A    between atoms: C_24  and  O_26
REMARK    9  A    between atoms: O_26  and  C_27
REMARK                            x       y       z     vdW  Elec       q    Type
REMARK                         _______ _______ _______ _____ _____    ______ ____
ROOT
ATOM      1  C   UNL     1       1.171  -0.723   0.048  0.00  0.00    +0.144 C 
ATOM      2  C   UNL     1       2.403   0.155  -0.038  0.00  0.00    +0.079 C 
ATOM      3  C   UNL     1       2.231   1.491   0.049  0.00  0.00    +0.034 C 
ATOM      4  N   UNL     1       0.987   2.033   0.209  0.00  0.00    -0.272 N 
ATOM      5  C   UNL     1      -0.134   1.305   0.291  0.00  0.00    +0.304 C 
ATOM      6  O   UNL     1      -1.198   1.878   0.428  0.00  0.00    -0.252 OA
ATOM      7  N   UNL     1      -0.123  -0.041   0.221  0.00  0.00    -0.288 N 
ATOM      8  H   UNL     1       0.912   2.998   0.266  0.00  0.00    +0.156 HD
ATOM      9  H   UNL     1      -0.947  -0.548   0.282  0.00  0.00    +0.151 HD
ENDROOT
BRANCH   1  15
ATOM     10  C   UNL     1       2.320  -1.369  -4.779  0.00  0.00    +0.044 C 
ATOM     11  C   UNL     1       1.647  -1.855  -3.522  0.00  0.00    -0.050 A 
ATOM     12  C   UNL     1       0.963  -3.057  -3.523  0.00  0.00    +0.003 A 
ATOM     13  C   UNL     1       0.346  -3.502  -2.370  0.00  0.00    +0.004 A 
ATOM     14  C   UNL     1       0.413  -2.747  -1.214  0.00  0.00    -0.045 A 
ATOM     15  C   UNL     1       1.098  -1.546  -1.212  0.00  0.00    -0.019 A 
ATOM     16  C   UNL     1       1.711  -1.098  -2.367  0.00  0.00    +0.009 A 
ATOM     17  C   UNL     1      -0.260  -3.232   0.044  0.00  0.00    +0.044 C 
ENDBRANCH   1  15
BRANCH   2  18
ATOM     18  C   UNL     1       3.691  -0.407  -0.203  0.00  0.00    +0.339 C 
ATOM     19  O   UNL     1       4.221  -0.997   0.720  0.00  0.00    -0.245 OA
BRANCH  18  20
ATOM     20  O   UNL     1       4.332  -0.289  -1.385  0.00  0.00    -0.465 OA
ATOM     21  C   UNL     1       5.579  -0.974  -1.518  0.00  0.00    +0.280 C 
ENDBRANCH  18  20
ENDBRANCH   2  18
BRANCH   3  22
ATOM     22  C   UNL     1       3.430   2.401  -0.033  0.00  0.00    +0.127 C 
BRANCH  22  23
ATOM     23  S   UNL     1       3.467   3.209  -1.656  0.00  0.00    -0.091 S 
BRANCH  23  24
ATOM     24  C   UNL     1       4.906   4.224  -1.594  0.00  0.00    +0.160 A 
ATOM     25  N   UNL     1       5.772   4.387  -0.613  0.00  0.00    -0.133 NA
ATOM     26  N   UNL     1       6.842   5.236  -0.779  0.00  0.00    -0.125 NA
ATOM     27  C   UNL     1       6.991   5.891  -1.914  0.00  0.00    +0.180 A 
ATOM     28  S   UNL     1       5.578   5.312  -2.841  0.00  0.00    -0.025 S 
ATOM     29  N   UNL     1       7.982   6.790  -2.288  0.00  0.00    -0.336 N 
ATOM     30  H   UNL     1       7.959   7.198  -3.168  0.00  0.00    +0.144 HD
ATOM     31  H   UNL     1       8.696   7.010  -1.669  0.00  0.00    +0.144 HD
ENDBRANCH  23  24
ENDBRANCH  22  23
ENDBRANCH   3  22
TORSDOF 6
