REMARK  Name = ZINC05634108
REMARK  6 active torsions:
REMARK  status: ('A' for Active; 'I' for Inactive)
REMARK    1  A    between atoms: C_1  and  C_2
REMARK    2  A    between atoms: C_2  and  O_3
REMARK    3  A    between atoms: O_3  and  C_4
REMARK    4  A    between atoms: C_12  and  C_21
REMARK    5  A    between atoms: C_13  and  N_20
REMARK    6  A    between atoms: C_16  and  C_17
REMARK                            x       y       z     vdW  Elec       q    Type
REMARK                         _______ _______ _______ _____ _____    ______ ____
ROOT
ATOM      1  C   UNL     1       1.447   7.065   2.643  0.00  0.00    +0.403 C 
ATOM      2  O   UNL     1       1.528   7.079   3.855  0.00  0.00    -0.226 OA
ATOM      3  N   UNL     1       1.301   5.895   1.990  0.00  0.00    -0.267 N 
ATOM      4  C   UNL     1       1.238   4.628   2.731  0.00  0.00    +0.112 C 
ATOM      5  C   UNL     1      -0.029   3.874   2.313  0.00  0.00    +0.037 C 
ATOM      6  C   UNL     1      -0.040   3.709   0.790  0.00  0.00    +0.048 C 
ATOM      7  C   UNL     1      -0.065   5.094   0.134  0.00  0.00    +0.037 C 
ATOM      8  C   UNL     1       1.201   5.861   0.525  0.00  0.00    +0.112 C 
ATOM      9  C   UNL     1       1.202   2.978   0.360  0.00  0.00    +0.076 C 
ATOM     10  C   UNL     1       1.170   1.670  -0.000  0.00  0.00    +0.100 C 
ATOM     11  N   UNL     1      -0.011   0.966   0.007  0.00  0.00    -0.296 N 
ATOM     12  C   UNL     1      -1.212   1.638   0.017  0.00  0.00    +0.092 C 
ATOM     13  C   UNL     1      -1.271   2.947   0.383  0.00  0.00    +0.069 C 
ATOM     14  S   UNL     1      -2.688   0.793  -0.445  0.00  0.00    -0.034 SA
ATOM     15  H   UNL     1       0.004  -0.134   0.006  0.00  0.00    +0.154 HD
ENDROOT
BRANCH  10  16
ATOM     16  N   UNL     1       2.333   1.041  -0.376  0.00  0.00    -0.346 N 
ATOM     17  H   UNL     1       2.315  -0.019  -0.669  0.00  0.00    +0.143 HD
ATOM     18  H   UNL     1       3.281   1.598  -0.384  0.00  0.00    +0.143 HD
ENDBRANCH  10  16
BRANCH  13  19
ATOM     19  C   UNL     1      -2.537   3.617   0.377  0.00  0.00    +0.098 C 
ATOM     20  N   UNL     1      -3.541   4.148   0.371  0.00  0.00    -0.191 NA
ENDBRANCH  13  19
BRANCH   9  21
ATOM     21  C   UNL     1       2.449   3.681   0.330  0.00  0.00    +0.099 C 
ATOM     22  N   UNL     1       3.439   4.238   0.305  0.00  0.00    -0.191 NA
ENDBRANCH   9  21
BRANCH   1  23
ATOM     23  O   UNL     1       1.503   8.219   1.951  0.00  0.00    -0.451 OA
BRANCH  23  25
ATOM     24  C   UNL     1       1.705  10.639   1.768  0.00  0.00    +0.048 C 
ATOM     25  C   UNL     1       1.662   9.441   2.719  0.00  0.00    +0.230 C 
ENDBRANCH  23  25
ENDBRANCH   1  23
TORSDOF 5
