REMARK  Name = ZINC08063996
REMARK  7 active torsions:
REMARK  status: ('A' for Active; 'I' for Inactive)
REMARK    1  A    between atoms: C_1  and  C_2
REMARK    2  A    between atoms: C_4  and  C_29
REMARK    3  A    between atoms: C_5  and  N_9
REMARK    4  A    between atoms: C_6  and  C_8
REMARK    5  A    between atoms: C_10  and  C_12
REMARK    6  A    between atoms: C_12  and  N_13
REMARK    7  A    between atoms: C_24  and  C_28
REMARK                            x       y       z     vdW  Elec       q    Type
REMARK                         _______ _______ _______ _____ _____    ______ ____
ROOT
ATOM      1  N   UNL     1      -5.833   3.976  -1.147  0.00  0.00    -0.320 N 
ATOM      2  C   UNL     1      -7.019   4.632  -1.424  0.00  0.00    +0.131 A 
ATOM      3  C   UNL     1      -8.151   3.907  -1.890  0.00  0.00    +0.051 A 
ATOM      4  C   UNL     1      -8.282   2.470  -2.134  0.00  0.00    -0.025 A 
ATOM      5  C   UNL     1      -9.479   2.030  -2.573  0.00  0.00    -0.004 A 
ATOM      6  S   UNL     1     -10.494   3.481  -2.679  0.00  0.00    -0.073 S 
ATOM      7  C   UNL     1      -9.305   4.679  -2.133  0.00  0.00    +0.114 A 
ATOM      8  N   UNL     1      -9.314   5.984  -1.946  0.00  0.00    -0.228 NA
ATOM      9  C   UNL     1      -8.230   6.602  -1.518  0.00  0.00    +0.224 A 
ATOM     10  N   UNL     1      -7.114   5.942  -1.264  0.00  0.00    -0.220 NA
ATOM     11  C   UNL     1      -9.864   0.620  -2.899  0.00  0.00    +0.046 C 
ATOM     12  C   UNL     1      -8.804  -0.321  -2.309  0.00  0.00    -0.009 C 
ATOM     13  C   UNL     1      -7.416   0.207  -2.683  0.00  0.00    +0.008 C 
ATOM     14  C   UNL     1      -7.127   1.497  -1.915  0.00  0.00    +0.037 C 
ATOM     15  C   UNL     1      -8.989  -1.728  -2.882  0.00  0.00    +0.008 C 
ATOM     16  H   UNL     1      -5.792   3.008  -1.191  0.00  0.00    +0.148 HD
ENDROOT
BRANCH   1  17
ATOM     17  C   UNL     1      -4.638   4.745  -0.788  0.00  0.00    +0.199 C 
BRANCH  17  19
ATOM     18  N   UNL     1      -2.282   4.286  -0.191  0.00  0.00    -0.284 N 
ATOM     19  C   UNL     1      -3.490   3.800  -0.537  0.00  0.00    +0.234 C 
ATOM     20  O   UNL     1      -3.654   2.604  -0.648  0.00  0.00    -0.274 OA
ATOM     21  H   UNL     1      -2.166   5.237  -0.043  0.00  0.00    +0.155 HD
BRANCH  18  26
ATOM     22  C   UNL     1       2.125   0.763   0.405  0.00  0.00    +0.044 C 
ATOM     23  C   UNL     1       0.954   1.699   0.247  0.00  0.00    -0.050 A 
ATOM     24  C   UNL     1       0.219   1.692  -0.924  0.00  0.00    +0.008 A 
ATOM     25  C   UNL     1      -0.852   2.552  -1.074  0.00  0.00    -0.029 A 
ATOM     26  C   UNL     1      -1.195   3.417  -0.044  0.00  0.00    +0.039 A 
ATOM     27  C   UNL     1      -0.454   3.422   1.131  0.00  0.00    -0.029 A 
ATOM     28  C   UNL     1       0.618   2.563   1.273  0.00  0.00    +0.008 A 
ATOM     29  C   UNL     1      -0.820   4.363   2.250  0.00  0.00    +0.045 C 
ATOM     30  C   UNL     1      -1.649   2.547  -2.353  0.00  0.00    +0.045 C 
ENDBRANCH  18  26
ENDBRANCH  17  19
ENDBRANCH   1  17
TORSDOF 3
