REMARK  Name = ZINC05525845
REMARK  6 active torsions:
REMARK  status: ('A' for Active; 'I' for Inactive)
REMARK    1  A    between atoms: C_1  and  C_2
REMARK    2  A    between atoms: C_2  and  C_4
REMARK    3  A    between atoms: C_2  and  N_15
REMARK    4  A    between atoms: N_6  and  N_7
REMARK    5  A    between atoms: N_7  and  C_8
REMARK    6  A    between atoms: C_16  and  C_18
REMARK                            x       y       z     vdW  Elec       q    Type
REMARK                         _______ _______ _______ _____ _____    ______ ____
ROOT
ATOM      1  C   UNL     1      -0.559   3.862   3.832  0.00  0.00    +0.038 C 
ATOM      2  C   UNL     1      -1.557   3.802   2.674  0.00  0.00    +0.157 C 
ENDROOT
BRANCH   2   3
ATOM      3  C   UNL     1      -2.121   5.178   2.425  0.00  0.00    +0.249 C 
ATOM      4  O   UNL     1      -1.969   5.709   1.345  0.00  0.00    -0.272 OA
ATOM      5  N   UNL     1      -2.793   5.817   3.402  0.00  0.00    -0.235 N 
ATOM      6  H   UNL     1      -2.931   5.336   4.381  0.00  0.00    +0.173 HD
BRANCH   5   7
ATOM      7  N   UNL     1      -3.317   7.096   3.171  0.00  0.00    -0.268 N 
ATOM      8  H   UNL     1      -3.180   7.578   2.191  0.00  0.00    +0.170 HD
BRANCH   7   9
ATOM      9  C   UNL     1      -3.967   7.714   4.114  0.00  0.00    +0.025 C 
ATOM     10  C   UNL     1      -4.177   7.072   5.470  0.00  0.00    +0.052 C 
ATOM     11  C   UNL     1      -5.625   7.359   5.892  0.00  0.00    +0.014 C 
ATOM     12  C   UNL     1      -5.816   8.869   6.023  0.00  0.00    +0.079 C 
ATOM     13  C   UNL     1      -5.380   9.580   4.777  0.00  0.00    +0.158 C 
ATOM     14  C   UNL     1      -4.521   9.056   3.900  0.00  0.00    +0.066 C 
ATOM     15  O   UNL     1      -5.876  10.815   4.532  0.00  0.00    -0.293 OA
ENDBRANCH   7   9
ENDBRANCH   5   7
ENDBRANCH   2   3
BRANCH   2  16
ATOM     16  N   UNL     1      -0.877   3.327   1.467  0.00  0.00    -0.304 N 
ATOM     17  C   UNL     1      -0.740   2.005   1.247  0.00  0.00    +0.220 C 
ATOM     18  O   UNL     1      -1.179   1.208   2.048  0.00  0.00    -0.275 OA
ATOM     19  H   UNL     1      -0.478   4.050   0.740  0.00  0.00    +0.149 HD
BRANCH  17  20
ATOM     20  C   UNL     1      -0.040   1.516   0.005  0.00  0.00    +0.048 C 
ATOM     21  C   UNL     1      -0.785   2.021  -1.233  0.00  0.00    +0.019 C 
ATOM     22  C   UNL     1      -0.074   1.525  -2.494  0.00  0.00    -0.009 C 
ATOM     23  C   UNL     1      -0.054  -0.005  -2.499  0.00  0.00    +0.007 C 
ATOM     24  C   UNL     1       0.690  -0.510  -1.262  0.00  0.00    -0.009 C 
ATOM     25  C   UNL     1      -0.020  -0.014  -0.001  0.00  0.00    +0.019 C 
ATOM     26  C   UNL     1       2.126   0.019  -1.280  0.00  0.00    +0.007 C 
ATOM     27  C   UNL     1       2.106   1.549  -1.274  0.00  0.00    -0.009 C 
ATOM     28  C   UNL     1       1.361   2.054  -2.511  0.00  0.00    +0.007 C 
ATOM     29  C   UNL     1       1.396   2.045  -0.013  0.00  0.00    +0.019 C 
ENDBRANCH  17  20
ENDBRANCH   2  16
TORSDOF 5
