REMARK  Name = ZINC05564320
REMARK  10 active torsions:
REMARK  status: ('A' for Active; 'I' for Inactive)
REMARK    1  A    between atoms: C_1  and  C_2
REMARK    2  A    between atoms: C_2  and  N_3
REMARK    3  A    between atoms: N_3  and  C_4
REMARK    4  A    between atoms: N_3  and  C_6
REMARK    5  A    between atoms: C_4  and  C_5
REMARK    6  A    between atoms: C_9  and  C_12
REMARK    7  A    between atoms: C_15  and  C_26
REMARK    8  A    between atoms: C_21  and  N_25
REMARK    9  A    between atoms: C_22  and  C_23
REMARK   10  A    between atoms: C_29  and  C_32
REMARK                            x       y       z     vdW  Elec       q    Type
REMARK                         _______ _______ _______ _____ _____    ______ ____
ROOT
ATOM      1  C   UNL     1      -0.262  -6.032  -1.523  0.00  0.00    +0.102 C 
ATOM      2  C   UNL     1       0.505  -6.519  -2.726  0.00  0.00    +0.054 A 
ATOM      3  C   UNL     1       1.841  -6.668  -2.896  0.00  0.00    +0.074 A 
ATOM      4  N   UNL     1       2.037  -7.141  -4.163  0.00  0.00    -0.273 N 
ATOM      5  N   UNL     1       0.780  -7.279  -4.771  0.00  0.00    -0.135 NA
ATOM      6  H   UNL     1       2.894  -7.344  -4.570  0.00  0.00    +0.189 HD
ATOM      7  C   UNL     1      -0.134  -6.911  -3.919  0.00  0.00    +0.245 A 
ATOM      8  O   UNL     1      -1.487  -6.876  -4.057  0.00  0.00    -0.421 OA
ATOM      9  C   UNL     1      -2.221  -6.715  -2.938  0.00  0.00    +0.201 C 
ATOM     10  C   UNL     1      -1.723  -6.333  -1.743  0.00  0.00    +0.098 C 
ENDROOT
BRANCH   3  11
ATOM     11  C   UNL     1       2.891  -6.374  -1.896  0.00  0.00    +0.000 A 
ATOM     12  C   UNL     1       2.765  -6.845  -0.589  0.00  0.00    +0.010 A 
ATOM     13  C   UNL     1       3.748  -6.567   0.339  0.00  0.00    +0.004 A 
ATOM     14  C   UNL     1       4.857  -5.824  -0.025  0.00  0.00    -0.050 A 
ATOM     15  C   UNL     1       4.987  -5.354  -1.319  0.00  0.00    +0.004 A 
ATOM     16  C   UNL     1       4.014  -5.630  -2.258  0.00  0.00    +0.010 A 
ATOM     17  C   UNL     1       5.926  -5.524   0.994  0.00  0.00    +0.044 C 
ENDBRANCH   3  11
BRANCH   1  21
ATOM     18  C   UNL     1       0.292  -1.821  -1.072  0.00  0.00    +0.013 A 
ATOM     19  C   UNL     1       0.664  -2.680  -0.054  0.00  0.00    +0.022 A 
ATOM     20  C   UNL     1       0.484  -4.043  -0.200  0.00  0.00    +0.006 A 
ATOM     21  C   UNL     1      -0.067  -4.546  -1.363  0.00  0.00    -0.034 A 
ATOM     22  C   UNL     1      -0.439  -3.687  -2.381  0.00  0.00    +0.006 A 
ATOM     23  C   UNL     1      -0.264  -2.324  -2.233  0.00  0.00    +0.022 A 
BRANCH  18  24
ATOM     24  N   UNL     1       0.474  -0.442  -0.924  0.00  0.00    -0.394 NA
ATOM     25  H   UNL     1       0.147   0.031  -1.753  0.00  0.00    +0.126 HD
BRANCH  24  27
ATOM     26  C   UNL     1      -1.784  -0.130  -0.029  0.00  0.00    +0.022 C 
ATOM     27  C   UNL     1      -0.286   0.029   0.241  0.00  0.00    +0.081 C 
ENDBRANCH  24  27
BRANCH  24  28
ATOM     28  C   UNL     1       1.901  -0.155  -0.727  0.00  0.00    +0.081 C 
ATOM     29  C   UNL     1       2.676  -0.529  -1.992  0.00  0.00    +0.022 C 
ENDBRANCH  24  28
ENDBRANCH  18  24
ENDBRANCH   1  21
BRANCH   9  30
ATOM     30  N   UNL     1      -3.570  -6.957  -3.019  0.00  0.00    -0.328 N 
ATOM     31  H   UNL     1      -3.963  -7.234  -3.861  0.00  0.00    +0.145 HD
ATOM     32  H   UNL     1      -4.130  -6.852  -2.234  0.00  0.00    +0.145 HD
ENDBRANCH   9  30
BRANCH  10  33
ATOM     33  C   UNL     1      -2.620  -6.208  -0.634  0.00  0.00    +0.101 C 
ATOM     34  N   UNL     1      -3.333  -6.109   0.245  0.00  0.00    -0.191 NA
ENDBRANCH  10  33
TORSDOF 7
