REMARK  Name = ZINC21076724
REMARK  7 active torsions:
REMARK  status: ('A' for Active; 'I' for Inactive)
REMARK    1  A    between atoms: C_7  and  C_11
REMARK    2  A    between atoms: N_12  and  N_13
REMARK    3  A    between atoms: C_16  and  S_19
REMARK    4  A    between atoms: S_19  and  C_20
REMARK    5  A    between atoms: C_20  and  C_21
REMARK    6  A    between atoms: C_21  and  C_22
REMARK    7  A    between atoms: N_24  and  C_25
REMARK                            x       y       z     vdW  Elec       q    Type
REMARK                         _______ _______ _______ _____ _____    ______ ____
ROOT
ATOM      1  N   UNL     1       0.815   0.519  -6.241  0.00  0.00    -0.205 N 
ATOM      2  C   UNL     1       0.733   0.575  -4.858  0.00  0.00    +0.232 A 
ATOM      3  N   UNL     1      -0.220   1.238  -4.136  0.00  0.00    -0.186 NA
ATOM      4  C   UNL     1       0.049   1.049  -2.809  0.00  0.00    +0.210 A 
ATOM      5  N   UNL     1       1.125   0.305  -2.715  0.00  0.00    -0.144 NA
ATOM      6  N   UNL     1       1.555   0.001  -4.013  0.00  0.00    -0.245 N 
ATOM      7  H   UNL     1       0.068   1.040  -6.858  0.00  0.00    +0.177 HD
ATOM      8  H   UNL     1       2.401  -0.594  -4.388  0.00  0.00    +0.192 HD
ENDROOT
BRANCH   1  10
ATOM      9  C   UNL     1       1.926  -0.254  -8.149  0.00  0.00    +0.140 C 
ATOM     10  N   UNL     1       1.849  -0.201  -6.853  0.00  0.00    -0.187 NA
BRANCH   9  17
ATOM     11  C   UNL     1       5.502  -2.749  -6.464  0.00  0.00    +0.001 A 
ATOM     12  C   UNL     1       6.289  -3.297  -7.467  0.00  0.00    +0.002 A 
ATOM     13  C   UNL     1       5.985  -3.083  -8.794  0.00  0.00    +0.026 A 
ATOM     14  C   UNL     1       4.879  -2.311  -9.134  0.00  0.00    +0.047 A 
ATOM     15  C   UNL     1       4.086  -1.759  -8.114  0.00  0.00    +0.008 A 
ATOM     16  C   UNL     1       4.410  -1.987  -6.778  0.00  0.00    +0.010 A 
ATOM     17  C   UNL     1       3.013  -1.011  -8.792  0.00  0.00    +0.020 A 
ATOM     18  C   UNL     1       3.220  -1.160 -10.127  0.00  0.00    +0.093 A 
ATOM     19  N   UNL     1       4.330  -1.927 -10.338  0.00  0.00    -0.360 N 
ATOM     20  H   UNL     1       4.796  -2.245 -11.282  0.00  0.00    +0.165 HD
ENDBRANCH   9  17
ENDBRANCH   1  10
BRANCH   4  21
ATOM     21  S   UNL     1      -0.883   1.698  -1.462  0.00  0.00    -0.084 S 
BRANCH  21  22
ATOM     22  C   UNL     1      -0.011   1.088   0.008  0.00  0.00    +0.086 C 
BRANCH  22  23
ATOM     23  C   UNL     1      -0.725   1.585   1.267  0.00  0.00    +0.107 C 
BRANCH  23  24
ATOM     24  C   UNL     1      -0.001   1.079   2.488  0.00  0.00    +0.218 C 
ATOM     25  O   UNL     1       0.988   0.388   2.363  0.00  0.00    -0.275 OA
ATOM     26  N   UNL     1      -0.453   1.393   3.718  0.00  0.00    -0.285 N 
ATOM     27  H   UNL     1      -1.304   2.080   3.832  0.00  0.00    +0.155 HD
BRANCH  26  28
ATOM     28  C   UNL     1       0.161   0.844   4.850  0.00  0.00    +0.033 A 
ATOM     29  C   UNL     1      -0.599   0.529   5.969  0.00  0.00    +0.024 A 
ATOM     30  C   UNL     1       0.008  -0.017   7.083  0.00  0.00    +0.017 A 
ATOM     31  C   UNL     1       1.374  -0.239   7.088  0.00  0.00    +0.018 A 
ATOM     32  C   UNL     1       2.134   0.080   5.977  0.00  0.00    +0.017 A 
ATOM     33  C   UNL     1       1.531   0.620   4.859  0.00  0.00    +0.024 A 
ATOM     34 BR   UNL     1       2.203  -0.981   8.618  0.00  0.00    -0.050 Br
ENDBRANCH  26  28
ENDBRANCH  23  24
ENDBRANCH  22  23
ENDBRANCH  21  22
ENDBRANCH   4  21
TORSDOF 7
