REMARK  Name = ZINC07692721
REMARK  8 active torsions:
REMARK  status: ('A' for Active; 'I' for Inactive)
REMARK    1  A    between atoms: C_1  and  O_2
REMARK    2  A    between atoms: O_2  and  C_3
REMARK    3  A    between atoms: C_5  and  C_12
REMARK    4  A    between atoms: C_6  and  O_10
REMARK    5  A    between atoms: O_10  and  C_11
REMARK    6  A    between atoms: C_12  and  S_13
REMARK    7  A    between atoms: S_13  and  C_14
REMARK    8  A    between atoms: C_18  and  N_20
REMARK                            x       y       z     vdW  Elec       q    Type
REMARK                         _______ _______ _______ _____ _____    ______ ____
ROOT
ATOM      1  S   UNL     1      -0.860   1.669   1.497  0.00  0.00    -0.081 S 
ENDROOT
BRANCH   1   2
ATOM      2  C   UNL     1       0.174   0.961   2.735  0.00  0.00    +0.192 A 
ATOM      3  N   UNL     1       1.220   0.235   2.365  0.00  0.00    -0.207 NA
ATOM      4  C   UNL     1       2.026  -0.311   3.273  0.00  0.00    +0.122 A 
ATOM      5  C   UNL     1       1.752  -0.121   4.624  0.00  0.00    +0.086 A 
ATOM      6  C   UNL     1       0.642   0.642   4.974  0.00  0.00    +0.122 A 
ATOM      7  N   UNL     1      -0.117   1.162   4.012  0.00  0.00    -0.207 NA
ATOM      8  N   UNL     1       3.121  -1.063   2.877  0.00  0.00    -0.343 N 
ATOM      9  H   UNL     1       3.702  -1.461   3.544  0.00  0.00    +0.144 HD
ATOM     10  H   UNL     1       3.306  -1.191   1.933  0.00  0.00    +0.144 HD
BRANCH   6  11
ATOM     11  N   UNL     1       0.330   0.858   6.308  0.00  0.00    -0.343 N 
ATOM     12  H   UNL     1      -0.445   1.391   6.545  0.00  0.00    +0.144 HD
ATOM     13  H   UNL     1       0.888   0.476   7.004  0.00  0.00    +0.144 HD
ENDBRANCH   6  11
ENDBRANCH   1   2
BRANCH   1  14
ATOM     14  C   UNL     1      -0.013   1.086   0.008  0.00  0.00    +0.116 C 
BRANCH  14  17
ATOM     15  C   UNL     1      -1.069   3.260  -2.897  0.00  0.00    +0.134 A 
ATOM     16  C   UNL     1      -0.398   2.800  -1.774  0.00  0.00    +0.054 A 
ATOM     17  C   UNL     1      -0.742   1.585  -1.213  0.00  0.00    +0.008 A 
ATOM     18  C   UNL     1      -1.753   0.822  -1.777  0.00  0.00    +0.125 A 
ATOM     19  C   UNL     1      -2.428   1.283  -2.897  0.00  0.00    +0.064 A 
ATOM     20  C   UNL     1      -2.084   2.499  -3.458  0.00  0.00    +0.063 A 
ATOM     21 BR   UNL     1      -2.998   3.125  -4.991  0.00  0.00    -0.046 Br
BRANCH  15  23
ATOM     22  C   UNL     1       0.323   5.186  -2.818  0.00  0.00    +0.277 C 
ATOM     23  O   UNL     1      -0.731   4.456  -3.448  0.00  0.00    -0.494 OA
ENDBRANCH  15  23
BRANCH  18  24
ATOM     24  O   UNL     1      -2.087  -0.377  -1.228  0.00  0.00    -0.495 OA
ATOM     25  C   UNL     1      -3.139  -1.109  -1.860  0.00  0.00    +0.277 C 
ENDBRANCH  18  24
ENDBRANCH  14  17
ENDBRANCH   1  14
TORSDOF 6
