REMARK  Name = ZINC56958583
REMARK  3 active torsions:
REMARK  status: ('A' for Active; 'I' for Inactive)
REMARK    1  A    between atoms: C_3  and  C_9
REMARK    2  A    between atoms: C_6  and  C_7
REMARK    3  A    between atoms: C_14  and  C_16
REMARK                            x       y       z     vdW  Elec       q    Type
REMARK                         _______ _______ _______ _____ _____    ______ ____
ROOT
ATOM      1  C   UNL     1       3.701   3.020  -1.182  0.00  0.00    +0.014 C 
ATOM      2  C   UNL     1       3.381   3.275   0.306  0.00  0.00    -0.074 C 
ATOM      3  N   UNL     1       4.469   2.586   1.047  0.00  0.00    +0.380 N 
ATOM      4  C   UNL     1       4.685   1.326   0.289  0.00  0.00    -0.067 C 
ATOM      5  C   UNL     1       4.560   1.739  -1.196  0.00  0.00    +0.091 C 
ATOM      6  H   UNL     1       5.307   3.147   1.045  0.00  0.00    -0.086 HD
ATOM      7  H   UNL     1       4.179   2.383   1.992  0.00  0.00    -0.086 HD
ENDROOT
BRANCH   1  10
ATOM      8  C   UNL     1       0.283   1.766  -2.173  0.00  0.00    +0.019 A 
ATOM      9  C   UNL     1       1.449   1.966  -1.464  0.00  0.00    +0.005 A 
ATOM     10  C   UNL     1       2.430   2.806  -1.962  0.00  0.00    -0.045 A 
ATOM     11  C   UNL     1       2.248   3.451  -3.173  0.00  0.00    +0.005 A 
ATOM     12  C   UNL     1       1.086   3.260  -3.892  0.00  0.00    +0.019 A 
ATOM     13  C   UNL     1       0.093   2.413  -3.395  0.00  0.00    +0.052 A 
BRANCH  13  14
ATOM     14  C   UNL     1      -1.115   2.209  -4.137  0.00  0.00    +0.099 C 
ATOM     15  N   UNL     1      -2.074   2.048  -4.725  0.00  0.00    -0.191 NA
ENDBRANCH  13  14
ENDBRANCH   1  10
BRANCH   5  16
ATOM     16  C   UNL     1       3.871   0.655  -1.985  0.00  0.00    +0.358 C 
ATOM     17  O   UNL     1       4.018   0.595  -3.194  0.00  0.00    -0.246 OA
ATOM     18  O   UNL     1       3.168  -0.161  -1.415  0.00  0.00    -0.246 OA
ENDBRANCH   5  16
TORSDOF 3
