REMARK  Name = ZINC00642633
REMARK  9 active torsions:
REMARK  status: ('A' for Active; 'I' for Inactive)
REMARK    1  A    between atoms: C_1  and  C_2
REMARK    2  A    between atoms: C_3  and  C_23
REMARK    3  A    between atoms: C_4  and  C_15
REMARK    4  A    between atoms: C_7  and  N_14
REMARK    5  A    between atoms: C_8  and  C_12
REMARK    6  A    between atoms: C_19  and  O_21
REMARK    7  A    between atoms: O_21  and  C_22
REMARK    8  A    between atoms: C_23  and  O_25
REMARK    9  A    between atoms: O_25  and  C_26
REMARK                            x       y       z     vdW  Elec       q    Type
REMARK                         _______ _______ _______ _____ _____    ______ ____
ROOT
ATOM      1  C   UNL     1      -0.018   1.503   0.010  0.00  0.00    +0.066 C 
ATOM      2  C   UNL     1       0.002  -0.004   0.002  0.00  0.00    +0.053 C 
ATOM      3  C   UNL     1      -1.186  -0.705   0.004  0.00  0.00    +0.083 C 
ATOM      4  C   UNL     1      -1.115  -2.216  -0.005  0.00  0.00    +0.151 C 
ATOM      5  N   UNL     1       0.240  -2.829  -0.015  0.00  0.00    -0.255 N 
ATOM      6  C   UNL     1       0.533  -4.162  -0.024  0.00  0.00    +0.115 C 
ATOM      7  C   UNL     1       1.853  -4.520  -0.032  0.00  0.00    +0.127 C 
ATOM      8  S   UNL     1       2.659  -2.931  -0.027  0.00  0.00    -0.040 S 
ATOM      9  C   UNL     1       1.294  -1.954  -0.015  0.00  0.00    +0.168 C 
ATOM     10  N   UNL     1       1.160  -0.646  -0.013  0.00  0.00    -0.230 NA
ENDROOT
BRANCH   4  11
ATOM     11  C   UNL     1      -1.844  -2.721   1.214  0.00  0.00    -0.019 A 
ATOM     12  C   UNL     1      -1.219  -2.708   2.447  0.00  0.00    +0.006 A 
ATOM     13  C   UNL     1      -1.885  -3.171   3.567  0.00  0.00    +0.004 A 
ATOM     14  C   UNL     1      -3.176  -3.649   3.456  0.00  0.00    +0.045 A 
ATOM     15  C   UNL     1      -3.805  -3.664   2.219  0.00  0.00    +0.120 A 
ATOM     16  C   UNL     1      -3.137  -3.192   1.098  0.00  0.00    +0.051 A 
BRANCH  15  17
ATOM     17  O   UNL     1      -5.076  -4.133   2.107  0.00  0.00    -0.495 OA
ATOM     18  C   UNL     1      -5.704  -4.596   3.304  0.00  0.00    +0.277 C 
ENDBRANCH  15  17
ENDBRANCH   4  11
BRANCH   6  19
ATOM     19  N   UNL     1      -0.466  -5.114  -0.024  0.00  0.00    -0.345 N 
ATOM     20  H   UNL     1      -1.397  -4.840  -0.017  0.00  0.00    +0.144 HD
ATOM     21  H   UNL     1      -0.238  -6.057  -0.030  0.00  0.00    +0.144 HD
ENDBRANCH   6  19
BRANCH   7  22
ATOM     22  C   UNL     1       2.434  -5.829  -0.043  0.00  0.00    +0.110 C 
ATOM     23  N   UNL     1       2.896  -6.867  -0.051  0.00  0.00    -0.190 NA
ENDBRANCH   7  22
BRANCH   3  24
ATOM     24  C   UNL     1      -2.420  -0.039   0.014  0.00  0.00    +0.339 C 
ATOM     25  O   UNL     1      -2.454   1.179   0.021  0.00  0.00    -0.245 OA
BRANCH  24  26
ATOM     26  O   UNL     1      -3.570  -0.747   0.016  0.00  0.00    -0.465 OA
ATOM     27  C   UNL     1      -4.790  -0.003   0.026  0.00  0.00    +0.280 C 
ENDBRANCH  24  26
ENDBRANCH   3  24
TORSDOF 6
