REMARK  Name = ZINC59842451
REMARK  6 active torsions:
REMARK  status: ('A' for Active; 'I' for Inactive)
REMARK    1  A    between atoms: C_4  and  C_7
REMARK    2  A    between atoms: C_7  and  C_9
REMARK    3  A    between atoms: C_7  and  S_20
REMARK    4  A    between atoms: N_11  and  C_12
REMARK    5  A    between atoms: C_15  and  C_18
REMARK    6  A    between atoms: S_20  and  C_21
REMARK                            x       y       z     vdW  Elec       q    Type
REMARK                         _______ _______ _______ _____ _____    ______ ____
ROOT
ATOM      1  C   UNL     1       3.718  -0.708  -0.039  0.00  0.00    +0.169 C 
ENDROOT
BRANCH   1   5
ATOM      2  C   UNL     1       0.006   1.406  -0.002  0.00  0.00    +0.000 A 
ATOM      3  C   UNL     1       1.199   2.104  -0.008  0.00  0.00    +0.000 A 
ATOM      4  C   UNL     1       2.400   1.420  -0.020  0.00  0.00    +0.005 A 
ATOM      5  C   UNL     1       2.408   0.038  -0.025  0.00  0.00    -0.025 A 
ATOM      6  C   UNL     1       1.215  -0.661  -0.017  0.00  0.00    +0.005 A 
ATOM      7  C   UNL     1       0.014   0.023  -0.007  0.00  0.00    +0.000 A 
ENDBRANCH   1   5
BRANCH   1   8
ATOM      8  C   UNL     1       3.813  -1.578   1.188  0.00  0.00    +0.235 C 
ATOM      9  O   UNL     1       3.568  -2.763   1.111  0.00  0.00    -0.274 OA
ATOM     10  N   UNL     1       4.172  -1.039   2.370  0.00  0.00    -0.284 N 
ATOM     11  H   UNL     1       4.433  -0.106   2.418  0.00  0.00    +0.155 HD
BRANCH  10  12
ATOM     12  C   UNL     1       4.168  -1.823   3.524  0.00  0.00    +0.033 A 
ATOM     13  C   UNL     1       4.526  -3.165   3.453  0.00  0.00    +0.024 A 
ATOM     14  C   UNL     1       4.523  -3.942   4.590  0.00  0.00    +0.020 A 
ATOM     15  C   UNL     1       4.159  -3.380   5.817  0.00  0.00    +0.052 A 
ATOM     16  C   UNL     1       3.799  -2.031   5.885  0.00  0.00    +0.020 A 
ATOM     17  C   UNL     1       3.810  -1.259   4.745  0.00  0.00    +0.024 A 
BRANCH  15  18
ATOM     18  C   UNL     1       4.153  -4.185   7.001  0.00  0.00    +0.099 C 
ATOM     19  N   UNL     1       4.149  -4.823   7.941  0.00  0.00    -0.191 NA
ENDBRANCH  15  18
ENDBRANCH  10  12
ENDBRANCH   1   8
BRANCH   1  20
ATOM     20  S   UNL     1       3.807  -1.745  -1.524  0.00  0.00    -0.079 S 
BRANCH  20  21
ATOM     21  C   UNL     1       3.832  -0.588  -2.852  0.00  0.00    +0.161 A 
ATOM     22  N   UNL     1       3.801   0.731  -2.812  0.00  0.00    -0.133 NA
ATOM     23  N   UNL     1       3.830   1.451  -3.984  0.00  0.00    -0.125 NA
ATOM     24  C   UNL     1       3.888   0.822  -5.141  0.00  0.00    +0.180 A 
ATOM     25  S   UNL     1       3.913  -0.884  -4.612  0.00  0.00    -0.025 S 
ATOM     26  N   UNL     1       3.926   1.345  -6.428  0.00  0.00    -0.336 N 
ATOM     27  H   UNL     1       3.910   2.306  -6.561  0.00  0.00    +0.144 HD
ATOM     28  H   UNL     1       3.968   0.750  -7.193  0.00  0.00    +0.144 HD
ENDBRANCH  20  21
ENDBRANCH   1  20
TORSDOF 6
