REMARK  Name = ZINC00856360
REMARK  8 active torsions:
REMARK  status: ('A' for Active; 'I' for Inactive)
REMARK    1  A    between atoms: C_4  and  N_7
REMARK    2  A    between atoms: N_7  and  N_8
REMARK    3  A    between atoms: N_8  and  S_9
REMARK    4  A    between atoms: S_9  and  C_12
REMARK    5  A    between atoms: C_23  and  S_25
REMARK    6  A    between atoms: S_25  and  N_28
REMARK    7  A    between atoms: N_28  and  N_29
REMARK    8  A    between atoms: N_29  and  C_30
REMARK                            x       y       z     vdW  Elec       q    Type
REMARK                         _______ _______ _______ _____ _____    ______ ____
ROOT
ATOM      1  C   UNL     1      -0.954   1.915  -1.397  0.00  0.00    +0.107 A 
ATOM      2  C   UNL     1      -0.758   3.169  -1.948  0.00  0.00    +0.029 A 
ATOM      3  C   UNL     1      -1.487   3.566  -3.049  0.00  0.00    +0.011 A 
ATOM      4  C   UNL     1      -2.428   2.700  -3.611  0.00  0.00    -0.014 A 
ATOM      5  C   UNL     1      -2.618   1.441  -3.050  0.00  0.00    -0.033 A 
ATOM      6  C   UNL     1      -1.880   1.051  -1.952  0.00  0.00    +0.033 A 
ATOM      7  C   UNL     1      -3.682   0.739  -3.857  0.00  0.00    +0.071 C 
ATOM      8  C   UNL     1      -4.090   1.707  -4.940  0.00  0.00    -0.033 A 
ATOM      9  C   UNL     1      -3.334   2.864  -4.775  0.00  0.00    -0.014 A 
ATOM     10  C   UNL     1      -3.517   3.932  -5.655  0.00  0.00    +0.011 A 
ATOM     11  C   UNL     1      -4.440   3.834  -6.675  0.00  0.00    +0.029 A 
ATOM     12  C   UNL     1      -5.187   2.680  -6.831  0.00  0.00    +0.107 A 
ATOM     13  C   UNL     1      -5.011   1.618  -5.963  0.00  0.00    +0.033 A 
ENDROOT
BRANCH   1  14
ATOM     14  S   UNL     1      -0.017   1.417   0.010  0.00  0.00    +0.073 S 
ATOM     15  O   UNL     1       0.002  -0.004   0.002  0.00  0.00    -0.152 OA
ATOM     16  O   UNL     1       1.172   2.195   0.003  0.00  0.00    -0.152 OA
BRANCH  14  17
ATOM     17  N   UNL     1      -0.872   1.871   1.353  0.00  0.00    -0.110 NA
ATOM     18  H   UNL     1      -0.480   2.486   1.993  0.00  0.00    +0.172 HD
BRANCH  17  19
ATOM     19  N   UNL     1      -2.162   1.367   1.567  0.00  0.00    -0.262 N 
ATOM     20  H   UNL     1      -2.842   1.470   0.883  0.00  0.00    +0.168 HD
BRANCH  19  24
ATOM     21  C   UNL     1      -3.073  -0.577   5.134  0.00  0.00    +0.000 A 
ATOM     22  C   UNL     1      -4.044  -0.430   4.161  0.00  0.00    +0.002 A 
ATOM     23  C   UNL     1      -3.745   0.214   2.977  0.00  0.00    +0.024 A 
ATOM     24  C   UNL     1      -2.467   0.715   2.764  0.00  0.00    +0.043 A 
ATOM     25  C   UNL     1      -1.492   0.561   3.741  0.00  0.00    +0.024 A 
ATOM     26  C   UNL     1      -1.799  -0.080   4.925  0.00  0.00    +0.002 A 
ENDBRANCH  19  24
ENDBRANCH  17  19
ENDBRANCH  14  17
ENDBRANCH   1  14
BRANCH  12  27
ATOM     27  S   UNL     1      -6.364   2.563  -8.137  0.00  0.00    +0.073 S 
ATOM     28  O   UNL     1      -5.949   3.481  -9.140  0.00  0.00    -0.152 OA
ATOM     29  O   UNL     1      -6.543   1.178  -8.400  0.00  0.00    -0.152 OA
BRANCH  27  30
ATOM     30  N   UNL     1      -7.806   3.125  -7.549  0.00  0.00    -0.110 NA
ATOM     31  H   UNL     1      -8.582   2.543  -7.532  0.00  0.00    +0.172 HD
BRANCH  30  32
ATOM     32  N   UNL     1      -7.905   4.439  -7.075  0.00  0.00    -0.262 N 
ATOM     33  H   UNL     1      -7.301   4.753  -6.384  0.00  0.00    +0.168 HD
BRANCH  32  34
ATOM     34  C   UNL     1      -8.875   5.298  -7.597  0.00  0.00    +0.043 A 
ATOM     35  C   UNL     1      -9.737   4.853  -8.590  0.00  0.00    +0.024 A 
ATOM     36  C   UNL     1     -10.698   5.704  -9.101  0.00  0.00    +0.002 A 
ATOM     37  C   UNL     1     -10.794   7.001  -8.632  0.00  0.00    +0.000 A 
ATOM     38  C   UNL     1      -9.934   7.449  -7.646  0.00  0.00    +0.002 A 
ATOM     39  C   UNL     1      -8.975   6.602  -7.128  0.00  0.00    +0.024 A 
ENDBRANCH  32  34
ENDBRANCH  30  32
ENDBRANCH  27  30
ENDBRANCH  12  27
TORSDOF 8
