REMARK  Name = ZINC06162457
REMARK  8 active torsions:
REMARK  status: ('A' for Active; 'I' for Inactive)
REMARK    1  A    between atoms: C_1  and  C_2
REMARK    2  A    between atoms: C_2  and  C_3
REMARK    3  A    between atoms: C_3  and  O_4
REMARK    4  A    between atoms: O_4  and  C_5
REMARK    5  A    between atoms: C_8  and  C_11
REMARK    6  A    between atoms: C_14  and  C_25
REMARK    7  A    between atoms: C_20  and  N_24
REMARK    8  A    between atoms: C_21  and  C_22
REMARK                            x       y       z     vdW  Elec       q    Type
REMARK                         _______ _______ _______ _____ _____    ______ ____
ROOT
ATOM      1  C   UNL     1      -6.397  -4.588   0.038  0.00  0.00    +0.102 C 
ATOM      2  C   UNL     1      -6.519  -5.462  -1.183  0.00  0.00    +0.055 A 
ATOM      3  C   UNL     1      -6.711  -5.095  -2.520  0.00  0.00    +0.107 A 
ATOM      4  N   UNL     1      -6.756  -6.200  -3.242  0.00  0.00    -0.170 NA
ATOM      5  N   UNL     1      -6.595  -7.297  -2.381  0.00  0.00    -0.246 N 
ATOM      6  H   UNL     1      -6.587  -8.231  -2.642  0.00  0.00    +0.192 HD
ATOM      7  C   UNL     1      -6.452  -6.824  -1.125  0.00  0.00    +0.223 A 
ATOM      8  O   UNL     1      -6.272  -7.499   0.038  0.00  0.00    -0.423 OA
ATOM      9  C   UNL     1      -6.432  -6.815   1.189  0.00  0.00    +0.200 C 
ATOM     10  C   UNL     1      -6.502  -5.466   1.260  0.00  0.00    +0.098 C 
ENDROOT
BRANCH   1  14
ATOM     11  C   UNL     1      -2.616  -2.596   0.013  0.00  0.00    +0.121 A 
ATOM     12  C   UNL     1      -3.791  -1.857   0.022  0.00  0.00    +0.046 A 
ATOM     13  C   UNL     1      -5.012  -2.504   0.030  0.00  0.00    +0.008 A 
ATOM     14  C   UNL     1      -5.064  -3.885   0.029  0.00  0.00    -0.034 A 
ATOM     15  C   UNL     1      -3.895  -4.624   0.020  0.00  0.00    +0.008 A 
ATOM     16  C   UNL     1      -2.671  -3.982   0.006  0.00  0.00    +0.046 A 
BRANCH  11  17
ATOM     17  O   UNL     1      -1.414  -1.962   0.005  0.00  0.00    -0.492 OA
BRANCH  17  18
ATOM     18  C   UNL     1      -1.433  -0.534   0.013  0.00  0.00    +0.229 C 
BRANCH  18  20
ATOM     19  C   UNL     1      -0.019   1.526   0.010  0.00  0.00    +0.007 C 
ATOM     20  C   UNL     1       0.002  -0.004   0.002  0.00  0.00    +0.038 C 
ENDBRANCH  18  20
ENDBRANCH  17  18
ENDBRANCH  11  17
ENDBRANCH   1  14
BRANCH   3  21
ATOM     21  C   UNL     1      -6.841  -3.714  -3.033  0.00  0.00    +0.040 A 
ATOM     22  C   UNL     1      -6.409  -3.192  -4.223  0.00  0.00    +0.018 A 
ATOM     23  C   UNL     1      -6.646  -1.860  -4.487  0.00  0.00    +0.008 A 
ATOM     24  C   UNL     1      -7.297  -1.108  -3.563  0.00  0.00    +0.046 A 
ATOM     25  S   UNL     1      -7.607  -2.295  -2.266  0.00  0.00    -0.095 S 
ENDBRANCH   3  21
BRANCH   9  26
ATOM     26  N   UNL     1      -6.533  -7.529   2.357  0.00  0.00    -0.328 N 
ATOM     27  H   UNL     1      -6.488  -8.498   2.338  0.00  0.00    +0.145 HD
ATOM     28  H   UNL     1      -6.649  -7.065   3.201  0.00  0.00    +0.145 HD
ENDBRANCH   9  26
BRANCH  10  29
ATOM     29  C   UNL     1      -6.679  -4.849   2.540  0.00  0.00    +0.101 C 
ATOM     30  N   UNL     1      -6.819  -4.359   3.555  0.00  0.00    -0.191 NA
ENDBRANCH  10  29
TORSDOF 7
