REMARK  Name = ZINC20907531
REMARK  8 active torsions:
REMARK  status: ('A' for Active; 'I' for Inactive)
REMARK    1  A    between atoms: C_9  and  O_32
REMARK    2  A    between atoms: C_10  and  C_11
REMARK    3  A    between atoms: N_12  and  N_13
REMARK    4  A    between atoms: C_16  and  S_19
REMARK    5  A    between atoms: S_19  and  C_20
REMARK    6  A    between atoms: C_20  and  C_21
REMARK    7  A    between atoms: C_21  and  C_22
REMARK    8  A    between atoms: N_24  and  C_25
REMARK                            x       y       z     vdW  Elec       q    Type
REMARK                         _______ _______ _______ _____ _____    ______ ____
ROOT
ATOM      1  N   UNL     1      -2.574   8.058   0.059  0.00  0.00    -0.205 N 
ATOM      2  C   UNL     1      -2.565   9.445   0.068  0.00  0.00    +0.232 A 
ATOM      3  N   UNL     1      -3.666  10.256   0.075  0.00  0.00    -0.186 NA
ATOM      4  C   UNL     1      -3.235  11.552   0.082  0.00  0.00    +0.210 A 
ATOM      5  N   UNL     1      -1.923  11.544   0.080  0.00  0.00    -0.144 NA
ATOM      6  N   UNL     1      -1.499  10.209   0.077  0.00  0.00    -0.245 N 
ATOM      7  H   UNL     1      -3.530   7.514   0.058  0.00  0.00    +0.177 HD
ATOM      8  H   UNL     1      -0.497   9.755   0.080  0.00  0.00    +0.192 HD
ENDROOT
BRANCH   1  10
ATOM      9  C   UNL     1      -1.374   6.049   0.045  0.00  0.00    +0.142 C 
ATOM     10  N   UNL     1      -1.366   7.350   0.053  0.00  0.00    -0.187 NA
BRANCH   9  20
ATOM     11  C   UNL     1      -0.014   1.075   0.012  0.00  0.00    +0.001 A 
ATOM     12  C   UNL     1      -1.236   1.745   0.013  0.00  0.00    +0.001 A 
ATOM     13  C   UNL     1      -1.288   3.107   0.026  0.00  0.00    +0.009 A 
ATOM     14  C   UNL     1      -0.098   3.845   0.029  0.00  0.00    -0.006 A 
ATOM     15  C   UNL     1       1.146   3.167   0.022  0.00  0.00    -0.017 A 
ATOM     16  C   UNL     1       1.161   1.762   0.013  0.00  0.00    +0.008 A 
ATOM     17  C   UNL     1       2.340   3.910   0.024  0.00  0.00    +0.012 A 
ATOM     18  C   UNL     1       2.313   5.269   0.033  0.00  0.00    +0.046 A 
ATOM     19  C   UNL     1       1.115   5.980   0.040  0.00  0.00    +0.126 A 
ATOM     20  C   UNL     1      -0.106   5.306   0.038  0.00  0.00    +0.044 A 
BRANCH  19  21
ATOM     21  O   UNL     1       1.136   7.338   0.049  0.00  0.00    -0.506 OA
ATOM     22  H   UNL     1       0.192   7.903   0.054  0.00  0.00    +0.292 HD
ENDBRANCH  19  21
ENDBRANCH   9  20
ENDBRANCH   1  10
BRANCH   4  23
ATOM     23  S   UNL     1      -4.261  12.985   0.093  0.00  0.00    -0.084 S 
BRANCH  23  24
ATOM     24  C   UNL     1      -3.086  14.367   0.099  0.00  0.00    +0.086 C 
BRANCH  24  25
ATOM     25  C   UNL     1      -3.855  15.690   0.109  0.00  0.00    +0.107 C 
BRANCH  25  26
ATOM     26  C   UNL     1      -2.878  16.837   0.114  0.00  0.00    +0.218 C 
ATOM     27  O   UNL     1      -1.685  16.619   0.111  0.00  0.00    -0.275 OA
ATOM     28  N   UNL     1      -3.331  18.107   0.123  0.00  0.00    -0.285 N 
ATOM     29  H   UNL     1      -4.410  18.307   0.049  0.00  0.00    +0.155 HD
BRANCH  28  30
ATOM     30  C   UNL     1      -2.428  19.171   0.226  0.00  0.00    +0.033 A 
ATOM     31  C   UNL     1      -2.780  20.317   0.926  0.00  0.00    +0.025 A 
ATOM     32  C   UNL     1      -1.885  21.364   1.030  0.00  0.00    +0.022 A 
ATOM     33  C   UNL     1      -0.643  21.276   0.428  0.00  0.00    +0.041 A 
ATOM     34  C   UNL     1      -0.291  20.137  -0.275  0.00  0.00    +0.022 A 
ATOM     35  C   UNL     1      -1.180  19.085  -0.377  0.00  0.00    +0.025 A 
ATOM     36 CL   UNL     1       0.478  22.596   0.556  0.00  0.00    -0.084 Cl
ENDBRANCH  28  30
ENDBRANCH  25  26
ENDBRANCH  24  25
ENDBRANCH  23  24
ENDBRANCH   4  23
TORSDOF 8
