REMARK  Name = ZINC40799766
REMARK  8 active torsions:
REMARK  status: ('A' for Active; 'I' for Inactive)
REMARK    1  A    between atoms: C_3  and  O_27
REMARK    2  A    between atoms: C_6  and  N_7
REMARK    3  A    between atoms: C_9  and  N_26
REMARK    4  A    between atoms: C_10  and  N_14
REMARK    5  A    between atoms: N_14  and  C_15
REMARK    6  A    between atoms: C_18  and  O_21
REMARK    7  A    between atoms: O_21  and  C_22
REMARK    8  A    between atoms: O_27  and  C_28
REMARK                            x       y       z     vdW  Elec       q    Type
REMARK                         _______ _______ _______ _____ _____    ______ ____
ROOT
ATOM      1  N   UNL     1      -1.165  -0.719  -0.321  0.00  0.00    -0.298 N 
ATOM      2  C   UNL     1      -1.164  -2.105  -0.431  0.00  0.00    +0.149 A 
ATOM      3  C   UNL     1      -2.360  -2.822  -0.365  0.00  0.00    +0.106 A 
ATOM      4  C   UNL     1      -2.302  -4.212  -0.482  0.00  0.00    +0.149 A 
ATOM      5  N   UNL     1      -1.118  -4.796  -0.652  0.00  0.00    -0.219 NA
ATOM      6  C   UNL     1      -0.013  -4.082  -0.709  0.00  0.00    +0.225 A 
ATOM      7  N   UNL     1      -0.024  -2.768  -0.609  0.00  0.00    -0.219 NA
ATOM      8  H   UNL     1      -1.990  -0.249  -0.121  0.00  0.00    +0.154 HD
ENDROOT
BRANCH   1  14
ATOM      9  C   UNL     1       0.985  -0.459  -1.389  0.00  0.00    +0.027 A 
ATOM     10  C   UNL     1       2.158   0.250  -1.562  0.00  0.00    +0.048 A 
ATOM     11  C   UNL     1       2.376   1.417  -0.845  0.00  0.00    +0.130 A 
ATOM     12  C   UNL     1       1.417   1.874   0.046  0.00  0.00    +0.048 A 
ATOM     13  C   UNL     1       0.243   1.167   0.221  0.00  0.00    +0.027 A 
ATOM     14  C   UNL     1       0.024  -0.002  -0.496  0.00  0.00    +0.033 A 
BRANCH  11  15
ATOM     15  O   UNL     1       3.532   2.113  -1.016  0.00  0.00    -0.406 OA
BRANCH  15  16
ATOM     16  C   UNL     1       3.690   3.306  -0.245  0.00  0.00    +0.575 C 
ATOM     17  F   UNL     1       3.638   2.992   1.117  0.00  0.00    -0.133 F 
ATOM     18  F   UNL     1       4.925   3.893  -0.542  0.00  0.00    -0.133 F 
ATOM     19  F   UNL     1       2.662   4.202  -0.556  0.00  0.00    -0.133 F 
ENDBRANCH  15  16
ENDBRANCH  11  15
ENDBRANCH   1  14
BRANCH   3  20
ATOM     20  N   UNL     1      -3.587  -2.164  -0.184  0.00  0.00    -0.353 N 
ATOM     21  H   UNL     1      -3.612  -1.198  -0.104  0.00  0.00    +0.143 HD
ATOM     22  H   UNL     1      -4.410  -2.675  -0.140  0.00  0.00    +0.143 HD
ENDBRANCH   3  20
BRANCH   4  23
ATOM     23  N   UNL     1      -3.463  -4.975  -0.422  0.00  0.00    -0.298 N 
ATOM     24  H   UNL     1      -4.328  -4.538  -0.377  0.00  0.00    +0.154 HD
BRANCH  23  25
ATOM     25  C   UNL     1      -3.384  -6.372  -0.427  0.00  0.00    +0.033 A 
ATOM     26  C   UNL     1      -4.382  -7.123  -1.034  0.00  0.00    +0.027 A 
ATOM     27  C   UNL     1      -4.303  -8.501  -1.039  0.00  0.00    +0.048 A 
ATOM     28  C   UNL     1      -3.227  -9.136  -0.437  0.00  0.00    +0.130 A 
ATOM     29  C   UNL     1      -2.229  -8.388   0.170  0.00  0.00    +0.048 A 
ATOM     30  C   UNL     1      -2.304  -7.009   0.170  0.00  0.00    +0.027 A 
BRANCH  28  31
ATOM     31  O   UNL     1      -3.149 -10.494  -0.442  0.00  0.00    -0.406 OA
BRANCH  31  32
ATOM     32  C   UNL     1      -2.014 -11.082   0.196  0.00  0.00    +0.575 C 
ATOM     33  F   UNL     1      -1.991 -10.709   1.544  0.00  0.00    -0.133 F 
ATOM     34  F   UNL     1      -2.093 -12.475   0.099  0.00  0.00    -0.133 F 
ATOM     35  F   UNL     1      -0.845 -10.637  -0.431  0.00  0.00    -0.133 F 
ENDBRANCH  31  32
ENDBRANCH  28  31
ENDBRANCH  23  25
ENDBRANCH   4  23
TORSDOF 8
