REMARK  Name = ZINC24902450
REMARK  11 active torsions:
REMARK  status: ('A' for Active; 'I' for Inactive)
REMARK    1  A    between atoms: C_1  and  C_2
REMARK    2  A    between atoms: C_2  and  O_3
REMARK    3  A    between atoms: O_3  and  C_4
REMARK    4  A    between atoms: C_4  and  C_6
REMARK    5  A    between atoms: C_7  and  C_21
REMARK    6  A    between atoms: C_12  and  C_14
REMARK    7  A    between atoms: C_21  and  S_22
REMARK    8  A    between atoms: S_22  and  C_23
REMARK    9  A    between atoms: C_25  and  C_32
REMARK   10  A    between atoms: C_26  and  C_28
REMARK   11  A    between atoms: C_28  and  C_29
REMARK                            x       y       z     vdW  Elec       q    Type
REMARK                         _______ _______ _______ _____ _____    ______ ____
ROOT
ATOM      1  C   UNL     1      -0.583   1.627   1.302  0.00  0.00    +0.079 C 
ATOM      2  C   UNL     1      -1.727   2.341   1.234  0.00  0.00    +0.034 C 
ATOM      3  N   UNL     1      -2.313   2.619   0.033  0.00  0.00    -0.272 N 
ATOM      4  C   UNL     1      -1.819   2.219  -1.145  0.00  0.00    +0.304 C 
ATOM      5  O   UNL     1      -2.413   2.515  -2.164  0.00  0.00    -0.252 OA
ATOM      6  N   UNL     1      -0.685   1.498  -1.239  0.00  0.00    -0.288 N 
ATOM      7  C   UNL     1       0.026   1.145   0.001  0.00  0.00    +0.144 C 
ATOM      8  H   UNL     1      -3.245   3.203  -0.002  0.00  0.00    +0.156 HD
ATOM      9  H   UNL     1      -0.288   1.173  -2.212  0.00  0.00    +0.151 HD
ENDROOT
BRANCH   7  10
ATOM     10  C   UNL     1       1.424   1.700  -0.091  0.00  0.00    -0.022 A 
ATOM     11  C   UNL     1       1.629   2.979  -0.575  0.00  0.00    +0.007 A 
ATOM     12  C   UNL     1       2.911   3.491  -0.655  0.00  0.00    +0.020 A 
ATOM     13  C   UNL     1       3.989   2.720  -0.260  0.00  0.00    +0.041 A 
ATOM     14  C   UNL     1       3.784   1.438   0.219  0.00  0.00    +0.020 A 
ATOM     15  C   UNL     1       2.502   0.929   0.304  0.00  0.00    +0.007 A 
ATOM     16 CL   UNL     1       5.599   3.359  -0.367  0.00  0.00    -0.084 Cl
ENDBRANCH   7  10
BRANCH   1  17
ATOM     17  C   UNL     1       0.026   1.339   2.546  0.00  0.00    +0.339 C 
ATOM     18  O   UNL     1      -0.106   0.238   3.048  0.00  0.00    -0.245 OA
BRANCH  17  19
ATOM     19  O   UNL     1       0.754   2.284   3.176  0.00  0.00    -0.462 OA
BRANCH  19  21
ATOM     20  C   UNL     1       2.122   3.115   4.987  0.00  0.00    +0.048 C 
ATOM     21  C   UNL     1       1.341   1.924   4.428  0.00  0.00    +0.229 C 
ENDBRANCH  19  21
ENDBRANCH  17  19
ENDBRANCH   1  17
BRANCH   2  22
ATOM     22  C   UNL     1      -2.366   2.839   2.505  0.00  0.00    +0.127 C 
BRANCH  22  23
ATOM     23  S   UNL     1      -2.061   4.615   2.678  0.00  0.00    -0.093 S 
BRANCH  23  24
ATOM     24  C   UNL     1      -2.894   4.921   4.200  0.00  0.00    +0.135 A 
ATOM     25  N   UNL     1      -3.553   4.076   4.970  0.00  0.00    -0.238 NA
ATOM     26  C   UNL     1      -4.121   4.475   6.092  0.00  0.00    +0.050 A 
ATOM     27  C   UNL     1      -4.025   5.781   6.436  0.00  0.00    +0.022 A 
ATOM     28  S   UNL     1      -3.066   6.416   5.068  0.00  0.00    -0.065 S 
ATOM     29  C   UNL     1      -4.867   3.501   6.967  0.00  0.00    +0.066 C 
BRANCH  27  30
ATOM     30  C   UNL     1      -4.574   6.502   7.640  0.00  0.00    +0.139 C 
BRANCH  30  31
ATOM     31  C   UNL     1      -3.559   6.466   8.753  0.00  0.00    +0.215 C 
ATOM     32  O   UNL     1      -2.494   5.910   8.585  0.00  0.00    -0.276 OA
ATOM     33  N   UNL     1      -3.834   7.051   9.936  0.00  0.00    -0.329 N 
ATOM     34  H   UNL     1      -3.093   7.025  10.748  0.00  0.00    +0.145 HD
ATOM     35  H   UNL     1      -4.800   7.555  10.088  0.00  0.00    +0.145 HD
ENDBRANCH  30  31
ENDBRANCH  27  30
ENDBRANCH  23  24
ENDBRANCH  22  23
ENDBRANCH   2  22
TORSDOF 9
