REMARK  Name = ZINC19075165
REMARK  6 active torsions:
REMARK  status: ('A' for Active; 'I' for Inactive)
REMARK    1  A    between atoms: C_4  and  N_8
REMARK    2  A    between atoms: N_11  and  C_12
REMARK    3  A    between atoms: C_12  and  C_13
REMARK    4  A    between atoms: C_18  and  C_21
REMARK    5  A    between atoms: C_21  and  N_22
REMARK    6  A    between atoms: N_25  and  C_26
REMARK                            x       y       z     vdW  Elec       q    Type
REMARK                         _______ _______ _______ _____ _____    ______ ____
ROOT
ATOM      1  C   UNL     1       0.068   0.122  -0.409  0.00  0.00    +0.006 C 
ATOM      2  C   UNL     1       0.106   1.651  -0.413  0.00  0.00    +0.005 C 
ATOM      3  C   UNL     1       1.560   2.125  -0.375  0.00  0.00    +0.001 C 
ATOM      4  C   UNL     1       2.234   1.601   0.895  0.00  0.00    +0.005 C 
ATOM      5  C   UNL     1       2.196   0.072   0.898  0.00  0.00    +0.006 C 
ATOM      6  C   UNL     1       0.742  -0.402   0.860  0.00  0.00    +0.010 C 
ENDROOT
BRANCH   1   7
ATOM      7  C   UNL     1       0.810  -0.410  -1.637  0.00  0.00    +0.109 C 
BRANCH   7  11
ATOM      8  N   UNL     1      -0.088   0.004  -5.178  0.00  0.00    -0.267 N 
ATOM      9  C   UNL     1       0.569  -0.366  -4.061  0.00  0.00    +0.304 C 
ATOM     10  O   UNL     1       1.588  -1.024  -4.145  0.00  0.00    -0.253 OA
ATOM     11  N   UNL     1       0.096  -0.008  -2.851  0.00  0.00    -0.299 N 
ATOM     12  H   UNL     1      -0.936   0.469  -5.111  0.00  0.00    +0.156 HD
ATOM     13  H   UNL     1      -0.717   0.517  -2.784  0.00  0.00    +0.150 HD
BRANCH   8  17
ATOM     14  C   UNL     1       1.525  -0.849  -8.928  0.00  0.00    +0.041 A 
ATOM     15  C   UNL     1       0.814   0.320  -8.734  0.00  0.00    +0.043 A 
ATOM     16  C   UNL     1       0.273   0.604  -7.493  0.00  0.00    +0.145 A 
ATOM     17  C   UNL     1       0.455  -0.283  -6.438  0.00  0.00    +0.073 A 
ATOM     18  C   UNL     1       1.169  -1.456  -6.636  0.00  0.00    +0.064 A 
ATOM     19  C   UNL     1       1.704  -1.737  -7.881  0.00  0.00    +0.125 A 
ATOM     20  F   UNL     1       2.400  -2.878  -8.075  0.00  0.00    -0.205 F 
ATOM     21  F   UNL     1      -0.427   1.744  -7.305  0.00  0.00    -0.204 F 
ENDBRANCH   8  17
ENDBRANCH   7  11
ENDBRANCH   1   7
BRANCH   5  22
ATOM     22  C   UNL     1       2.870  -0.452   2.168  0.00  0.00    +0.109 C 
BRANCH  22  23
ATOM     23  N   UNL     1       4.292  -0.100   2.147  0.00  0.00    -0.299 N 
ATOM     24  C   UNL     1       5.091  -0.461   3.171  0.00  0.00    +0.304 C 
ATOM     25  O   UNL     1       4.632  -1.079   4.112  0.00  0.00    -0.253 OA
ATOM     26  N   UNL     1       6.399  -0.137   3.151  0.00  0.00    -0.267 N 
ATOM     27  H   UNL     1       4.659   0.393   1.396  0.00  0.00    +0.150 HD
ATOM     28  H   UNL     1       6.749   0.426   2.443  0.00  0.00    +0.156 HD
BRANCH  26  29
ATOM     29  C   UNL     1       7.254  -0.613   4.154  0.00  0.00    +0.073 A 
ATOM     30  C   UNL     1       6.937  -1.774   4.843  0.00  0.00    +0.064 A 
ATOM     31  C   UNL     1       7.783  -2.243   5.833  0.00  0.00    +0.125 A 
ATOM     32  C   UNL     1       8.945  -1.553   6.135  0.00  0.00    +0.041 A 
ATOM     33  C   UNL     1       9.264  -0.395   5.449  0.00  0.00    +0.043 A 
ATOM     34  C   UNL     1       8.424   0.074   4.456  0.00  0.00    +0.145 A 
ATOM     35  F   UNL     1       8.738   1.203   3.783  0.00  0.00    -0.204 F 
ATOM     36  F   UNL     1       7.475  -3.373   6.505  0.00  0.00    -0.205 F 
ENDBRANCH  26  29
ENDBRANCH  22  23
ENDBRANCH   5  22
TORSDOF 6
