REMARK  Name = ZINC17083503
REMARK  3 active torsions:
REMARK  status: ('A' for Active; 'I' for Inactive)
REMARK    1  A    between atoms: C_4  and  N_7
REMARK    2  A    between atoms: C_10  and  N_17
REMARK    3  A    between atoms: C_11  and  O_16
REMARK                            x       y       z     vdW  Elec       q    Type
REMARK                         _______ _______ _______ _____ _____    ______ ____
ROOT
ATOM      1  N   UNL     1       2.344  -0.011  -0.021  0.00  0.00    -0.227 N 
ATOM      2  C   UNL     1       2.323   1.241   0.478  0.00  0.00    +0.286 A 
ATOM      3  O   UNL     1       3.343   1.746   0.914  0.00  0.00    -0.265 OA
ATOM      4  C   UNL     1       1.112   1.962   0.492  0.00  0.00    +0.151 A 
ATOM      5  C   UNL     1      -0.015   1.373  -0.003  0.00  0.00    +0.221 A 
ATOM      6  N   UNL     1       0.054   0.094  -0.502  0.00  0.00    -0.277 N 
ATOM      7  H   UNL     1      -0.744  -0.329  -0.856  0.00  0.00    +0.173 HD
ATOM      8  C   UNL     1       1.222  -0.574  -0.504  0.00  0.00    +0.337 A 
ATOM      9  O   UNL     1       1.264  -1.705  -0.950  0.00  0.00    -0.246 OA
ENDROOT
BRANCH   1  13
ATOM     10  C   UNL     1       5.918  -2.156  -0.068  0.00  0.00    +0.000 A 
ATOM     11  C   UNL     1       5.077  -2.241   1.026  0.00  0.00    +0.002 A 
ATOM     12  C   UNL     1       3.892  -1.531   1.045  0.00  0.00    +0.026 A 
ATOM     13  C   UNL     1       3.546  -0.732  -0.037  0.00  0.00    +0.054 A 
ATOM     14  C   UNL     1       4.390  -0.653  -1.136  0.00  0.00    +0.026 A 
ATOM     15  C   UNL     1       5.576  -1.361  -1.147  0.00  0.00    +0.002 A 
ENDBRANCH   1  13
BRANCH   4  16
ATOM     16  N   UNL     1       1.067   3.276   1.011  0.00  0.00    -0.350 N 
ATOM     17  H   UNL     1       0.230   3.766   1.017  0.00  0.00    +0.143 HD
ATOM     18  H   UNL     1       1.872   3.687   1.361  0.00  0.00    +0.143 HD
ENDBRANCH   4  16
BRANCH   5  19
ATOM     19  O   UNL     1      -1.189   2.044  -0.007  0.00  0.00    -0.492 OA
ATOM     20  H   UNL     1      -1.927   1.544  -0.382  0.00  0.00    +0.294 HD
ENDBRANCH   5  19
TORSDOF 3
