REMARK  Name = ZINC00661009
REMARK  7 active torsions:
REMARK  status: ('A' for Active; 'I' for Inactive)
REMARK    1  A    between atoms: C_5  and  C_7
REMARK    2  A    between atoms: C_7  and  O_8
REMARK    3  A    between atoms: O_8  and  C_9
REMARK    4  A    between atoms: C_14  and  C_15
REMARK    5  A    between atoms: C_20  and  O_29
REMARK    6  A    between atoms: C_24  and  N_28
REMARK    7  A    between atoms: C_25  and  C_26
REMARK                            x       y       z     vdW  Elec       q    Type
REMARK                         _______ _______ _______ _____ _____    ______ ____
ROOT
ATOM      1  C   UNL     1       2.465   3.919  -0.002  0.00  0.00    +0.101 C 
ATOM      2  C   UNL     1       1.161   3.166   0.008  0.00  0.00    +0.008 A 
ATOM      3  C   UNL     1       1.174   1.783   0.000  0.00  0.00    +0.012 A 
ATOM      4  C   UNL     1      -0.013   1.076   0.008  0.00  0.00    +0.046 A 
ATOM      5  C   UNL     1      -1.224   1.754   0.017  0.00  0.00    +0.120 A 
ATOM      6  C   UNL     1      -1.240   3.139   0.031  0.00  0.00    +0.092 A 
ATOM      7  C   UNL     1      -0.046   3.848   0.023  0.00  0.00    +0.138 A 
ATOM      8  O   UNL     1      -0.079   5.204   0.031  0.00  0.00    -0.441 OA
ATOM      9  C   UNL     1       1.008   5.899   0.405  0.00  0.00    +0.199 C 
ATOM     10  C   UNL     1       2.245   5.346   0.412  0.00  0.00    +0.098 C 
ENDROOT
BRANCH   1  16
ATOM     11  C   UNL     1       4.296   3.317  -1.606  0.00  0.00    +0.125 A 
ATOM     12  C   UNL     1       4.832   3.289  -2.885  0.00  0.00    +0.047 A 
ATOM     13  C   UNL     1       4.123   3.827  -3.942  0.00  0.00    +0.019 A 
ATOM     14  C   UNL     1       2.880   4.395  -3.725  0.00  0.00    +0.018 A 
ATOM     15  C   UNL     1       2.342   4.419  -2.451  0.00  0.00    +0.023 A 
ATOM     16  C   UNL     1       3.050   3.887  -1.391  0.00  0.00    +0.008 A 
ATOM     17 BR   UNL     1       1.913   5.131  -5.173  0.00  0.00    -0.050 Br
BRANCH  11  18
ATOM     18  O   UNL     1       4.991   2.788  -0.565  0.00  0.00    -0.487 OA
BRANCH  18  19
ATOM     19  C   UNL     1       6.268   2.218  -0.861  0.00  0.00    +0.267 C 
BRANCH  19  24
ATOM     20  C   UNL     1       6.775   1.308   2.768  0.00  0.00    +0.001 A 
ATOM     21  C   UNL     1       8.020   0.707   2.732  0.00  0.00    +0.003 A 
ATOM     22  C   UNL     1       8.698   0.594   1.534  0.00  0.00    +0.039 A 
ATOM     23  C   UNL     1       8.132   1.083   0.369  0.00  0.00    +0.130 A 
ATOM     24  C   UNL     1       6.886   1.685   0.406  0.00  0.00    +0.025 A 
ATOM     25  C   UNL     1       6.211   1.802   1.607  0.00  0.00    +0.010 A 
ATOM     26  F   UNL     1       8.795   0.974  -0.803  0.00  0.00    -0.205 F 
ENDBRANCH  19  24
ENDBRANCH  18  19
ENDBRANCH  11  18
ENDBRANCH   1  16
BRANCH   9  27
ATOM     27  N   UNL     1       0.861   7.207   0.792  0.00  0.00    -0.328 N 
ATOM     28  H   UNL     1      -0.018   7.617   0.792  0.00  0.00    +0.145 HD
ATOM     29  H   UNL     1       1.637   7.722   1.065  0.00  0.00    +0.145 HD
ENDBRANCH   9  27
BRANCH  10  30
ATOM     30  C   UNL     1       3.365   6.139   0.823  0.00  0.00    +0.101 C 
ATOM     31  N   UNL     1       4.253   6.767   1.149  0.00  0.00    -0.191 NA
ENDBRANCH  10  30
BRANCH   5  32
ATOM     32  O   UNL     1      -2.392   1.059   0.019  0.00  0.00    -0.507 OA
ATOM     33  H   UNL     1      -2.726   0.854   0.903  0.00  0.00    +0.292 HD
ENDBRANCH   5  32
TORSDOF 7
