REMARK  Name = ZINC20331477
REMARK  3 active torsions:
REMARK  status: ('A' for Active; 'I' for Inactive)
REMARK    1  A    between atoms: C_4  and  N_7
REMARK    2  A    between atoms: C_8  and  C_10
REMARK    3  A    between atoms: N_29  and  C_32
REMARK                            x       y       z     vdW  Elec       q    Type
REMARK                         _______ _______ _______ _____ _____    ______ ____
ROOT
ATOM      1  C   UNL     1       4.942  -2.740   0.158  0.00  0.00    +0.172 C 
ATOM      2  C   UNL     1       5.578  -2.878  -1.241  0.00  0.00    +0.119 C 
ATOM      3  C   UNL     1       5.020  -4.234  -1.764  0.00  0.00    +0.115 C 
ATOM      4  C   UNL     1       4.625  -5.016  -0.510  0.00  0.00    +0.117 C 
ATOM      5  N   UNL     1       4.743  -4.102   0.646  0.00  0.00    -0.316 N 
ATOM      6  C   UNL     1       4.728  -4.549   1.959  0.00  0.00    +0.072 C 
ATOM      7  C   UNL     1       5.262  -5.765   2.187  0.00  0.00    +0.023 C 
ATOM      8  C   UNL     1       5.839  -6.525   1.059  0.00  0.00    -0.019 A 
ATOM      9  C   UNL     1       5.540  -6.192  -0.290  0.00  0.00    -0.019 A 
ATOM     10  C   UNL     1       6.051  -6.902  -1.352  0.00  0.00    +0.006 A 
ATOM     11  C   UNL     1       6.895  -7.976  -1.125  0.00  0.00    +0.000 A 
ATOM     12  C   UNL     1       7.229  -8.340   0.167  0.00  0.00    +0.001 A 
ATOM     13  C   UNL     1       6.698  -7.598   1.303  0.00  0.00    +0.008 A 
ATOM     14  C   UNL     1       3.786  -3.798  -2.528  0.00  0.00    +0.232 C 
ATOM     15  O   UNL     1       2.868  -4.517  -2.860  0.00  0.00    -0.274 OA
ATOM     16  N   UNL     1       3.880  -2.483  -2.776  0.00  0.00    -0.210 N 
ATOM     17  C   UNL     1       4.935  -1.867  -2.171  0.00  0.00    +0.232 C 
ATOM     18  O   UNL     1       5.305  -0.726  -2.340  0.00  0.00    -0.274 OA
ENDROOT
BRANCH  16  19
ATOM     19  C   UNL     1       2.970  -1.795  -3.592  0.00  0.00    +0.044 A 
ATOM     20  C   UNL     1       3.193  -0.463  -3.912  0.00  0.00    +0.024 A 
ATOM     21  C   UNL     1       2.295   0.212  -4.716  0.00  0.00    +0.002 A 
ATOM     22  C   UNL     1       1.175  -0.438  -5.201  0.00  0.00    +0.000 A 
ATOM     23  C   UNL     1       0.950  -1.765  -4.883  0.00  0.00    +0.002 A 
ATOM     24  C   UNL     1       1.848  -2.447  -4.085  0.00  0.00    +0.024 A 
ENDBRANCH  16  19
BRANCH   1  26
ATOM     25  N   UNL     1       3.586  -0.680  -0.022  0.00  0.00    -0.284 N 
ATOM     26  C   UNL     1       3.620  -2.024   0.060  0.00  0.00    +0.238 C 
ATOM     27  O   UNL     1       2.586  -2.659   0.053  0.00  0.00    -0.273 OA
ATOM     28  H   UNL     1       4.412  -0.177  -0.094  0.00  0.00    +0.155 HD
BRANCH  25  32
ATOM     29  C   UNL     1      -0.069   1.319   0.038  0.00  0.00    +0.000 A 
ATOM     30  C   UNL     1       0.089   0.149   0.758  0.00  0.00    +0.002 A 
ATOM     31  C   UNL     1       1.300  -0.516   0.740  0.00  0.00    +0.023 A 
ATOM     32  C   UNL     1       2.358  -0.008  -0.002  0.00  0.00    +0.033 A 
ATOM     33  C   UNL     1       2.196   1.167  -0.724  0.00  0.00    +0.023 A 
ATOM     34  C   UNL     1       0.983   1.827  -0.702  0.00  0.00    +0.002 A 
ENDBRANCH  25  32
ENDBRANCH   1  26
TORSDOF 3
