REMARK  Name = ZINC38463649
REMARK  6 active torsions:
REMARK  status: ('A' for Active; 'I' for Inactive)
REMARK    1  A    between atoms: C_1  and  C_2
REMARK    2  A    between atoms: C_2  and  C_3
REMARK    3  A    between atoms: C_2  and  N_4
REMARK    4  A    between atoms: C_13  and  O_28
REMARK    5  A    between atoms: C_24  and  O_25
REMARK    6  A    between atoms: O_25  and  C_26
REMARK                            x       y       z     vdW  Elec       q    Type
REMARK                         _______ _______ _______ _____ _____    ______ ____
ROOT
ATOM      1  N   UNL     1      -0.649  -2.494  -0.986  0.00  0.00    -0.297 N 
ATOM      2  C   UNL     1      -1.643  -1.734  -0.485  0.00  0.00    +0.303 C 
ATOM      3  O   UNL     1      -1.388  -0.668   0.041  0.00  0.00    -0.253 OA
ATOM      4  N   UNL     1      -2.920  -2.157  -0.566  0.00  0.00    -0.281 N 
ATOM      5  C   UNL     1      -3.164  -3.476  -1.100  0.00  0.00    +0.111 C 
ATOM      6  C   UNL     1      -3.420  -4.503  -0.031  0.00  0.00    +0.038 C 
ATOM      7  C   UNL     1      -4.779  -4.350   0.623  0.00  0.00    +0.056 C 
ATOM      8  C   UNL     1      -5.870  -4.374  -0.399  0.00  0.00    -0.013 C 
ATOM      9  C   UNL     1      -6.802  -5.261  -0.478  0.00  0.00    +0.001 C 
ATOM     10  C   UNL     1      -6.935  -6.415   0.464  0.00  0.00    +0.141 C 
ATOM     11  C   UNL     1      -5.643  -6.681   1.209  0.00  0.00    +0.081 C 
ATOM     12  C   UNL     1      -4.949  -5.438   1.689  0.00  0.00    +0.191 C 
ATOM     13  O   UNL     1      -5.659  -4.786   2.748  0.00  0.00    -0.484 OA
ATOM     14  C   UNL     1      -5.426  -3.457   2.676  0.00  0.00    +0.167 A 
ATOM     15  C   UNL     1      -4.894  -3.079   1.433  0.00  0.00    +0.016 A 
ATOM     16  C   UNL     1      -4.634  -1.775   1.129  0.00  0.00    -0.022 A 
ATOM     17  C   UNL     1      -4.938  -0.818   2.106  0.00  0.00    +0.009 A 
ATOM     18  C   UNL     1      -5.434  -1.173   3.339  0.00  0.00    +0.050 A 
ATOM     19  C   UNL     1      -5.684  -2.500   3.664  0.00  0.00    +0.162 A 
ATOM     20  C   UNL     1      -3.962  -1.261  -0.108  0.00  0.00    +0.144 C 
ATOM     21  H   UNL     1      -0.843  -3.377  -1.336  0.00  0.00    +0.150 HD
ENDROOT
BRANCH   1  23
ATOM     22  C   UNL     1       1.704  -3.160  -1.008  0.00  0.00    +0.027 C 
ATOM     23  C   UNL     1       0.725  -1.985  -1.002  0.00  0.00    +0.068 C 
ATOM     24  C   UNL     1       0.940  -1.136  -2.256  0.00  0.00    +0.027 C 
ENDBRANCH   1  23
BRANCH  19  25
ATOM     25  O   UNL     1      -6.159  -2.854   4.889  0.00  0.00    -0.491 OA
ATOM     26  C   UNL     1      -6.388  -1.799   5.825  0.00  0.00    +0.277 C 
ENDBRANCH  19  25
BRANCH  10  27
ATOM     27  O   UNL     1      -7.966  -6.127   1.411  0.00  0.00    -0.388 OA
ATOM     28  H   UNL     1      -8.834  -5.977   1.014  0.00  0.00    +0.210 HD
ENDBRANCH  10  27
TORSDOF 3
