REMARK  Name = ZINC00267941
REMARK  4 active torsions:
REMARK  status: ('A' for Active; 'I' for Inactive)
REMARK    1  A    between atoms: C_4  and  N_7
REMARK    2  A    between atoms: N_9  and  C_10
REMARK    3  A    between atoms: C_10  and  C_16
REMARK    4  A    between atoms: C_22  and  O_24
REMARK                            x       y       z     vdW  Elec       q    Type
REMARK                         _______ _______ _______ _____ _____    ______ ____
ROOT
ATOM      1  C   UNL     1       5.028  -4.134  -0.183  0.00  0.00    +0.045 C 
ATOM      2  C   UNL     1       4.261  -4.756  -1.351  0.00  0.00    +0.028 C 
ATOM      3  C   UNL     1       2.813  -4.263  -1.331  0.00  0.00    +0.002 C 
ATOM      4  C   UNL     1       2.153  -4.672  -0.012  0.00  0.00    +0.000 C 
ATOM      5  C   UNL     1       2.921  -4.049   1.156  0.00  0.00    +0.002 C 
ATOM      6  C   UNL     1       4.369  -4.542   1.136  0.00  0.00    +0.028 C 
ENDROOT
BRANCH   1   9
ATOM      7  N   UNL     1       5.466  -0.537   0.604  0.00  0.00    -0.295 N 
ATOM      8  C   UNL     1       5.596  -1.898   0.651  0.00  0.00    +0.143 C 
ATOM      9  N   UNL     1       5.007  -2.674  -0.307  0.00  0.00    -0.361 N 
ATOM     10  S   UNL     1       6.469  -2.607   1.872  0.00  0.00    -0.016 SA
ATOM     11  H   UNL     1       4.708  -0.138   0.149  0.00  0.00    +0.154 HD
ATOM     12  H   UNL     1       4.576  -2.259  -1.071  0.00  0.00    +0.162 HD
BRANCH   7  16
ATOM     13  C   UNL     1       8.324   1.893   2.415  0.00  0.00    +0.000 A 
ATOM     14  C   UNL     1       8.707   0.708   1.814  0.00  0.00    +0.002 A 
ATOM     15  C   UNL     1       7.762  -0.100   1.213  0.00  0.00    +0.023 A 
ATOM     16  C   UNL     1       6.426   0.279   1.212  0.00  0.00    +0.033 A 
ATOM     17  C   UNL     1       6.044   1.469   1.817  0.00  0.00    +0.023 A 
ATOM     18  C   UNL     1       6.995   2.273   2.417  0.00  0.00    +0.002 A 
ENDBRANCH   7  16
ENDBRANCH   1   9
BRANCH   1  19
ATOM     19  C   UNL     1       6.476  -4.627  -0.203  0.00  0.00    +0.043 C 
ATOM     20  C   UNL     1       7.179  -4.095  -1.454  0.00  0.00    +0.008 C 
ATOM     21  C   UNL     1       8.627  -4.588  -1.474  0.00  0.00    +0.001 C 
ATOM     22  C   UNL     1       8.645  -6.117  -1.491  0.00  0.00    +0.003 C 
ATOM     23  C   UNL     1       7.942  -6.650  -0.241  0.00  0.00    +0.032 C 
ATOM     24  C   UNL     1       6.494  -6.157  -0.220  0.00  0.00    +0.120 C 
BRANCH  24  25
ATOM     25  O   UNL     1       5.838  -6.654   0.948  0.00  0.00    -0.391 OA
ATOM     26  H   UNL     1       5.812  -7.619   1.003  0.00  0.00    +0.210 HD
ENDBRANCH  24  25
ENDBRANCH   1  19
TORSDOF 4
