REMARK  Name = ZINC29720177
REMARK  9 active torsions:
REMARK  status: ('A' for Active; 'I' for Inactive)
REMARK    1  A    between atoms: C_1  and  C_2
REMARK    2  A    between atoms: C_2  and  C_4
REMARK    3  A    between atoms: C_2  and  N_13
REMARK    4  A    between atoms: N_6  and  C_7
REMARK    5  A    between atoms: C_7  and  C_8
REMARK    6  A    between atoms: N_13  and  C_14
REMARK    7  A    between atoms: C_17  and  N_20
REMARK    8  A    between atoms: N_23  and  C_24
REMARK    9  A    between atoms: C_24  and  C_25
REMARK                            x       y       z     vdW  Elec       q    Type
REMARK                         _______ _______ _______ _____ _____    ______ ____
ROOT
ATOM      1  C   UNL     1      -4.247  -4.242   4.172  0.00  0.00    +0.028 A 
ATOM      2  C   UNL     1      -3.280  -4.325   5.166  0.00  0.00    +0.025 A 
ATOM      3  C   UNL     1      -3.474  -5.159   6.249  0.00  0.00    +0.025 A 
ATOM      4  C   UNL     1      -4.629  -5.925   6.339  0.00  0.00    +0.035 A 
ATOM      5  C   UNL     1      -5.593  -5.846   5.342  0.00  0.00    +0.025 A 
ATOM      6  C   UNL     1      -5.402  -5.008   4.262  0.00  0.00    +0.025 A 
ENDROOT
BRANCH   4   7
ATOM      7  N   UNL     1      -4.823  -6.776   7.435  0.00  0.00    -0.269 N 
ATOM      8  C   UNL     1      -5.486  -7.939   7.277  0.00  0.00    +0.304 C 
ATOM      9  O   UNL     1      -5.831  -8.295   6.167  0.00  0.00    -0.252 OA
ATOM     10  N   UNL     1      -5.766  -8.706   8.349  0.00  0.00    -0.292 N 
ATOM     11  H   UNL     1      -4.433  -6.495   8.425  0.00  0.00    +0.156 HD
ATOM     12  H   UNL     1      -5.453  -8.384   9.353  0.00  0.00    +0.151 HD
BRANCH  10  13
ATOM     13  C   UNL     1      -6.486  -9.970   8.177  0.00  0.00    +0.180 C 
BRANCH  13  14
ATOM     14  C   UNL     1      -6.671 -10.630   9.519  0.00  0.00    +0.122 A 
ATOM     15  C   UNL     1      -7.716 -10.451  10.347  0.00  0.00    +0.046 A 
ATOM     16  C   UNL     1      -7.480 -11.257  11.484  0.00  0.00    +0.041 A 
ATOM     17  C   UNL     1      -6.305 -11.880  11.283  0.00  0.00    +0.195 A 
ATOM     18  O   UNL     1      -5.822 -11.502  10.089  0.00  0.00    -0.466 OA
ENDBRANCH  13  14
ENDBRANCH  10  13
ENDBRANCH   4   7
BRANCH   1  19
ATOM     19  N   UNL     1      -4.053  -3.393   3.078  0.00  0.00    -0.333 N 
ATOM     20  H   UNL     1      -4.817  -3.330   2.288  0.00  0.00    +0.147 HD
BRANCH  19  22
ATOM     21  C   UNL     1      -3.020  -1.287   3.772  0.00  0.00    +0.038 C 
ATOM     22  C   UNL     1      -2.834  -2.586   2.983  0.00  0.00    +0.154 C 
BRANCH  22  23
ATOM     23  C   UNL     1      -2.558  -2.260   1.538  0.00  0.00    +0.233 C 
ATOM     24  O   UNL     1      -3.306  -2.663   0.672  0.00  0.00    -0.274 OA
ATOM     25  N   UNL     1      -1.480  -1.522   1.208  0.00  0.00    -0.309 N 
ATOM     26  H   UNL     1      -0.802  -1.157   1.993  0.00  0.00    +0.149 HD
BRANCH  25  27
ATOM     27  C   UNL     1      -1.211  -1.206  -0.198  0.00  0.00    +0.146 C 
BRANCH  27  28
ATOM     28  C   UNL     1       0.043  -0.376  -0.295  0.00  0.00    +0.007 A 
ATOM     29  C   UNL     1       1.327  -0.783  -0.437  0.00  0.00    +0.013 A 
ATOM     30  C   UNL     1       2.329   0.167  -0.505  0.00  0.00    +0.008 A 
ATOM     31  C   UNL     1       1.996   1.479  -0.426  0.00  0.00    +0.045 A 
ATOM     32  S   UNL     1       0.222   1.400  -0.251  0.00  0.00    -0.100 S 
ENDBRANCH  27  28
ENDBRANCH  25  27
ENDBRANCH  22  23
ENDBRANCH  19  22
ENDBRANCH   1  19
TORSDOF 8
