REMARK  Name = ZINC21320117
REMARK  7 active torsions:
REMARK  status: ('A' for Active; 'I' for Inactive)
REMARK    1  A    between atoms: C_6  and  C_7
REMARK    2  A    between atoms: C_7  and  S_8
REMARK    3  A    between atoms: S_8  and  C_9
REMARK    4  A    between atoms: N_13  and  N_14
REMARK    5  A    between atoms: N_15  and  N_16
REMARK    6  A    between atoms: C_17  and  C_18
REMARK    7  A    between atoms: C_23  and  O_24
REMARK                            x       y       z     vdW  Elec       q    Type
REMARK                         _______ _______ _______ _____ _____    ______ ____
ROOT
ATOM      1  C   UNL     1      -0.809   3.844   1.366  0.00  0.00    +0.210 A 
ATOM      2  N   UNL     1      -0.263   4.523   0.386  0.00  0.00    -0.119 NA
ATOM      3  N   UNL     1      -0.431   5.887   0.658  0.00  0.00    -0.109 NA
ATOM      4  C   UNL     1      -1.074   5.997   1.795  0.00  0.00    +0.254 A 
ATOM      5  N   UNL     1      -1.329   4.736   2.260  0.00  0.00    -0.211 N 
ATOM      6  N   UNL     1      -1.437   7.183   2.415  0.00  0.00    -0.204 N 
ATOM      7  H   UNL     1      -1.977   7.160   3.373  0.00  0.00    +0.177 HD
ENDROOT
BRANCH   5   8
ATOM      8  N   UNL     1      -1.986   4.425   3.416  0.00  0.00    -0.294 N 
ATOM      9  H   UNL     1      -2.366   5.226   4.066  0.00  0.00    +0.163 HD
ATOM     10  H   UNL     1      -2.134   3.372   3.697  0.00  0.00    +0.163 HD
ENDBRANCH   5   8
BRANCH   6  11
ATOM     11  N   UNL     1      -1.115   8.411   1.821  0.00  0.00    -0.187 NA
ATOM     12  C   UNL     1      -1.455   9.522   2.402  0.00  0.00    +0.142 C 
BRANCH  12  13
ATOM     13  C   UNL     1      -1.117  10.813   1.777  0.00  0.00    +0.037 A 
ATOM     14  C   UNL     1      -1.481  12.010   2.398  0.00  0.00    +0.033 A 
ATOM     15  C   UNL     1      -1.161  13.216   1.808  0.00  0.00    +0.042 A 
ATOM     16  C   UNL     1      -0.481  13.243   0.601  0.00  0.00    +0.023 A 
ATOM     17  C   UNL     1      -0.116  12.065  -0.022  0.00  0.00    +0.047 A 
ATOM     18  C   UNL     1      -0.424  10.847   0.559  0.00  0.00    +0.126 A 
ATOM     19 CL   UNL     1      -1.613  14.704   2.580  0.00  0.00    -0.084 Cl
BRANCH  18  20
ATOM     20  O   UNL     1      -0.060   9.688  -0.050  0.00  0.00    -0.506 OA
ATOM     21  H   UNL     1       0.484   9.717  -1.006  0.00  0.00    +0.292 HD
ENDBRANCH  18  20
ENDBRANCH  12  13
ENDBRANCH   6  11
BRANCH   1  22
ATOM     22  S   UNL     1      -0.867   2.088   1.503  0.00  0.00    -0.080 S 
BRANCH  22  23
ATOM     23  C   UNL     1      -0.018   1.503   0.010  0.00  0.00    +0.112 C 
BRANCH  23  29
ATOM     24  C   UNL     1       1.057  -0.684   0.582  0.00  0.00    +0.007 A 
ATOM     25  C   UNL     1       1.074  -2.066   0.579  0.00  0.00    +0.038 A 
ATOM     26  C   UNL     1       0.040  -2.769  -0.014  0.00  0.00    +0.123 A 
ATOM     27  C   UNL     1      -1.013  -2.087  -0.599  0.00  0.00    +0.038 A 
ATOM     28  C   UNL     1      -1.031  -0.706  -0.591  0.00  0.00    +0.007 A 
ATOM     29  C   UNL     1       0.002  -0.004   0.002  0.00  0.00    -0.037 A 
ATOM     30  F   UNL     1       0.058  -4.120  -0.021  0.00  0.00    -0.205 F 
ENDBRANCH  23  29
ENDBRANCH  22  23
ENDBRANCH   1  22
TORSDOF 7
