REMARK  Name = ZINC50252614
REMARK  7 active torsions:
REMARK  status: ('A' for Active; 'I' for Inactive)
REMARK    1  A    between atoms: C_1  and  C_2
REMARK    2  A    between atoms: C_5  and  N_19
REMARK    3  A    between atoms: C_6  and  C_18
REMARK    4  A    between atoms: C_7  and  N_8
REMARK    5  A    between atoms: N_8  and  S_9
REMARK    6  A    between atoms: S_9  and  C_12
REMARK    7  A    between atoms: N_15  and  C_17
REMARK                            x       y       z     vdW  Elec       q    Type
REMARK                         _______ _______ _______ _____ _____    ______ ____
ROOT
ATOM      1  C   UNL     1      -0.204   1.268   0.064  0.00  0.00    +0.046 C 
ATOM      2  C   UNL     1      -0.117  -0.236   0.082  0.00  0.00    -0.026 A 
ATOM      3  C   UNL     1      -0.034  -0.937  -1.107  0.00  0.00    +0.007 A 
ATOM      4  C   UNL     1       0.046  -2.316  -1.095  0.00  0.00    +0.023 A 
ATOM      5  C   UNL     1       0.044  -3.003   0.113  0.00  0.00    +0.029 A 
ATOM      6  C   UNL     1      -0.039  -2.303   1.308  0.00  0.00    -0.005 A 
ATOM      7  C   UNL     1      -0.113  -0.917   1.293  0.00  0.00    +0.082 A 
ATOM      8  C   UNL     1      -0.041  -3.046   2.619  0.00  0.00    +0.048 C 
ENDROOT
BRANCH   5   9
ATOM      9  N   UNL     1       0.124  -4.398   0.123  0.00  0.00    -0.358 N 
ATOM     10  H   UNL     1       0.182  -4.887  -0.712  0.00  0.00    +0.142 HD
ATOM     11  H   UNL     1       0.123  -4.877   0.967  0.00  0.00    +0.142 HD
ENDBRANCH   5   9
BRANCH   7  12
ATOM     12  N   UNL     1      -0.191  -0.208   2.494  0.00  0.00    -0.097 NA
BRANCH  12  13
ATOM     13  S   UNL     1       1.098  -0.200   3.534  0.00  0.00    +0.095 S 
ATOM     14  O   UNL     1       1.257  -1.534   3.995  0.00  0.00    -0.148 OA
ATOM     15  O   UNL     1       2.141   0.511   2.882  0.00  0.00    -0.148 OA
BRANCH  13  16
ATOM     16  C   UNL     1       0.631   0.764   4.934  0.00  0.00    +0.148 A 
ATOM     17  C   UNL     1       0.808   2.143   5.080  0.00  0.00    +0.163 A 
ATOM     18  N   UNL     1       0.337   2.495   6.248  0.00  0.00    -0.178 NA
ATOM     19  N   UNL     1      -0.156   1.348   6.884  0.00  0.00    -0.273 N 
ATOM     20  C   UNL     1       0.031   0.300   6.055  0.00  0.00    +0.136 A 
ATOM     21  C   UNL     1      -0.771   1.297   8.213  0.00  0.00    +0.172 C 
ENDBRANCH  13  16
ENDBRANCH  12  13
ENDBRANCH   7  12
TORSDOF 4
