REMARK  Name = ZINC40782419
REMARK  8 active torsions:
REMARK  status: ('A' for Active; 'I' for Inactive)
REMARK    1  A    between atoms: C_1  and  C_2
REMARK    2  A    between atoms: C_2  and  C_4
REMARK    3  A    between atoms: C_2  and  N_7
REMARK    4  A    between atoms: C_4  and  O_5
REMARK    5  A    between atoms: O_5  and  C_6
REMARK    6  A    between atoms: C_9  and  N_22
REMARK    7  A    between atoms: C_10  and  N_14
REMARK    8  A    between atoms: N_14  and  C_15
REMARK                            x       y       z     vdW  Elec       q    Type
REMARK                         _______ _______ _______ _____ _____    ______ ____
ROOT
ATOM      1  N   UNL     1       0.777  -0.096   1.308  0.00  0.00    -0.323 N 
ATOM      2  C   UNL     1       2.127  -0.416   1.230  0.00  0.00    +0.145 A 
ATOM      3  C   UNL     1       2.816  -0.865   2.359  0.00  0.00    +0.105 A 
ATOM      4  C   UNL     1       4.171  -1.173   2.225  0.00  0.00    +0.149 A 
ATOM      5  N   UNL     1       4.751  -1.028   1.035  0.00  0.00    -0.219 NA
ATOM      6  C   UNL     1       4.064  -0.601  -0.005  0.00  0.00    +0.225 A 
ATOM      7  N   UNL     1       2.783  -0.305   0.077  0.00  0.00    -0.219 NA
ATOM      8  H   UNL     1       0.307  -0.179   2.152  0.00  0.00    +0.148 HD
ENDROOT
BRANCH   3   9
ATOM      9  N   UNL     1       2.164  -1.002   3.594  0.00  0.00    -0.353 N 
ATOM     10  H   UNL     1       1.222  -0.784   3.672  0.00  0.00    +0.143 HD
ATOM     11  H   UNL     1       2.655  -1.315   4.370  0.00  0.00    +0.143 HD
ENDBRANCH   3   9
BRANCH   1  13
ATOM     12  C   UNL     1       0.263   1.877  -0.043  0.00  0.00    +0.030 C 
ATOM     13  C   UNL     1       0.064   0.368   0.115  0.00  0.00    +0.094 C 
BRANCH  13  14
ATOM     14  C   UNL     1      -1.428   0.063   0.262  0.00  0.00    +0.181 C 
BRANCH  14  15
ATOM     15  O   UNL     1      -1.966   0.825   1.344  0.00  0.00    -0.381 OA
ATOM     16  C   UNL     1      -3.361   0.612   1.567  0.00  0.00    +0.194 C 
ENDBRANCH  14  15
ENDBRANCH  13  14
ENDBRANCH   1  13
BRANCH   4  17
ATOM     17  N   UNL     1       4.904  -1.623   3.317  0.00  0.00    -0.298 N 
ATOM     18  H   UNL     1       4.457  -1.806   4.159  0.00  0.00    +0.154 HD
BRANCH  17  19
ATOM     19  C   UNL     1       6.284  -1.813   3.203  0.00  0.00    +0.032 A 
ATOM     20  C   UNL     1       6.901  -2.859   3.877  0.00  0.00    +0.024 A 
ATOM     21  C   UNL     1       8.264  -3.045   3.761  0.00  0.00    +0.016 A 
ATOM     22  C   UNL     1       9.016  -2.190   2.975  0.00  0.00    +0.013 A 
ATOM     23  C   UNL     1       8.404  -1.147   2.302  0.00  0.00    +0.016 A 
ATOM     24  C   UNL     1       7.040  -0.960   2.409  0.00  0.00    +0.024 A 
ATOM     25  I   UNL     1      11.084  -2.474   2.804  0.00  0.00    -0.044 I 
ENDBRANCH  17  19
ENDBRANCH   4  17
TORSDOF 6
