REMARK  Name = ZINC62723194
REMARK  4 active torsions:
REMARK  status: ('A' for Active; 'I' for Inactive)
REMARK    1  A    between atoms: C_6  and  S_7
REMARK    2  A    between atoms: C_11  and  N_17
REMARK    3  A    between atoms: C_13  and  O_16
REMARK    4  A    between atoms: C_14  and  N_15
REMARK                            x       y       z     vdW  Elec       q    Type
REMARK                         _______ _______ _______ _____ _____    ______ ____
ROOT
ATOM      1  C   UNL     1      -0.017   1.389   0.010  0.00  0.00    +0.030 A 
ATOM      2  C   UNL     1       1.141   2.105   0.003  0.00  0.00    +0.012 A 
ATOM      3  C   UNL     1       2.374   1.433  -0.013  0.00  0.00    +0.008 A 
ATOM      4  C   UNL     1       2.393   0.016  -0.021  0.00  0.00    +0.007 A 
ATOM      5  C   UNL     1       1.179  -0.689  -0.013  0.00  0.00    +0.040 A 
ATOM      6  C   UNL     1       0.002  -0.004   0.002  0.00  0.00    +0.120 A 
ATOM      7  C   UNL     1       3.630  -0.663  -0.035  0.00  0.00    +0.036 A 
ATOM      8  C   UNL     1       4.804   0.057  -0.042  0.00  0.00    +0.070 A 
ATOM      9  C   UNL     1       4.787   1.452  -0.034  0.00  0.00    +0.140 A 
ATOM     10  C   UNL     1       3.591   2.143  -0.020  0.00  0.00    +0.075 A 
ENDROOT
BRANCH   6  11
ATOM     11  S   UNL     1      -1.519  -0.893   0.012  0.00  0.00    +0.140 S 
ATOM     12  O   UNL     1      -1.269  -2.151   0.699  0.00  0.00    -0.140 OA
ATOM     13  O   UNL     1      -2.485  -0.069   0.722  0.00  0.00    -0.140 OA
ATOM     14  O   UNL     1      -1.898  -1.099  -1.377  0.00  0.00    -0.043 OA
ENDBRANCH   6  11
BRANCH  10  15
ATOM     15  N   UNL     1       3.588   3.545  -0.013  0.00  0.00    -0.355 N 
ATOM     16  H   UNL     1       2.747   4.029  -0.003  0.00  0.00    +0.142 HD
ATOM     17  H   UNL     1       4.427   4.032  -0.018  0.00  0.00    +0.142 HD
ENDBRANCH  10  15
BRANCH   7  18
ATOM     18  N   UNL     1       3.664  -2.060  -0.043  0.00  0.00    -0.357 N 
ATOM     19  H   UNL     1       2.835  -2.565  -0.038  0.00  0.00    +0.142 HD
ATOM     20  H   UNL     1       4.515  -2.525  -0.053  0.00  0.00    +0.142 HD
ENDBRANCH   7  18
BRANCH   9  21
ATOM     21  O   UNL     1       5.961   2.139  -0.041  0.00  0.00    -0.505 OA
ATOM     22  H   UNL     1       6.293   2.343  -0.926  0.00  0.00    +0.292 HD
ENDBRANCH   9  21
TORSDOF 4
