REMARK  Name = ZINC18580898
REMARK  13 active torsions:
REMARK  status: ('A' for Active; 'I' for Inactive)
REMARK    1  A    between atoms: C_1  and  C_2
REMARK    2  A    between atoms: C_2  and  C_3
REMARK    3  A    between atoms: C_3  and  C_5
REMARK    4  A    between atoms: C_3  and  C_6
REMARK    5  A    between atoms: C_6  and  C_7
REMARK    6  A    between atoms: C_8  and  C_35
REMARK    7  A    between atoms: C_16  and  S_18
REMARK    8  A    between atoms: S_18  and  C_19
REMARK    9  A    between atoms: C_19  and  C_21
REMARK   10  A    between atoms: C_19  and  C_22
REMARK   11  A    between atoms: N_24  and  C_25
REMARK   12  A    between atoms: C_29  and  S_31
REMARK   13  A    between atoms: S_31  and  N_34
REMARK                            x       y       z     vdW  Elec       q    Type
REMARK                         _______ _______ _______ _____ _____    ______ ____
ROOT
ATOM      1  S   UNL     1       2.623   0.904   0.568  0.00  0.00    -0.075 S 
ENDROOT
BRANCH   1  11
ATOM      2  C   UNL     1       6.959   4.985   0.665  0.00  0.00    -0.023 A 
ATOM      3  C   UNL     1       6.538   6.201   0.290  0.00  0.00    -0.007 A 
ATOM      4  S   UNL     1       4.808   5.951  -0.061  0.00  0.00    -0.073 S 
ATOM      5  C   UNL     1       4.700   4.218   0.307  0.00  0.00    +0.117 A 
ATOM      6  C   UNL     1       6.012   3.883   0.692  0.00  0.00    +0.075 A 
ATOM      7  C   UNL     1       6.224   2.515   1.053  0.00  0.00    +0.261 A 
ATOM      8  O   UNL     1       7.329   2.132   1.399  0.00  0.00    -0.267 OA
ATOM      9  N   UNL     1       5.190   1.656   1.003  0.00  0.00    -0.301 N 
ATOM     10  H   UNL     1       5.330   0.728   1.247  0.00  0.00    +0.171 HD
ATOM     11  C   UNL     1       3.947   2.067   0.617  0.00  0.00    +0.171 A 
ATOM     12  N   UNL     1       3.724   3.320   0.275  0.00  0.00    -0.216 NA
ATOM     13  C   UNL     1       7.336   7.476   0.189  0.00  0.00    +0.052 C 
BRANCH   2  14
ATOM     14  C   UNL     1       8.398   4.763   1.056  0.00  0.00    +0.040 C 
BRANCH  14  15
ATOM     15  C   UNL     1       9.208   4.376  -0.183  0.00  0.00    -0.010 C 
ATOM     16  C   UNL     1       8.719   3.026  -0.711  0.00  0.00    +0.008 C 
BRANCH  15  18
ATOM     17  C   UNL     1      11.514   4.008  -1.073  0.00  0.00    +0.004 C 
ATOM     18  C   UNL     1      10.689   4.272   0.188  0.00  0.00    +0.000 C 
ENDBRANCH  15  18
ENDBRANCH  14  15
ENDBRANCH   2  14
ENDBRANCH   1  11
BRANCH   1  19
ATOM     19  C   UNL     1       1.280   1.980   0.007  0.00  0.00    +0.137 C 
ATOM     20  C   UNL     1       1.580   2.474  -1.409  0.00  0.00    +0.029 C 
BRANCH  19  21
ATOM     21  C   UNL     1      -0.014   1.209   0.007  0.00  0.00    +0.230 C 
ATOM     22  O   UNL     1       0.002  -0.004  -0.008  0.00  0.00    -0.274 OA
ATOM     23  N   UNL     1      -1.191   1.867   0.018  0.00  0.00    -0.285 N 
ATOM     24  H   UNL     1      -1.205   2.833   0.098  0.00  0.00    +0.155 HD
BRANCH  23  25
ATOM     25  C   UNL     1      -2.391   1.155  -0.086  0.00  0.00    +0.035 A 
ATOM     26  C   UNL     1      -2.510  -0.099   0.499  0.00  0.00    +0.023 A 
ATOM     27  C   UNL     1      -3.696  -0.798   0.395  0.00  0.00    +0.004 A 
ATOM     28  C   UNL     1      -4.765  -0.251  -0.291  0.00  0.00    +0.028 A 
ATOM     29  C   UNL     1      -4.650   0.997  -0.875  0.00  0.00    +0.107 A 
ATOM     30  C   UNL     1      -3.468   1.704  -0.769  0.00  0.00    +0.051 A 
BRANCH  29  31
ATOM     31  S   UNL     1      -6.015   1.689  -1.747  0.00  0.00    +0.056 S 
ATOM     32  O   UNL     1      -5.476   2.630  -2.664  0.00  0.00    -0.153 OA
ATOM     33  O   UNL     1      -6.827   0.600  -2.162  0.00  0.00    -0.153 OA
BRANCH  31  34
ATOM     34  N   UNL     1      -6.908   2.554  -0.652  0.00  0.00    -0.204 NA
ATOM     35  H   UNL     1      -7.410   3.332  -0.942  0.00  0.00    +0.144 HD
ATOM     36  H   UNL     1      -6.928   2.283   0.279  0.00  0.00    +0.144 HD
ENDBRANCH  31  34
ENDBRANCH  29  31
ENDBRANCH  23  25
ENDBRANCH  19  21
ENDBRANCH   1  19
TORSDOF 9
