REMARK  Name = ZINC59309452
REMARK  6 active torsions:
REMARK  status: ('A' for Active; 'I' for Inactive)
REMARK    1  A    between atoms: C_1  and  C_2
REMARK    2  A    between atoms: C_5  and  C_14
REMARK    3  A    between atoms: N_8  and  C_10
REMARK    4  A    between atoms: C_10  and  C_11
REMARK    5  A    between atoms: C_11  and  C_12
REMARK    6  A    between atoms: C_11  and  C_13
REMARK                            x       y       z     vdW  Elec       q    Type
REMARK                         _______ _______ _______ _____ _____    ______ ____
ROOT
ATOM      1  C   UNL     1      -0.642   1.407   0.033  0.00  0.00    +0.068 C 
ATOM      2  C   UNL     1      -0.238  -0.044   0.011  0.00  0.00    +0.068 A 
ATOM      3  C   UNL     1      -0.081  -0.846  -1.166  0.00  0.00    +0.031 A 
ATOM      4  C   UNL     1      -0.194  -0.721  -2.560  0.00  0.00    +0.032 A 
ATOM      5  C   UNL     1       0.062  -1.797  -3.356  0.00  0.00    +0.077 A 
ATOM      6  S   UNL     1       0.483  -3.067  -2.175  0.00  0.00    -0.064 S 
ATOM      7  C   UNL     1       0.299  -2.111  -0.693  0.00  0.00    +0.107 A 
ATOM      8  N   UNL     1       0.361  -2.067   0.652  0.00  0.00    -0.257 N 
ATOM      9  N   UNL     1       0.028  -0.768   1.057  0.00  0.00    -0.175 NA
ENDROOT
BRANCH   5  10
ATOM     10  C   UNL     1       0.005  -1.888  -4.818  0.00  0.00    +0.254 C 
ATOM     11  O   UNL     1      -0.146  -0.881  -5.485  0.00  0.00    -0.269 OA
ATOM     12  N   UNL     1       0.120  -3.086  -5.424  0.00  0.00    -0.289 N 
ATOM     13  C   UNL     1       0.139  -4.339  -4.648  0.00  0.00    +0.136 C 
ATOM     14  C   UNL     1      -0.878  -5.312  -5.254  0.00  0.00    +0.179 C 
ATOM     15  O   UNL     1      -0.662  -5.424  -6.664  0.00  0.00    -0.373 OA
ATOM     16  C   UNL     1      -0.828  -4.194  -7.366  0.00  0.00    +0.139 C 
ATOM     17  C   UNL     1       0.227  -3.198  -6.884  0.00  0.00    +0.105 C 
ATOM     18  C   UNL     1      -0.026  -1.849  -7.554  0.00  0.00    +0.025 C 
ATOM     19  C   UNL     1       0.096  -2.018  -9.071  0.00  0.00    +0.002 C 
ATOM     20  C   UNL     1      -0.921  -3.046  -9.566  0.00  0.00    +0.003 C 
ATOM     21  C   UNL     1      -0.664  -4.385  -8.872  0.00  0.00    +0.033 C 
ENDBRANCH   5  10
BRANCH   8  22
ATOM     22  C   UNL     1       0.721  -3.179   1.534  0.00  0.00    +0.147 C 
BRANCH  22  23
ATOM     23  C   UNL     1       2.233  -3.179   1.765  0.00  0.00    +0.004 C 
ATOM     24  C   UNL     1       2.594  -4.262   2.784  0.00  0.00    +0.009 C 
ATOM     25  C   UNL     1       2.951  -3.463   0.443  0.00  0.00    +0.009 C 
ENDBRANCH  22  23
ENDBRANCH   8  22
TORSDOF 3
