REMARK  Name = ZINC14544596
REMARK  6 active torsions:
REMARK  status: ('A' for Active; 'I' for Inactive)
REMARK    1  A    between atoms: C_4  and  C_7
REMARK    2  A    between atoms: C_7  and  C_8
REMARK    3  A    between atoms: C_8  and  N_9
REMARK    4  A    between atoms: N_9  and  S_10
REMARK    5  A    between atoms: S_10  and  C_13
REMARK    6  A    between atoms: C_26  and  C_29
REMARK                            x       y       z     vdW  Elec       q    Type
REMARK                         _______ _______ _______ _____ _____    ______ ____
ROOT
ATOM      1  C   UNL     1      -0.022   1.758   0.012  0.00  0.00    +0.106 A 
ATOM      2  C   UNL     1      -1.231   2.430   0.021  0.00  0.00    +0.030 A 
ATOM      3  C   UNL     1      -1.246   3.810   0.033  0.00  0.00    +0.025 A 
ATOM      4  C   UNL     1      -0.050   4.519   0.025  0.00  0.00    +0.031 A 
ATOM      5  C   UNL     1       1.164   3.849   0.011  0.00  0.00    -0.018 A 
ATOM      6  C   UNL     1       1.165   2.461   0.004  0.00  0.00    +0.034 A 
ATOM      7  C   UNL     1       2.475   4.569   0.004  0.00  0.00    +0.049 C 
ATOM      8  C   UNL     1       3.141   4.511   1.358  0.00  0.00    -0.023 C 
ATOM      9  C   UNL     1       3.767   5.637   1.604  0.00  0.00    -0.030 C 
ATOM     10  C   UNL     1       3.607   6.598   0.442  0.00  0.00    +0.033 C 
ATOM     11  C   UNL     1       2.332   6.076  -0.284  0.00  0.00    +0.029 C 
ATOM     12  C   UNL     1       1.120   6.639   0.464  0.00  0.00    +0.107 C 
ATOM     13  N   UNL     1      -0.082   5.917   0.032  0.00  0.00    -0.336 N 
ATOM     14  H   UNL     1      -0.879   6.398  -0.241  0.00  0.00    +0.147 HD
ENDROOT
BRANCH  12  15
ATOM     15  C   UNL     1       1.313   6.456   1.947  0.00  0.00    -0.002 A 
ATOM     16  C   UNL     1       0.852   5.439   2.693  0.00  0.00    +0.089 A 
ATOM     17  N   UNL     1       1.224   5.613   3.998  0.00  0.00    -0.360 N 
ATOM     18  H   UNL     1       1.007   5.007   4.724  0.00  0.00    +0.165 HD
ATOM     19  C   UNL     1       1.952   6.774   4.127  0.00  0.00    +0.047 A 
ATOM     20  C   UNL     1       2.044   7.351   2.847  0.00  0.00    +0.005 A 
ATOM     21  C   UNL     1       2.728   8.555   2.673  0.00  0.00    +0.010 A 
ATOM     22  C   UNL     1       3.316   9.162   3.747  0.00  0.00    +0.001 A 
ATOM     23  C   UNL     1       3.233   8.595   5.011  0.00  0.00    +0.002 A 
ATOM     24  C   UNL     1       2.557   7.410   5.206  0.00  0.00    +0.026 A 
ENDBRANCH  12  15
BRANCH   1  25
ATOM     25  S   UNL     1       0.002  -0.004   0.002  0.00  0.00    +0.058 S 
ATOM     26  O   UNL     1      -1.243  -0.424  -0.539  0.00  0.00    -0.153 OA
ATOM     27  O   UNL     1       1.248  -0.390  -0.563  0.00  0.00    -0.153 OA
BRANCH  25  28
ATOM     28  N   UNL     1       0.024  -0.502   1.581  0.00  0.00    -0.190 NA
ATOM     29  H   UNL     1       0.795  -0.976   1.930  0.00  0.00    +0.148 HD
BRANCH  28  30
ATOM     30  C   UNL     1      -1.122  -0.227   2.452  0.00  0.00    +0.110 C 
BRANCH  30  31
ATOM     31  C   UNL     1      -1.025  -1.091   3.711  0.00  0.00    +0.052 C 
BRANCH  31  35
ATOM     32  C   UNL     1      -4.364  -0.288   6.250  0.00  0.00    +0.000 A 
ATOM     33  C   UNL     1      -4.447  -1.283   5.293  0.00  0.00    +0.000 A 
ATOM     34  C   UNL     1      -3.366  -1.542   4.472  0.00  0.00    +0.003 A 
ATOM     35  C   UNL     1      -2.203  -0.808   4.607  0.00  0.00    -0.046 A 
ATOM     36  C   UNL     1      -2.119   0.183   5.567  0.00  0.00    +0.003 A 
ATOM     37  C   UNL     1      -3.201   0.446   6.385  0.00  0.00    +0.000 A 
ENDBRANCH  31  35
ENDBRANCH  30  31
ENDBRANCH  28  30
ENDBRANCH  25  28
ENDBRANCH   1  25
TORSDOF 6
