REMARK  Name = ZINC58774113
REMARK  10 active torsions:
REMARK  status: ('A' for Active; 'I' for Inactive)
REMARK    1  A    between atoms: C_1  and  S_2
REMARK    2  A    between atoms: S_2  and  C_3
REMARK    3  A    between atoms: C_3  and  C_4
REMARK    4  A    between atoms: C_4  and  C_5
REMARK    5  A    between atoms: C_5  and  C_7
REMARK    6  A    between atoms: C_5  and  N_27
REMARK    7  A    between atoms: N_9  and  C_10
REMARK    8  A    between atoms: C_10  and  C_11
REMARK    9  A    between atoms: C_11  and  C_12
REMARK   10  A    between atoms: C_12  and  N_13
REMARK                            x       y       z     vdW  Elec       q    Type
REMARK                         _______ _______ _______ _____ _____    ______ ____
ROOT
ATOM      1  C   UNL     1       0.571  -5.846  -3.847  0.00  0.00    +0.106 C 
ENDROOT
BRANCH   1   4
ATOM      2  C   UNL     1       1.684  -3.791  -3.158  0.00  0.00    +0.233 C 
ATOM      3  O   UNL     1       2.659  -4.452  -2.867  0.00  0.00    -0.274 OA
ATOM      4  N   UNL     1       0.587  -4.394  -3.657  0.00  0.00    -0.314 N 
ATOM      5  H   UNL     1      -0.193  -3.866  -3.890  0.00  0.00    +0.149 HD
BRANCH   2   6
ATOM      6  C   UNL     1       1.701  -2.297  -2.963  0.00  0.00    +0.161 C 
BRANCH   6   7
ATOM      7  N   UNL     1       3.087  -1.830  -2.881  0.00  0.00    -0.288 N 
ATOM      8  C   UNL     1       3.897  -2.295  -1.909  0.00  0.00    +0.298 C 
ATOM      9  O   UNL     1       3.478  -3.101  -1.101  0.00  0.00    -0.253 OA
ATOM     10  N   UNL     1       5.173  -1.865  -1.833  0.00  0.00    -0.313 N 
ATOM     11  H   UNL     1       3.421  -1.187  -3.525  0.00  0.00    +0.151 HD
ATOM     12  H   UNL     1       5.507  -1.222  -2.478  0.00  0.00    +0.146 HD
ATOM     13  H   UNL     1       5.756  -2.199  -1.134  0.00  0.00    +0.146 HD
ENDBRANCH   6   7
BRANCH   6  14
ATOM     14  C   UNL     1       0.966  -1.944  -1.668  0.00  0.00    +0.042 C 
BRANCH  14  15
ATOM     15  C   UNL     1       0.873  -0.423  -1.533  0.00  0.00    +0.071 C 
BRANCH  15  17
ATOM     16  C   UNL     1      -0.022   1.810   0.012  0.00  0.00    +0.084 C 
ATOM     17  S   UNL     1       0.002  -0.004   0.002  0.00  0.00    -0.164 S 
ENDBRANCH  15  17
ENDBRANCH  14  15
ENDBRANCH   6  14
ENDBRANCH   2   6
ENDBRANCH   1   4
BRANCH   1  18
ATOM     18  C   UNL     1      -0.782  -6.271  -4.421  0.00  0.00    +0.038 C 
BRANCH  18  19
ATOM     19  C   UNL     1      -0.799  -7.788  -4.619  0.00  0.00    +0.112 C 
BRANCH  19  20
ATOM     20  N   UNL     1      -2.094  -8.194  -5.169  0.00  0.00    -0.298 N 
ATOM     21  C   UNL     1      -3.133  -8.521  -4.290  0.00  0.00    +0.048 A 
ATOM     22  C   UNL     1      -2.866  -9.203  -3.114  0.00  0.00    +0.024 A 
ATOM     23  C   UNL     1      -3.899  -9.524  -2.251  0.00  0.00    +0.002 A 
ATOM     24  C   UNL     1      -5.199  -9.170  -2.553  0.00  0.00    +0.001 A 
ATOM     25  C   UNL     1      -5.478  -8.488  -3.726  0.00  0.00    +0.017 A 
ATOM     26  C   UNL     1      -4.450  -8.165  -4.591  0.00  0.00    +0.034 A 
ATOM     27  S   UNL     1      -4.774  -7.296  -6.094  0.00  0.00    -0.086 S 
ATOM     28  C   UNL     1      -3.466  -7.854  -7.141  0.00  0.00    +0.034 A 
ATOM     29  C   UNL     1      -2.260  -8.240  -6.558  0.00  0.00    +0.048 A 
ATOM     30  C   UNL     1      -1.225  -8.674  -7.371  0.00  0.00    +0.024 A 
ATOM     31  C   UNL     1      -1.397  -8.718  -8.744  0.00  0.00    +0.002 A 
ATOM     32  C   UNL     1      -2.595  -8.331  -9.312  0.00  0.00    +0.001 A 
ATOM     33  C   UNL     1      -3.631  -7.905  -8.512  0.00  0.00    +0.017 A 
ENDBRANCH  19  20
ENDBRANCH  18  19
ENDBRANCH   1  18
TORSDOF 9
