REMARK  Name = ZINC10512347
REMARK  6 active torsions:
REMARK  status: ('A' for Active; 'I' for Inactive)
REMARK    1  A    between atoms: C_4  and  N_12
REMARK    2  A    between atoms: C_5  and  C_7
REMARK    3  A    between atoms: N_12  and  S_13
REMARK    4  A    between atoms: S_13  and  C_16
REMARK    5  A    between atoms: C_19  and  S_22
REMARK    6  A    between atoms: S_22  and  N_25
REMARK                            x       y       z     vdW  Elec       q    Type
REMARK                         _______ _______ _______ _____ _____    ______ ____
ROOT
ATOM      1  S   UNL     1      -1.610   2.331  -0.003  0.00  0.00    +0.072 S 
ATOM      2  O   UNL     1      -1.430   3.652  -0.493  0.00  0.00    -0.150 OA
ATOM      3  O   UNL     1      -2.563   1.435  -0.559  0.00  0.00    -0.150 OA
ENDROOT
BRANCH   1   4
ATOM      4  C   UNL     1      -0.043   1.534  -0.116  0.00  0.00    +0.109 A 
ATOM      5  C   UNL     1       1.116   2.287  -0.134  0.00  0.00    +0.031 A 
ATOM      6  C   UNL     1       2.345   1.662  -0.231  0.00  0.00    +0.030 A 
ATOM      7  C   UNL     1       2.416   0.283  -0.306  0.00  0.00    +0.105 A 
ATOM      8  C   UNL     1       1.257  -0.470  -0.287  0.00  0.00    +0.030 A 
ATOM      9  C   UNL     1       0.027   0.155  -0.192  0.00  0.00    +0.031 A 
BRANCH   7  10
ATOM     10  S   UNL     1       3.982  -0.514  -0.425  0.00  0.00    +0.056 S 
ATOM     11  O   UNL     1       4.937   0.383   0.126  0.00  0.00    -0.153 OA
ATOM     12  O   UNL     1       3.805  -1.835   0.067  0.00  0.00    -0.153 OA
BRANCH  10  13
ATOM     13  N   UNL     1       4.339  -0.653  -2.037  0.00  0.00    -0.204 NA
ATOM     14  H   UNL     1       3.718  -0.318  -2.702  0.00  0.00    +0.144 HD
ATOM     15  H   UNL     1       5.170  -1.070  -2.315  0.00  0.00    +0.144 HD
ENDBRANCH  10  13
ENDBRANCH   7  10
ENDBRANCH   1   4
BRANCH   1  16
ATOM     16  N   UNL     1      -1.974   2.469   1.607  0.00  0.00    -0.216 N 
ATOM     17  H   UNL     1      -2.770   2.044   1.962  0.00  0.00    +0.174 HD
BRANCH  16  21
ATOM     18  C   UNL     1       0.533   4.646   4.132  0.00  0.00    +0.001 A 
ATOM     19  C   UNL     1       0.331   5.057   2.826  0.00  0.00    +0.002 A 
ATOM     20  C   UNL     1      -0.498   4.338   1.988  0.00  0.00    +0.025 A 
ATOM     21  C   UNL     1      -1.135   3.196   2.452  0.00  0.00    +0.056 A 
ATOM     22  C   UNL     1      -0.938   2.781   3.776  0.00  0.00    +0.011 A 
ATOM     23  C   UNL     1      -0.093   3.513   4.610  0.00  0.00    +0.011 A 
BRANCH  22  24
ATOM     24  C   UNL     1      -1.616   1.570   4.284  0.00  0.00    +0.021 A 
ATOM     25  C   UNL     1      -1.085   0.500   4.953  0.00  0.00    +0.016 A 
ATOM     26  C   UNL     1      -1.923  -0.527   5.332  0.00  0.00    +0.008 A 
ATOM     27  C   UNL     1      -3.244  -0.447   5.032  0.00  0.00    +0.046 A 
ATOM     28  S   UNL     1      -3.343   1.125   4.191  0.00  0.00    -0.097 S 
ENDBRANCH  22  24
ENDBRANCH  16  21
ENDBRANCH   1  16
TORSDOF 6
