REMARK  Name = ZINC39918989
REMARK  7 active torsions:
REMARK  status: ('A' for Active; 'I' for Inactive)
REMARK    1  A    between atoms: C_1  and  C_2
REMARK    2  A    between atoms: C_2  and  N_3
REMARK    3  A    between atoms: C_4  and  C_34
REMARK    4  A    between atoms: N_17  and  C_20
REMARK    5  A    between atoms: C_20  and  C_21
REMARK    6  A    between atoms: C_28  and  C_32
REMARK    7  A    between atoms: C_29  and  N_31
REMARK                            x       y       z     vdW  Elec       q    Type
REMARK                         _______ _______ _______ _____ _____    ______ ____
ROOT
ATOM      1  N   UNL     1       0.772  -0.303   1.247  0.00  0.00    -0.312 N 
ATOM      2  C   UNL     1       2.034  -0.786   1.103  0.00  0.00    +0.022 A 
ATOM      3  C   UNL     1       2.655  -1.419   2.121  0.00  0.00    +0.068 A 
ATOM      4  C   UNL     1       1.989  -1.583   3.354  0.00  0.00    +0.142 A 
ATOM      5  C   UNL     1       0.708  -1.091   3.492  0.00  0.00    +0.084 A 
ATOM      6  C   UNL     1       0.106  -0.438   2.409  0.00  0.00    +0.260 A 
ATOM      7  O   UNL     1      -1.027   0.006   2.517  0.00  0.00    -0.267 OA
ATOM      8  C   UNL     1      -0.033  -1.243   4.789  0.00  0.00    +0.147 C 
ATOM      9  C   UNL     1      -0.139   0.072   5.498  0.00  0.00    -0.001 A 
ATOM     10  C   UNL     1       0.827   0.920   5.995  0.00  0.00    +0.007 A 
ATOM     11  C   UNL     1       0.386   2.087   6.609  0.00  0.00    +0.000 A 
ATOM     12  C   UNL     1      -0.959   2.378   6.716  0.00  0.00    +0.002 A 
ATOM     13  C   UNL     1      -1.936   1.529   6.220  0.00  0.00    +0.024 A 
ATOM     14  C   UNL     1      -1.506   0.355   5.600  0.00  0.00    +0.041 A 
ATOM     15  N   UNL     1      -2.251  -0.658   5.023  0.00  0.00    -0.265 N 
ATOM     16  C   UNL     1      -1.470  -1.637   4.521  0.00  0.00    +0.241 C 
ATOM     17  O   UNL     1      -1.849  -2.644   3.960  0.00  0.00    -0.274 OA
ATOM     18  C   UNL     1       0.628  -2.272   5.660  0.00  0.00    +0.110 C 
ATOM     19  C   UNL     1       1.891  -2.693   5.407  0.00  0.00    +0.199 C 
ATOM     20  O   UNL     1       2.607  -2.213   4.375  0.00  0.00    -0.441 OA
ATOM     21  C   UNL     1       2.751  -0.613  -0.211  0.00  0.00    +0.064 C 
ENDROOT
BRANCH  19  22
ATOM     22  N   UNL     1       2.456  -3.636   6.228  0.00  0.00    -0.328 N 
ATOM     23  H   UNL     1       1.952  -3.992   6.977  0.00  0.00    +0.145 HD
ATOM     24  H   UNL     1       3.359  -3.947   6.060  0.00  0.00    +0.145 HD
ENDBRANCH  19  22
BRANCH   1  26
ATOM     25  C   UNL     1      -0.661  -0.634  -0.707  0.00  0.00    +0.027 C 
ATOM     26  C   UNL     1       0.129   0.381   0.122  0.00  0.00    +0.122 C 
ENDBRANCH   1  26
BRANCH  18  27
ATOM     27  C   UNL     1      -0.087  -2.817   6.774  0.00  0.00    +0.102 C 
ATOM     28  N   UNL     1      -0.654  -3.249   7.658  0.00  0.00    -0.191 NA
ENDBRANCH  18  27
BRANCH  15  29
ATOM     29  C   UNL     1      -3.715  -0.667   4.965  0.00  0.00    +0.148 C 
BRANCH  29  30
ATOM     30  C   UNL     1      -4.171   0.007   3.697  0.00  0.00    -0.030 A 
ATOM     31  C   UNL     1      -4.403   1.370   3.684  0.00  0.00    +0.006 A 
ATOM     32  C   UNL     1      -4.822   1.988   2.521  0.00  0.00    +0.020 A 
ATOM     33  C   UNL     1      -5.008   1.244   1.370  0.00  0.00    +0.041 A 
ATOM     34  C   UNL     1      -4.775  -0.120   1.384  0.00  0.00    +0.020 A 
ATOM     35  C   UNL     1      -4.351  -0.737   2.546  0.00  0.00    +0.006 A 
ATOM     36 CL   UNL     1      -5.534   2.020  -0.091  0.00  0.00    -0.084 Cl
ENDBRANCH  29  30
ENDBRANCH  15  29
TORSDOF 5
