REMARK  Name = ZINC05482520
REMARK  9 active torsions:
REMARK  status: ('A' for Active; 'I' for Inactive)
REMARK    1  A    between atoms: C_1  and  C_2
REMARK    2  A    between atoms: C_3  and  C_19
REMARK    3  A    between atoms: C_4  and  C_10
REMARK    4  A    between atoms: C_13  and  N_16
REMARK    5  A    between atoms: N_16  and  C_17
REMARK    6  A    between atoms: N_16  and  C_18
REMARK    7  A    between atoms: N_21  and  C_22
REMARK    8  A    between atoms: C_27  and  O_28
REMARK    9  A    between atoms: O_28  and  C_29
REMARK                            x       y       z     vdW  Elec       q    Type
REMARK                         _______ _______ _______ _____ _____    ______ ____
ROOT
ATOM      1  C   UNL     1      -2.488   1.590  -0.180  0.00  0.00    +0.061 C 
ATOM      2  C   UNL     1      -1.169   2.254   0.119  0.00  0.00    +0.017 C 
ATOM      3  C   UNL     1      -1.150   3.544   0.517  0.00  0.00    +0.056 C 
ATOM      4  C   UNL     1       0.198   4.175   0.801  0.00  0.00    +0.139 C 
ATOM      5  N   UNL     1       1.385   3.321   0.625  0.00  0.00    -0.315 N 
ATOM      6  C   UNL     1       1.204   2.046   0.227  0.00  0.00    +0.135 C 
ATOM      7  S   UNL     1       2.575   1.042   0.019  0.00  0.00    -0.019 S 
ATOM      8  N   UNL     1      -0.012   1.540  -0.010  0.00  0.00    -0.300 N 
ATOM      9  H   UNL     1       2.275   3.668   0.791  0.00  0.00    +0.149 HD
ATOM     10  H   UNL     1      -0.075   0.614  -0.294  0.00  0.00    +0.154 HD
ENDROOT
BRANCH   4  11
ATOM     11  C   UNL     1       0.188   4.670   2.224  0.00  0.00    -0.023 A 
ATOM     12  C   UNL     1       0.431   3.789   3.262  0.00  0.00    +0.007 A 
ATOM     13  C   UNL     1       0.428   4.240   4.568  0.00  0.00    +0.023 A 
ATOM     14  C   UNL     1       0.171   5.578   4.838  0.00  0.00    +0.029 A 
ATOM     15  C   UNL     1      -0.079   6.459   3.793  0.00  0.00    +0.023 A 
ATOM     16  C   UNL     1      -0.069   6.003   2.490  0.00  0.00    +0.007 A 
BRANCH  14  17
ATOM     17  N   UNL     1       0.161   6.037   6.157  0.00  0.00    -0.336 N 
ATOM     18  C   UNL     1      -0.237   7.416   6.451  0.00  0.00    +0.129 C 
ATOM     19  C   UNL     1       0.550   5.139   7.247  0.00  0.00    +0.129 C 
ENDBRANCH  14  17
ENDBRANCH   4  11
BRANCH   3  20
ATOM     20  C   UNL     1      -2.349   4.284   0.657  0.00  0.00    +0.248 C 
ATOM     21  O   UNL     1      -2.654   5.115  -0.180  0.00  0.00    -0.270 OA
ATOM     22  N   UNL     1      -3.154   4.069   1.717  0.00  0.00    -0.279 N 
ATOM     23  H   UNL     1      -2.876   3.464   2.422  0.00  0.00    +0.155 HD
BRANCH  22  24
ATOM     24  C   UNL     1      -4.391   4.721   1.801  0.00  0.00    +0.076 A 
ATOM     25  C   UNL     1      -4.973   5.258   0.662  0.00  0.00    +0.027 A 
ATOM     26  C   UNL     1      -6.194   5.899   0.747  0.00  0.00    +0.002 A 
ATOM     27  C   UNL     1      -6.838   6.007   1.965  0.00  0.00    +0.004 A 
ATOM     28  C   UNL     1      -6.265   5.475   3.105  0.00  0.00    +0.047 A 
ATOM     29  C   UNL     1      -5.043   4.826   3.027  0.00  0.00    +0.141 A 
BRANCH  29  30
ATOM     30  O   UNL     1      -4.480   4.297   4.146  0.00  0.00    -0.493 OA
ATOM     31  C   UNL     1      -5.206   4.443   5.369  0.00  0.00    +0.277 C 
ENDBRANCH  29  30
ENDBRANCH  22  24
ENDBRANCH   3  20
TORSDOF 5
