REMARK  Name = ZINC39522852
REMARK  5 active torsions:
REMARK  status: ('A' for Active; 'I' for Inactive)
REMARK    1  A    between atoms: C_4  and  O_28
REMARK    2  A    between atoms: C_5  and  C_7
REMARK    3  A    between atoms: C_17  and  C_21
REMARK    4  A    between atoms: N_19  and  O_20
REMARK    5  A    between atoms: C_26  and  O_27
REMARK                            x       y       z     vdW  Elec       q    Type
REMARK                         _______ _______ _______ _____ _____    ______ ____
ROOT
ATOM      1  C   UNL     1       1.227  -2.187  -0.022  0.00  0.00    +0.024 C 
ATOM      2  C   UNL     1       0.525  -2.713   1.232  0.00  0.00    +0.008 C 
ATOM      3  C   UNL     1       0.544  -4.243   1.223  0.00  0.00    +0.002 C 
ATOM      4  C   UNL     1      -0.182  -4.755  -0.022  0.00  0.00    +0.025 C 
ATOM      5  C   UNL     1       0.521  -4.229  -1.275  0.00  0.00    +0.048 C 
ATOM      6  C   UNL     1       0.500  -2.699  -1.267  0.00  0.00    +0.033 C 
ATOM      7  C   UNL     1       1.971  -4.718  -1.289  0.00  0.00    +0.025 C 
ATOM      8  C   UNL     1       1.989  -6.248  -1.319  0.00  0.00    +0.004 C 
ATOM      9  C   UNL     1       1.218  -6.736  -2.549  0.00  0.00    +0.026 C 
ATOM     10  C   UNL     1      -0.211  -6.189  -2.498  0.00  0.00    +0.118 C 
ATOM     11  N   UNL     1      -0.174  -4.722  -2.471  0.00  0.00    -0.177 NA
ENDROOT
BRANCH   1  16
ATOM     12  C   UNL     1      -0.017   1.378   0.010  0.00  0.00    +0.001 A 
ATOM     13  C   UNL     1       1.170   2.088   0.002  0.00  0.00    +0.004 A 
ATOM     14  C   UNL     1       2.377   1.417  -0.013  0.00  0.00    +0.046 A 
ATOM     15  C   UNL     1       2.399   0.030  -0.021  0.00  0.00    +0.120 A 
ATOM     16  C   UNL     1       1.207  -0.680  -0.013  0.00  0.00    -0.003 A 
ATOM     17  C   UNL     1       0.002  -0.004   0.002  0.00  0.00    +0.007 A 
BRANCH  15  18
ATOM     18  O   UNL     1       3.586  -0.632  -0.037  0.00  0.00    -0.506 OA
ATOM     19  H   UNL     1       3.938  -0.829   0.842  0.00  0.00    +0.292 HD
ENDBRANCH  15  18
ENDBRANCH   1  16
BRANCH  10  20
ATOM     20  C   UNL     1      -0.968  -6.651  -3.717  0.00  0.00    +0.013 A 
ATOM     21  C   UNL     1      -1.044  -5.839  -4.832  0.00  0.00    +0.009 A 
ATOM     22  C   UNL     1      -1.739  -6.261  -5.950  0.00  0.00    +0.001 A 
ATOM     23  C   UNL     1      -2.360  -7.496  -5.955  0.00  0.00    +0.004 A 
ATOM     24  C   UNL     1      -2.287  -8.312  -4.843  0.00  0.00    +0.046 A 
ATOM     25  C   UNL     1      -1.585  -7.893  -3.721  0.00  0.00    +0.122 A 
BRANCH  25  26
ATOM     26  O   UNL     1      -1.507  -8.696  -2.628  0.00  0.00    -0.506 OA
ATOM     27  H   UNL     1      -2.223  -8.563  -1.990  0.00  0.00    +0.292 HD
ENDBRANCH  25  26
ENDBRANCH  10  20
BRANCH  11  28
ATOM     28  O   UNL     1      -1.523  -4.162  -2.562  0.00  0.00    -0.311 OA
ATOM     29  H   UNL     1      -2.021  -4.459  -3.336  0.00  0.00    +0.237 HD
ENDBRANCH  11  28
TORSDOF 5
