REMARK  Name = ZINC02659895
REMARK  7 active torsions:
REMARK  status: ('A' for Active; 'I' for Inactive)
REMARK    1  A    between atoms: C_1  and  C_2
REMARK    2  A    between atoms: C_5  and  C_8
REMARK    3  A    between atoms: C_8  and  C_10
REMARK    4  A    between atoms: C_11  and  N_30
REMARK    5  A    between atoms: N_19  and  C_22
REMARK    6  A    between atoms: C_22  and  C_23
REMARK    7  A    between atoms: C_23  and  C_24
REMARK                            x       y       z     vdW  Elec       q    Type
REMARK                         _______ _______ _______ _____ _____    ______ ____
ROOT
ATOM      1  C   UNL     1       0.181  -4.963   1.190  0.00  0.00    +0.083 A 
ATOM      2  C   UNL     1       0.318  -6.332   1.385  0.00  0.00    +0.057 A 
ATOM      3  C   UNL     1       0.420  -6.767   2.718  0.00  0.00    +0.092 A 
ATOM      4  C   UNL     1       0.572  -8.151   3.226  0.00  0.00    +0.264 A 
ATOM      5  O   UNL     1       0.626  -9.088   2.452  0.00  0.00    -0.267 OA
ATOM      6  N   UNL     1       0.652  -8.358   4.552  0.00  0.00    -0.274 N 
ATOM      7  H   UNL     1       0.752  -9.264   4.883  0.00  0.00    +0.173 HD
ATOM      8  C   UNL     1       0.597  -7.344   5.430  0.00  0.00    +0.330 A 
ATOM      9  O   UNL     1       0.674  -7.583   6.620  0.00  0.00    -0.246 OA
ATOM     10  N   UNL     1       0.459  -6.069   5.024  0.00  0.00    -0.287 N 
ATOM     11  C   UNL     1       0.370  -5.763   3.695  0.00  0.00    +0.099 A 
ATOM     12  S   UNL     1       0.205  -4.329   2.854  0.00  0.00    -0.065 S 
ENDROOT
BRANCH   2  13
ATOM     13  N   UNL     1       0.353  -7.220   0.322  0.00  0.00    -0.356 N 
ATOM     14  H   UNL     1       0.281  -6.891  -0.587  0.00  0.00    +0.142 HD
ATOM     15  H   UNL     1       0.450  -8.171   0.488  0.00  0.00    +0.142 HD
ENDBRANCH   2  13
BRANCH   1  16
ATOM     16  C   UNL     1       0.059  -4.253  -0.021  0.00  0.00    +0.202 C 
ATOM     17  O   UNL     1       0.192  -4.834  -1.085  0.00  0.00    -0.286 OA
BRANCH  16  22
ATOM     18  C   UNL     1      -1.066   1.392   0.051  0.00  0.00    +0.044 C 
ATOM     19  C   UNL     1      -0.771  -0.086   0.032  0.00  0.00    -0.050 A 
ATOM     20  C   UNL     1      -1.149  -0.877   1.103  0.00  0.00    +0.004 A 
ATOM     21  C   UNL     1      -0.882  -2.231   1.091  0.00  0.00    +0.012 A 
ATOM     22  C   UNL     1      -0.230  -2.801  -0.003  0.00  0.00    +0.023 A 
ATOM     23  C   UNL     1       0.147  -1.998  -1.079  0.00  0.00    +0.012 A 
ATOM     24  C   UNL     1      -0.130  -0.646  -1.058  0.00  0.00    +0.004 A 
ENDBRANCH  16  22
ENDBRANCH   1  16
BRANCH  10  25
ATOM     25  C   UNL     1       0.404  -4.994   6.018  0.00  0.00    +0.132 C 
BRANCH  25  26
ATOM     26  C   UNL     1       1.819  -4.486   6.300  0.00  0.00    +0.057 C 
BRANCH  26  27
ATOM     27  C   UNL     1       1.762  -3.381   7.322  0.00  0.00    -0.046 A 
ATOM     28  C   UNL     1       1.615  -2.068   6.915  0.00  0.00    +0.004 A 
ATOM     29  C   UNL     1       1.562  -1.054   7.853  0.00  0.00    +0.000 A 
ATOM     30  C   UNL     1       1.656  -1.353   9.199  0.00  0.00    +0.000 A 
ATOM     31  C   UNL     1       1.802  -2.666   9.607  0.00  0.00    +0.000 A 
ATOM     32  C   UNL     1       1.851  -3.680   8.669  0.00  0.00    +0.004 A 
ENDBRANCH  26  27
ENDBRANCH  25  26
ENDBRANCH  10  25
TORSDOF 6
