REMARK  Name = ZINC40399866
REMARK  7 active torsions:
REMARK  status: ('A' for Active; 'I' for Inactive)
REMARK    1  A    between atoms: C_1  and  O_2
REMARK    2  A    between atoms: O_2  and  C_3
REMARK    3  A    between atoms: C_6  and  N_9
REMARK    4  A    between atoms: C_22  and  C_24
REMARK    5  A    between atoms: N_26  and  C_27
REMARK    6  A    between atoms: C_32  and  S_33
REMARK    7  A    between atoms: S_33  and  C_34
REMARK                            x       y       z     vdW  Elec       q    Type
REMARK                         _______ _______ _______ _____ _____    ______ ____
ROOT
ATOM      1  N   UNL     1       3.496  -2.979   6.806  0.00  0.00    -0.285 N 
ATOM      2  C   UNL     1       3.265  -4.264   6.389  0.00  0.00    +0.202 A 
ATOM      3  N   UNL     1       3.469  -5.292   7.258  0.00  0.00    -0.295 N 
ATOM      4  H   UNL     1       3.762  -5.110   8.164  0.00  0.00    +0.172 HD
ATOM      5  C   UNL     1       3.263  -6.565   6.858  0.00  0.00    +0.258 A 
ATOM      6  O   UNL     1       3.457  -7.497   7.622  0.00  0.00    -0.267 OA
ATOM      7  C   UNL     1       2.821  -6.794   5.551  0.00  0.00    +0.069 A 
ATOM      8  C   UNL     1       2.609  -5.715   4.713  0.00  0.00    +0.138 A 
ATOM      9  N   UNL     1       2.845  -4.475   5.160  0.00  0.00    -0.200 NA
ATOM     10  N   UNL     1       2.131  -5.912   3.429  0.00  0.00    -0.270 N 
ATOM     11  C   UNL     1       1.622  -7.098   3.056  0.00  0.00    +0.219 C 
ATOM     12  O   UNL     1       1.310  -7.278   1.898  0.00  0.00    -0.275 OA
ATOM     13  C   UNL     1       1.434  -8.206   4.058  0.00  0.00    +0.114 C 
ATOM     14  C   UNL     1       2.591  -8.198   5.059  0.00  0.00    +0.122 C 
ATOM     15  H   UNL     1       3.868  -2.814   7.687  0.00  0.00    +0.155 HD
ATOM     16  H   UNL     1       2.163  -5.183   2.790  0.00  0.00    +0.156 HD
ENDROOT
BRANCH   1  20
ATOM     17  C   UNL     1       2.599   0.223   4.291  0.00  0.00    +0.120 A 
ATOM     18  C   UNL     1       1.774  -0.892   4.315  0.00  0.00    +0.047 A 
ATOM     19  C   UNL     1       2.071  -1.953   5.148  0.00  0.00    +0.027 A 
ATOM     20  C   UNL     1       3.195  -1.903   5.961  0.00  0.00    +0.034 A 
ATOM     21  C   UNL     1       4.020  -0.787   5.937  0.00  0.00    +0.027 A 
ATOM     22  C   UNL     1       3.725   0.271   5.100  0.00  0.00    +0.047 A 
BRANCH  17  24
ATOM     23  C   UNL     1       1.131   1.151   2.667  0.00  0.00    +0.277 C 
ATOM     24  O   UNL     1       2.306   1.268   3.471  0.00  0.00    -0.495 OA
ENDBRANCH  17  24
ENDBRANCH   1  20
BRANCH  14  25
ATOM     25  C   UNL     1       3.841  -8.705   4.386  0.00  0.00    +0.225 C 
ATOM     26  O   UNL     1       4.822  -7.995   4.314  0.00  0.00    -0.275 OA
ATOM     27  N   UNL     1       3.868  -9.947   3.865  0.00  0.00    -0.284 N 
ATOM     28  H   UNL     1       3.066 -10.493   3.869  0.00  0.00    +0.155 HD
BRANCH  27  29
ATOM     29  C   UNL     1       5.055 -10.451   3.317  0.00  0.00    +0.047 A 
ATOM     30  C   UNL     1       5.983  -9.587   2.754  0.00  0.00    +0.024 A 
ATOM     31  C   UNL     1       7.154 -10.086   2.214  0.00  0.00    +0.002 A 
ATOM     32  C   UNL     1       7.404 -11.447   2.233  0.00  0.00    +0.001 A 
ATOM     33  C   UNL     1       6.486 -12.315   2.791  0.00  0.00    +0.017 A 
ATOM     34  C   UNL     1       5.310 -11.823   3.340  0.00  0.00    +0.034 A 
BRANCH  34  35
ATOM     35  S   UNL     1       4.140 -12.927   4.058  0.00  0.00    -0.088 S 
BRANCH  35  36
ATOM     36  C   UNL     1       4.937 -14.497   3.990  0.00  0.00    +0.013 A 
ATOM     37  C   UNL     1       5.668 -14.955   5.079  0.00  0.00    +0.015 A 
ATOM     38  C   UNL     1       6.292 -16.185   5.021  0.00  0.00    +0.001 A 
ATOM     39  C   UNL     1       6.189 -16.962   3.882  0.00  0.00    +0.000 A 
ATOM     40  C   UNL     1       5.462 -16.509   2.796  0.00  0.00    +0.001 A 
ATOM     41  C   UNL     1       4.831 -15.282   2.848  0.00  0.00    +0.015 A 
ENDBRANCH  35  36
ENDBRANCH  34  35
ENDBRANCH  27  29
ENDBRANCH  14  25
TORSDOF 6
