REMARK  Name = ZINC08684886
REMARK  7 active torsions:
REMARK  status: ('A' for Active; 'I' for Inactive)
REMARK    1  A    between atoms: C_3  and  S_26
REMARK    2  A    between atoms: C_6  and  N_7
REMARK    3  A    between atoms: N_7  and  C_8
REMARK    4  A    between atoms: C_8  and  N_9
REMARK    5  A    between atoms: N_13  and  C_15
REMARK    6  A    between atoms: C_15  and  C_16
REMARK    7  A    between atoms: S_26  and  N_29
REMARK                            x       y       z     vdW  Elec       q    Type
REMARK                         _______ _______ _______ _____ _____    ______ ____
ROOT
ATOM      1  N   UNL     1      -2.340  -2.748  -0.193  0.00  0.00    -0.279 N 
ATOM      2  C   UNL     1      -2.323  -4.144  -0.306  0.00  0.00    +0.165 A 
ATOM      3  C   UNL     1      -3.449  -4.977  -0.417  0.00  0.00    +0.100 A 
ATOM      4  C   UNL     1      -3.013  -6.255  -0.505  0.00  0.00    +0.130 A 
ATOM      5  N   UNL     1      -1.663  -6.236  -0.453  0.00  0.00    -0.264 N 
ATOM      6  N   UNL     1      -1.252  -4.902  -0.333  0.00  0.00    -0.154 NA
ATOM      7 CL   UNL     1      -5.106  -4.459  -0.435  0.00  0.00    -0.078 Cl
ATOM      8  H   UNL     1      -3.186  -2.272  -0.182  0.00  0.00    +0.155 HD
ENDROOT
BRANCH   1   9
ATOM      9  C   UNL     1      -1.182  -2.065  -0.099  0.00  0.00    +0.140 C 
ATOM     10  S   UNL     1       0.310  -2.903  -0.119  0.00  0.00    -0.018 S 
BRANCH   9  11
ATOM     11  N   UNL     1      -1.199  -0.721   0.010  0.00  0.00    -0.297 N 
ATOM     12  H   UNL     1      -2.043  -0.253   0.102  0.00  0.00    +0.154 HD
BRANCH  11  18
ATOM     13  C   UNL     1       1.004  -0.347  -0.907  0.00  0.00    +0.025 A 
ATOM     14  C   UNL     1       2.187   0.365  -0.924  0.00  0.00    +0.030 A 
ATOM     15  C   UNL     1       2.375   1.418  -0.048  0.00  0.00    +0.105 A 
ATOM     16  C   UNL     1       1.379   1.762   0.848  0.00  0.00    +0.030 A 
ATOM     17  C   UNL     1       0.194   1.055   0.870  0.00  0.00    +0.025 A 
ATOM     18  C   UNL     1       0.001  -0.003  -0.009  0.00  0.00    +0.033 A 
BRANCH  15  19
ATOM     19  S   UNL     1       3.887   2.322  -0.072  0.00  0.00    +0.056 S 
ATOM     20  O   UNL     1       4.029   2.911   1.214  0.00  0.00    -0.153 OA
ATOM     21  O   UNL     1       4.869   1.458  -0.627  0.00  0.00    -0.153 OA
BRANCH  19  22
ATOM     22  N   UNL     1       3.694   3.570  -1.145  0.00  0.00    -0.204 NA
ATOM     23  H   UNL     1       2.853   3.679  -1.615  0.00  0.00    +0.144 HD
ATOM     24  H   UNL     1       4.422   4.191  -1.302  0.00  0.00    +0.144 HD
ENDBRANCH  19  22
ENDBRANCH  15  19
ENDBRANCH  11  18
ENDBRANCH   9  11
ENDBRANCH   1   9
BRANCH   5  25
ATOM     25  C   UNL     1      -0.783  -7.405  -0.517  0.00  0.00    +0.180 C 
BRANCH  25  26
ATOM     26  C   UNL     1       0.213  -7.225  -1.633  0.00  0.00    -0.008 A 
ATOM     27  C   UNL     1      -0.046  -7.757  -2.883  0.00  0.00    +0.008 A 
ATOM     28  C   UNL     1       0.867  -7.592  -3.907  0.00  0.00    +0.020 A 
ATOM     29  C   UNL     1       2.041  -6.893  -3.683  0.00  0.00    +0.042 A 
ATOM     30  C   UNL     1       2.300  -6.360  -2.433  0.00  0.00    +0.040 A 
ATOM     31  C   UNL     1       1.383  -6.522  -1.409  0.00  0.00    +0.047 A 
ATOM     32 CL   UNL     1       1.705  -5.848   0.158  0.00  0.00    -0.083 Cl
ATOM     33 CL   UNL     1       3.187  -6.686  -4.970  0.00  0.00    -0.083 Cl
ENDBRANCH  25  26
ENDBRANCH   5  25
TORSDOF 7
