REMARK  Name = ZINC04679951
REMARK  8 active torsions:
REMARK  status: ('A' for Active; 'I' for Inactive)
REMARK    1  A    between atoms: C_1  and  C_2
REMARK    2  A    between atoms: C_2  and  O_3
REMARK    3  A    between atoms: O_3  and  C_4
REMARK    4  A    between atoms: C_6  and  C_11
REMARK    5  A    between atoms: C_9  and  O_10
REMARK    6  A    between atoms: C_13  and  C_20
REMARK    7  A    between atoms: C_14  and  C_19
REMARK    8  A    between atoms: C_20  and  C_22
REMARK                            x       y       z     vdW  Elec       q    Type
REMARK                         _______ _______ _______ _____ _____    ______ ____
ROOT
ATOM      1  C   UNL     1       4.943   3.306   0.238  0.00  0.00    +0.140 C 
ATOM      2  C   UNL     1       4.938   4.821   0.269  0.00  0.00    +0.041 C 
ATOM      3  C   UNL     1       5.694   5.434   1.207  0.00  0.00    +0.018 C 
ATOM      4  N   UNL     1       6.437   4.711   2.095  0.00  0.00    -0.273 N 
ATOM      5  C   UNL     1       6.478   3.373   2.113  0.00  0.00    +0.304 C 
ATOM      6  O   UNL     1       7.170   2.817   2.944  0.00  0.00    -0.252 OA
ATOM      7  N   UNL     1       5.778   2.622   1.240  0.00  0.00    -0.288 N 
ATOM      8  C   UNL     1       5.719   6.940   1.272  0.00  0.00    +0.061 C 
ATOM      9  H   UNL     1       6.965   5.194   2.750  0.00  0.00    +0.156 HD
ATOM     10  H   UNL     1       5.822   1.654   1.271  0.00  0.00    +0.151 HD
ENDROOT
BRANCH   1  13
ATOM     11  C   UNL     1       1.471   2.029  -0.528  0.00  0.00    +0.162 A 
ATOM     12  C   UNL     1       2.777   2.465  -0.689  0.00  0.00    +0.055 A 
ATOM     13  C   UNL     1       3.523   2.833   0.415  0.00  0.00    -0.019 A 
ATOM     14  C   UNL     1       2.970   2.768   1.680  0.00  0.00    +0.009 A 
ATOM     15  C   UNL     1       1.667   2.339   1.847  0.00  0.00    +0.049 A 
ATOM     16  C   UNL     1       0.915   1.963   0.745  0.00  0.00    +0.158 A 
BRANCH  16  17
ATOM     17  O   UNL     1      -0.366   1.536   0.908  0.00  0.00    -0.503 OA
ATOM     18  H   UNL     1      -0.449   0.582   1.038  0.00  0.00    +0.292 HD
ENDBRANCH  16  17
BRANCH  11  19
ATOM     19  O   UNL     1       0.736   1.666  -1.613  0.00  0.00    -0.489 OA
BRANCH  19  21
ATOM     20  C   UNL     1       0.317   1.517  -3.989  0.00  0.00    +0.048 C 
ATOM     21  C   UNL     1       1.330   1.868  -2.897  0.00  0.00    +0.226 C 
ENDBRANCH  19  21
ENDBRANCH  11  19
ENDBRANCH   1  13
BRANCH   2  22
ATOM     22  C   UNL     1       4.167   5.569  -0.653  0.00  0.00    +0.193 C 
ATOM     23  O   UNL     1       3.225   6.233  -0.261  0.00  0.00    -0.287 OA
BRANCH  22  24
ATOM     24  C   UNL     1       4.506   5.543  -2.093  0.00  0.00    +0.022 A 
ATOM     25  C   UNL     1       5.636   4.853  -2.535  0.00  0.00    +0.012 A 
ATOM     26  C   UNL     1       5.944   4.829  -3.880  0.00  0.00    +0.001 A 
ATOM     27  C   UNL     1       5.141   5.496  -4.788  0.00  0.00    +0.000 A 
ATOM     28  C   UNL     1       4.023   6.187  -4.356  0.00  0.00    +0.001 A 
ATOM     29  C   UNL     1       3.701   6.214  -3.015  0.00  0.00    +0.012 A 
ENDBRANCH  22  24
ENDBRANCH   2  22
TORSDOF 6
