REMARK  Name = ZINC62703569
REMARK  5 active torsions:
REMARK  status: ('A' for Active; 'I' for Inactive)
REMARK    1  A    between atoms: C_2  and  C_3
REMARK    2  A    between atoms: C_3  and  O_4
REMARK    3  A    between atoms: O_4  and  C_5
REMARK    4  A    between atoms: C_8  and  C_12
REMARK    5  A    between atoms: C_13  and  C_14
REMARK                            x       y       z     vdW  Elec       q    Type
REMARK                         _______ _______ _______ _____ _____    ______ ____
ROOT
ATOM      1  C   UNL     1       2.606  -2.199   1.348  0.00  0.00    +0.135 A 
ATOM      2  C   UNL     1       3.564  -2.194   0.340  0.00  0.00    +0.047 A 
ATOM      3  C   UNL     1       4.721  -2.926   0.483  0.00  0.00    +0.011 A 
ATOM      4  C   UNL     1       4.932  -3.676   1.647  0.00  0.00    -0.024 A 
ATOM      5  C   UNL     1       3.965  -3.678   2.659  0.00  0.00    +0.026 A 
ATOM      6  C   UNL     1       2.813  -2.938   2.508  0.00  0.00    +0.060 A 
ATOM      7 BR   UNL     1       1.509  -2.932   3.877  0.00  0.00    -0.046 Br
ENDROOT
BRANCH   4   8
ATOM      8  C   UNL     1       6.165  -4.459   1.804  0.00  0.00    +0.015 C 
ATOM      9  C   UNL     1       6.367  -5.184   2.929  0.00  0.00    +0.096 C 
BRANCH   9  10
ATOM     10  C   UNL     1       7.554  -5.937   3.081  0.00  0.00    +0.380 C 
ATOM     11  O   UNL     1       8.399  -5.934   2.194  0.00  0.00    -0.241 OA
ATOM     12  O   UNL     1       7.737  -6.593   4.099  0.00  0.00    -0.241 OA
ENDBRANCH   9  10
ENDBRANCH   4   8
BRANCH   1  13
ATOM     13  O   UNL     1       1.467  -1.476   1.201  0.00  0.00    -0.486 OA
BRANCH  13  14
ATOM     14  C   UNL     1       1.317  -0.740  -0.015  0.00  0.00    +0.271 C 
BRANCH  14  16
ATOM     15  C   UNL     1      -0.016   1.307   0.009  0.00  0.00    +0.023 C 
ATOM     16  C   UNL     1       0.002  -0.004   0.002  0.00  0.00    +0.025 C 
ATOM     17 BR   UNL     1      -1.623  -0.972   0.012  0.00  0.00    -0.052 Br
ENDBRANCH  14  16
ENDBRANCH  13  14
ENDBRANCH   1  13
TORSDOF 5
