REMARK  Name = ZINC07449757
REMARK  5 active torsions:
REMARK  status: ('A' for Active; 'I' for Inactive)
REMARK    1  A    between atoms: C_1  and  O_2
REMARK    2  A    between atoms: O_2  and  C_3
REMARK    3  A    between atoms: C_7  and  C_11
REMARK    4  A    between atoms: C_8  and  O_9
REMARK    5  A    between atoms: O_9  and  C_10
REMARK                            x       y       z     vdW  Elec       q    Type
REMARK                         _______ _______ _______ _____ _____    ______ ____
ROOT
ATOM      1  C   UNL     1       3.724  -0.694  -0.037  0.00  0.00    +0.120 C 
ATOM      2  C   UNL     1       4.102  -1.035   1.387  0.00  0.00    +0.030 C 
ATOM      3  C   UNL     1       5.282  -0.882   2.003  0.00  0.00    +0.016 C 
ATOM      4  C   UNL     1       5.441  -1.153   3.490  0.00  0.00    +0.051 C 
ATOM      5  C   UNL     1       4.107  -0.987   4.213  0.00  0.00    +0.014 C 
ATOM      6  C   UNL     1       3.108  -1.951   3.557  0.00  0.00    +0.080 C 
ATOM      7  C   UNL     1       3.007  -1.590   2.106  0.00  0.00    +0.162 C 
ATOM      8  O   UNL     1       1.957  -1.777   1.524  0.00  0.00    -0.292 OA
ATOM      9  N   UNL     1       6.421  -0.515   1.382  0.00  0.00    -0.317 N 
ATOM     10  C   UNL     1       6.965  -1.046   0.226  0.00  0.00    +0.045 A 
ATOM     11  C   UNL     1       8.081  -1.866   0.231  0.00  0.00    +0.024 A 
ATOM     12  C   UNL     1       8.627  -2.268  -0.977  0.00  0.00    +0.002 A 
ATOM     13  C   UNL     1       8.064  -1.859  -2.172  0.00  0.00    +0.001 A 
ATOM     14  C   UNL     1       6.935  -1.056  -2.176  0.00  0.00    +0.016 A 
ATOM     15  C   UNL     1       6.386  -0.664  -0.966  0.00  0.00    +0.030 A 
ATOM     16  S   UNL     1       4.933   0.328  -0.897  0.00  0.00    -0.110 S 
ATOM     17  H   UNL     1       6.920   0.206   1.796  0.00  0.00    +0.152 HD
ENDROOT
BRANCH   1  22
ATOM     18  C   UNL     1       0.047   0.088  -0.482  0.00  0.00    +0.162 A 
ATOM     19  C   UNL     1      -0.017   1.381   0.012  0.00  0.00    +0.049 A 
ATOM     20  C   UNL     1       1.126   1.996   0.488  0.00  0.00    +0.004 A 
ATOM     21  C   UNL     1       2.334   1.325   0.472  0.00  0.00    +0.009 A 
ATOM     22  C   UNL     1       2.405   0.035  -0.021  0.00  0.00    +0.016 A 
ATOM     23  C   UNL     1       1.263  -0.588  -0.499  0.00  0.00    +0.166 A 
BRANCH  18  25
ATOM     24  C   UNL     1      -2.289   0.235  -0.904  0.00  0.00    +0.277 C 
ATOM     25  O   UNL     1      -1.076  -0.519  -0.951  0.00  0.00    -0.491 OA
ENDBRANCH  18  25
BRANCH  23  26
ATOM     26  O   UNL     1       1.331  -1.857  -0.984  0.00  0.00    -0.491 OA
ATOM     27  C   UNL     1       1.603  -2.004  -2.380  0.00  0.00    +0.277 C 
ENDBRANCH  23  26
ENDBRANCH   1  22
TORSDOF 3
