REMARK  Name = ZINC40797094
REMARK  5 active torsions:
REMARK  status: ('A' for Active; 'I' for Inactive)
REMARK    1  A    between atoms: C_9  and  S_11
REMARK    2  A    between atoms: S_11  and  C_12
REMARK    3  A    between atoms: C_13  and  N_29
REMARK    4  A    between atoms: C_14  and  N_18
REMARK    5  A    between atoms: N_18  and  C_19
REMARK                            x       y       z     vdW  Elec       q    Type
REMARK                         _______ _______ _______ _____ _____    ______ ____
ROOT
ATOM      1  C   UNL     1      -0.498  -2.902   0.057  0.00  0.00    +0.127 A 
ATOM      2  C   UNL     1      -0.879  -4.235   0.230  0.00  0.00    +0.098 A 
ATOM      3  C   UNL     1      -2.239  -4.518   0.372  0.00  0.00    +0.148 A 
ATOM      4  N   UNL     1      -3.113  -3.515   0.337  0.00  0.00    -0.219 NA
ATOM      5  C   UNL     1      -2.711  -2.271   0.172  0.00  0.00    +0.224 A 
ATOM      6  N   UNL     1      -1.438  -1.960   0.040  0.00  0.00    -0.227 NA
ENDROOT
BRANCH   2   7
ATOM      7  N   UNL     1       0.078  -5.261   0.261  0.00  0.00    -0.353 N 
ATOM      8  H   UNL     1       1.019  -5.049   0.161  0.00  0.00    +0.142 HD
ATOM      9  H   UNL     1      -0.202  -6.182   0.382  0.00  0.00    +0.142 HD
ENDBRANCH   2   7
BRANCH   3  10
ATOM     10  N   UNL     1      -2.673  -5.828   0.546  0.00  0.00    -0.297 N 
ATOM     11  H   UNL     1      -2.026  -6.543   0.655  0.00  0.00    +0.154 HD
BRANCH  10  12
ATOM     12  C   UNL     1      -4.036  -6.113   0.565  0.00  0.00    +0.042 A 
ATOM     13  C   UNL     1      -4.934  -5.262  -0.046  0.00  0.00    +0.024 A 
ATOM     14  C   UNL     1      -6.296  -5.541  -0.032  0.00  0.00    +0.004 A 
ATOM     15  C   UNL     1      -6.781  -6.656   0.582  0.00  0.00    +0.028 A 
ATOM     16  C   UNL     1      -5.902  -7.549   1.216  0.00  0.00    +0.073 A 
ATOM     17  C   UNL     1      -4.511  -7.278   1.203  0.00  0.00    +0.022 A 
ATOM     18  C   UNL     1      -3.634  -8.176   1.833  0.00  0.00    +0.013 A 
ATOM     19  C   UNL     1      -4.166  -9.284   2.432  0.00  0.00    +0.020 A 
ATOM     20  C   UNL     1      -5.542  -9.495   2.405  0.00  0.00    +0.111 A 
ATOM     21  N   UNL     1      -6.358  -8.649   1.825  0.00  0.00    -0.255 NA
ENDBRANCH  10  12
ENDBRANCH   3  10
BRANCH   1  22
ATOM     22  S   UNL     1       1.202  -2.475  -0.128  0.00  0.00    -0.066 S 
BRANCH  22  31
ATOM     23  C   UNL     1       1.610   1.398   0.919  0.00  0.00    +0.002 A 
ATOM     24  C   UNL     1       1.204   2.086  -0.184  0.00  0.00    +0.010 A 
ATOM     25  C   UNL     1       0.776   1.389  -1.326  0.00  0.00    +0.001 A 
ATOM     26  C   UNL     1       0.351   2.071  -2.482  0.00  0.00    +0.011 A 
ATOM     27  C   UNL     1      -0.050   1.330  -3.557  0.00  0.00    +0.020 A 
ATOM     28  C   UNL     1      -0.032  -0.062  -3.487  0.00  0.00    +0.111 A 
ATOM     29  N   UNL     1       0.364  -0.693  -2.408  0.00  0.00    -0.254 NA
ATOM     30  C   UNL     1       0.770  -0.027  -1.324  0.00  0.00    +0.085 A 
ATOM     31  C   UNL     1       1.196  -0.713  -0.165  0.00  0.00    +0.040 A 
ATOM     32  C   UNL     1       1.610   0.007   0.936  0.00  0.00    +0.017 A 
ENDBRANCH  22  31
ENDBRANCH   1  22
TORSDOF 5
