REMARK  Name = ZINC01418959
REMARK  11 active torsions:
REMARK  status: ('A' for Active; 'I' for Inactive)
REMARK    1  A    between atoms: C_1  and  C_2
REMARK    2  A    between atoms: C_7  and  C_8
REMARK    3  A    between atoms: C_8  and  N_9
REMARK    4  A    between atoms: N_9  and  C_10
REMARK    5  A    between atoms: C_10  and  C_12
REMARK    6  A    between atoms: C_10  and  C_19
REMARK    7  A    between atoms: N_21  and  C_22
REMARK    8  A    between atoms: C_25  and  O_28
REMARK    9  A    between atoms: O_28  and  C_29
REMARK   10  A    between atoms: C_30  and  C_32
REMARK   11  A    between atoms: C_32  and  N_33
REMARK                            x       y       z     vdW  Elec       q    Type
REMARK                         _______ _______ _______ _____ _____    ______ ____
ROOT
ATOM      1  N   UNL     1       2.757   4.018   1.057  0.00  0.00    -0.284 N 
ATOM      2  C   UNL     1       2.660   5.360   1.139  0.00  0.00    +0.238 C 
ATOM      3  O   UNL     1       3.200   5.953   2.049  0.00  0.00    -0.274 OA
ENDROOT
BRANCH   1   4
ATOM      4  C   UNL     1       2.198   3.313  -0.098  0.00  0.00    +0.144 C 
BRANCH   4  11
ATOM      5  C   UNL     1       2.018   1.360  -2.220  0.00  0.00    +0.044 C 
ATOM      6  C   UNL     1       3.105   2.403  -2.246  0.00  0.00    -0.046 A 
ATOM      7  C   UNL     1       4.016   2.426  -3.286  0.00  0.00    +0.003 A 
ATOM      8  C   UNL     1       5.011   3.385  -3.312  0.00  0.00    +0.000 A 
ATOM      9  C   UNL     1       5.100   4.316  -2.294  0.00  0.00    +0.000 A 
ATOM     10  C   UNL     1       4.189   4.294  -1.256  0.00  0.00    +0.005 A 
ATOM     11  C   UNL     1       3.191   3.337  -1.232  0.00  0.00    -0.027 A 
ENDBRANCH   4  11
ENDBRANCH   1   4
BRANCH   1  12
ATOM     12  C   UNL     1       3.422   3.266   2.123  0.00  0.00    +0.166 C 
BRANCH  12  13
ATOM     13  C   UNL     1       2.491   2.160   2.624  0.00  0.00    +0.023 C 
ATOM     14  C   UNL     1       3.207   1.329   3.697  0.00  0.00    +0.010 C 
ATOM     15  C   UNL     1       2.325   0.130   4.049  0.00  0.00    +0.027 C 
ATOM     16  C   UNL     1       0.922   0.584   4.328  0.00  0.00    -0.031 C 
ATOM     17  C   UNL     1       0.450   1.737   3.977  0.00  0.00    -0.031 C 
ATOM     18  C   UNL     1       1.242   2.784   3.249  0.00  0.00    +0.032 C 
ENDBRANCH  12  13
BRANCH  12  19
ATOM     19  C   UNL     1       4.690   2.651   1.589  0.00  0.00    +0.238 C 
ATOM     20  O   UNL     1       4.865   2.566   0.392  0.00  0.00    -0.273 OA
ATOM     21  N   UNL     1       5.630   2.195   2.442  0.00  0.00    -0.284 N 
ATOM     22  H   UNL     1       5.452   2.179   3.395  0.00  0.00    +0.155 HD
BRANCH  21  23
ATOM     23  C   UNL     1       6.863   1.746   1.950  0.00  0.00    +0.034 A 
ATOM     24  C   UNL     1       7.394   2.302   0.794  0.00  0.00    +0.027 A 
ATOM     25  C   UNL     1       8.611   1.862   0.313  0.00  0.00    +0.047 A 
ATOM     26  C   UNL     1       9.299   0.858   0.979  0.00  0.00    +0.120 A 
ATOM     27  C   UNL     1       8.766   0.299   2.132  0.00  0.00    +0.047 A 
ATOM     28  C   UNL     1       7.551   0.742   2.617  0.00  0.00    +0.027 A 
BRANCH  26  29
ATOM     29  O   UNL     1      10.495   0.422   0.502  0.00  0.00    -0.495 OA
ATOM     30  C   UNL     1      10.983   1.042  -0.689  0.00  0.00    +0.277 C 
ENDBRANCH  26  29
ENDBRANCH  21  23
ENDBRANCH  12  19
ENDBRANCH   1  12
BRANCH   2  31
ATOM     31  C   UNL     1       1.881   6.124   0.099  0.00  0.00    +0.241 C 
BRANCH  31  32
ATOM     32  N   UNL     1       2.034   7.562   0.334  0.00  0.00    -0.235 N 
ATOM     33  C   UNL     1       1.231   8.358   1.115  0.00  0.00    +0.090 A 
ATOM     34  C   UNL     1       0.107   8.122   1.900  0.00  0.00    +0.029 A 
ATOM     35  C   UNL     1      -0.474   9.155   2.583  0.00  0.00    +0.002 A 
ATOM     36  C   UNL     1       0.051  10.438   2.503  0.00  0.00    +0.002 A 
ATOM     37  C   UNL     1       1.156  10.694   1.744  0.00  0.00    +0.032 A 
ATOM     38  C   UNL     1       1.770   9.654   1.036  0.00  0.00    +0.113 A 
ATOM     39  N   UNL     1       2.845   9.600   0.224  0.00  0.00    -0.129 NA
ATOM     40  N   UNL     1       3.025   8.399  -0.201  0.00  0.00    -0.064 NA
ENDBRANCH  31  32
ENDBRANCH   2  31
TORSDOF 9
