REMARK  Name = ZINC05257989
REMARK  10 active torsions:
REMARK  status: ('A' for Active; 'I' for Inactive)
REMARK    1  A    between atoms: C_4  and  N_7
REMARK    2  A    between atoms: N_7  and  C_8
REMARK    3  A    between atoms: C_11  and  N_14
REMARK    4  A    between atoms: C_15  and  C_17
REMARK    5  A    between atoms: C_17  and  C_18
REMARK    6  A    between atoms: C_18  and  C_20
REMARK    7  A    between atoms: C_18  and  N_23
REMARK    8  A    between atoms: N_23  and  C_24
REMARK    9  A    between atoms: C_24  and  C_25
REMARK   10  A    between atoms: C_25  and  C_26
REMARK                            x       y       z     vdW  Elec       q    Type
REMARK                         _______ _______ _______ _____ _____    ______ ____
ROOT
ATOM      1  N   UNK A   1       4.073  -6.198   0.131  0.00  0.00    -0.286 N 
ATOM      2  C   UNK A   1       5.282  -6.770   0.296  0.00  0.00    +0.216 C 
ATOM      3  O   UNK A   1       6.281  -6.083   0.317  0.00  0.00    -0.276 OA
ATOM      4  H   UNK A   1       3.281  -6.752   0.050  0.00  0.00    +0.155 HD
ENDROOT
BRANCH   1   8
ATOM      5  C   UNK A   1       3.739  -2.044  -0.036  0.00  0.00    +0.031 A 
ATOM      6  C   UNK A   1       2.737  -2.798   0.562  0.00  0.00    +0.025 A 
ATOM      7  C   UNK A   1       2.848  -4.173   0.617  0.00  0.00    +0.025 A 
ATOM      8  C   UNK A   1       3.961  -4.802   0.074  0.00  0.00    +0.033 A 
ATOM      9  C   UNK A   1       4.962  -4.048  -0.523  0.00  0.00    +0.025 A 
ATOM     10  C   UNK A   1       4.849  -2.674  -0.584  0.00  0.00    +0.025 A 
BRANCH   5  11
ATOM     11  N   UNK A   1       3.627  -0.650  -0.092  0.00  0.00    -0.314 N 
ATOM     12  H   UNK A   1       3.970  -0.167  -0.859  0.00  0.00    +0.152 HD
BRANCH  11  16
ATOM     13  C   UNK A   1       1.818   1.420   3.036  0.00  0.00    +0.000 A 
ATOM     14  C   UNK A   1       2.395   0.185   3.268  0.00  0.00    +0.002 A 
ATOM     15  C   UNK A   1       2.995  -0.505   2.233  0.00  0.00    +0.023 A 
ATOM     16  C   UNK A   1       3.020   0.044   0.957  0.00  0.00    +0.031 A 
ATOM     17  C   UNK A   1       2.439   1.285   0.727  0.00  0.00    +0.023 A 
ATOM     18  C   UNK A   1       1.841   1.969   1.767  0.00  0.00    +0.002 A 
ENDBRANCH  11  16
ENDBRANCH   5  11
ENDBRANCH   1   8
BRANCH   2  19
ATOM     19  C   UNK A   1       5.393  -8.265   0.454  0.00  0.00    +0.091 C 
BRANCH  19  20
ATOM     20  C   UNK A   1       6.863  -8.652   0.625  0.00  0.00    +0.052 C 
BRANCH  20  21
ATOM     21  C   UNK A   1       6.986 -10.154   0.660  0.00  0.00    +0.343 C 
ATOM     22  O   UNK A   1       7.153 -10.777  -0.375  0.00  0.00    -0.248 OA
ATOM     23  O   UNK A   1       6.918 -10.746   1.723  0.00  0.00    -0.248 OA
ENDBRANCH  20  21
BRANCH  20  24
ATOM     24  N   UNK A   1       7.375  -8.090   1.881  0.00  0.00    +0.389 N 
ATOM     25  H   UNK A   1       7.218  -7.093   1.892  0.00  0.00    -0.085 HD
ATOM     26  H   UNK A   1       6.895  -8.514   2.660  0.00  0.00    -0.085 HD
BRANCH  24  27
ATOM     27  C   UNK A   0       8.815  -8.359   1.987  0.00  0.00    -0.077 C 
BRANCH  27  28
ATOM     28  C   UNK A   0       9.349  -7.773   3.296  0.00  0.00    +0.011 C 
BRANCH  28  29
ATOM     29  C   UNK A   0      10.826  -8.050   3.405  0.00  0.00    -0.075 C 
ATOM     30  C   UNK A   0      11.647  -7.130   3.010  0.00  0.00    -0.028 C 
ATOM     31  C   UNK A   0      13.141  -7.264   3.046  0.00  0.00    +0.027 C 
ATOM     32  C   UNK A   0      13.545  -8.408   3.978  0.00  0.00    +0.004 C 
ATOM     33  C   UNK A   0      12.719  -9.647   3.611  0.00  0.00    +0.005 C 
ATOM     34  C   UNK A   0      11.255  -9.373   3.969  0.00  0.00    +0.030 C 
ENDBRANCH  28  29
ENDBRANCH  27  28
ENDBRANCH  24  27
ENDBRANCH  20  24
ENDBRANCH  19  20
ENDBRANCH   2  19
TORSDOF 10
