REMARK  Name = ZINC15262349
REMARK  12 active torsions:
REMARK  status: ('A' for Active; 'I' for Inactive)
REMARK    1  A    between atoms: C_1  and  O_2
REMARK    2  A    between atoms: O_2  and  C_3
REMARK    3  A    between atoms: C_5  and  C_10
REMARK    4  A    between atoms: C_8  and  O_9
REMARK    5  A    between atoms: C_12  and  C_33
REMARK    6  A    between atoms: C_16  and  C_23
REMARK    7  A    between atoms: C_18  and  O_21
REMARK    8  A    between atoms: O_21  and  C_22
REMARK    9  A    between atoms: C_24  and  C_25
REMARK   10  A    between atoms: C_27  and  O_32
REMARK   11  A    between atoms: C_29  and  O_31
REMARK   12  A    between atoms: C_33  and  O_34
REMARK                            x       y       z     vdW  Elec       q    Type
REMARK                         _______ _______ _______ _____ _____    ______ ____
ROOT
ATOM      1  C   UNL     1       2.952   3.611  -0.421  0.00  0.00    +0.214 C 
ATOM      2  C   UNL     1       1.461   3.584  -0.010  0.00  0.00    +0.093 C 
ATOM      3  C   UNL     1       1.165   2.097   0.002  0.00  0.00    +0.008 A 
ATOM      4  C   UNL     1      -0.017   1.394   0.010  0.00  0.00    +0.016 A 
ATOM      5  C   UNL     1       0.002  -0.004   0.002  0.00  0.00    -0.021 A 
ATOM      6  C   UNL     1       1.228  -0.675  -0.013  0.00  0.00    +0.057 A 
ATOM      7  C   UNL     1       2.409   0.039  -0.018  0.00  0.00    +0.162 A 
ATOM      8  C   UNL     1       2.388   1.438  -0.006  0.00  0.00    +0.166 A 
ATOM      9  O   UNL     1       3.424   2.323   0.010  0.00  0.00    -0.480 OA
ENDROOT
BRANCH   1  12
ATOM     10  C   UNL     1       4.518   6.965   0.334  0.00  0.00    +0.162 A 
ATOM     11  C   UNL     1       3.852   5.944  -0.324  0.00  0.00    +0.056 A 
ATOM     12  C   UNL     1       3.683   4.719   0.293  0.00  0.00    -0.003 A 
ATOM     13  C   UNL     1       4.189   4.505   1.563  0.00  0.00    +0.011 A 
ATOM     14  C   UNL     1       4.860   5.518   2.222  0.00  0.00    +0.049 A 
ATOM     15  C   UNL     1       5.027   6.750   1.611  0.00  0.00    +0.158 A 
BRANCH  10  17
ATOM     16  C   UNL     1       4.131   8.322  -1.581  0.00  0.00    +0.277 C 
ATOM     17  O   UNL     1       4.680   8.173  -0.270  0.00  0.00    -0.491 OA
ENDBRANCH  10  17
BRANCH  15  18
ATOM     18  O   UNL     1       5.687   7.748   2.259  0.00  0.00    -0.503 OA
ATOM     19  H   UNL     1       6.640   7.760   2.096  0.00  0.00    +0.292 HD
ENDBRANCH  15  18
ENDBRANCH   1  12
BRANCH   7  20
ATOM     20  O   UNL     1       3.598  -0.620  -0.033  0.00  0.00    -0.491 OA
ATOM     21  C   UNL     1       3.548  -2.048  -0.045  0.00  0.00    +0.277 C 
ENDBRANCH   7  20
BRANCH   5  22
ATOM     22  C   UNL     1      -1.260  -0.764   0.011  0.00  0.00    +0.008 C 
ATOM     23  C   UNL     1      -1.236  -2.106   0.003  0.00  0.00    +0.009 C 
BRANCH  23  24
ATOM     24  C   UNL     1      -2.499  -2.866   0.012  0.00  0.00    -0.018 A 
ATOM     25  C   UNL     1      -3.722  -2.192   0.033  0.00  0.00    +0.053 A 
ATOM     26  C   UNL     1      -4.906  -2.911   0.036  0.00  0.00    +0.121 A 
ATOM     27  C   UNL     1      -4.878  -4.298   0.028  0.00  0.00    +0.090 A 
ATOM     28  C   UNL     1      -3.665  -4.973   0.012  0.00  0.00    +0.121 A 
ATOM     29  C   UNL     1      -2.476  -4.263   0.004  0.00  0.00    +0.053 A 
BRANCH  28  30
ATOM     30  O   UNL     1      -3.644  -6.331   0.004  0.00  0.00    -0.507 OA
ATOM     31  H   UNL     1      -3.630  -6.729   0.885  0.00  0.00    +0.292 HD
ENDBRANCH  28  30
BRANCH  26  32
ATOM     32  O   UNL     1      -6.097  -2.256   0.052  0.00  0.00    -0.507 OA
ATOM     33  H   UNL     1      -6.432  -2.072   0.940  0.00  0.00    +0.292 HD
ENDBRANCH  26  32
ENDBRANCH  23  24
ENDBRANCH   5  22
BRANCH   2  34
ATOM     34  C   UNL     1       1.265   4.192   1.380  0.00  0.00    +0.168 C 
BRANCH  34  35
ATOM     35  O   UNL     1      -0.117   4.131   1.736  0.00  0.00    -0.394 OA
ATOM     36  H   UNL     1      -0.316   4.500   2.608  0.00  0.00    +0.209 HD
ENDBRANCH  34  35
ENDBRANCH   2  34
TORSDOF 10
