REMARK  Name = ZINC04096779
REMARK  8 active torsions:
REMARK  status: ('A' for Active; 'I' for Inactive)
REMARK    1  A    between atoms: C_1  and  C_2
REMARK    2  A    between atoms: C_5  and  O_32
REMARK    3  A    between atoms: C_19  and  C_31
REMARK    4  A    between atoms: C_24  and  C_25
REMARK    5  A    between atoms: C_24  and  O_30
REMARK    6  A    between atoms: C_25  and  C_27
REMARK    7  A    between atoms: C_25  and  O_29
REMARK    8  A    between atoms: C_27  and  O_28
REMARK                            x       y       z     vdW  Elec       q    Type
REMARK                         _______ _______ _______ _____ _____    ______ ____
ROOT
ATOM      1  C   UNL     1      -3.215   3.738  -2.750  0.00  0.00    +0.012 C 
ATOM      2  C   UNL     1      -2.027   4.220  -1.917  0.00  0.00    -0.019 C 
ATOM      3  C   UNL     1      -0.807   4.405  -2.813  0.00  0.00    +0.010 C 
ATOM      4  C   UNL     1      -1.144   5.420  -3.915  0.00  0.00    +0.032 C 
ATOM      5  C   UNL     1      -1.595   6.755  -3.333  0.00  0.00    +0.115 C 
ATOM      6  C   UNL     1      -2.762   6.574  -2.353  0.00  0.00    +0.035 C 
ATOM      7  C   UNL     1      -2.332   5.583  -1.287  0.00  0.00    -0.002 C 
ATOM      8  C   UNL     1      -3.306   5.431  -0.131  0.00  0.00    +0.004 C 
ATOM      9  C   UNL     1      -2.531   4.789   1.034  0.00  0.00    +0.005 C 
ATOM     10  C   UNL     1      -1.386   3.952   0.469  0.00  0.00    +0.003 C 
ATOM     11  C   UNL     1      -1.821   3.212  -0.785  0.00  0.00    +0.065 C 
ATOM     12  C   UNL     1      -0.909   2.090  -1.181  0.00  0.00    +0.138 C 
ATOM     13  O   UNL     1      -0.807   1.735  -2.344  0.00  0.00    -0.297 OA
ATOM     14  C   UNL     1      -0.101   1.346  -0.120  0.00  0.00    +0.084 C 
ATOM     15  C   UNL     1      -0.777   1.602   1.210  0.00  0.00    +0.009 C 
ATOM     16  C   UNL     1      -0.697   3.117   1.492  0.00  0.00    +0.002 C 
ATOM     17  C   UNL     1      -1.165   3.208   2.947  0.00  0.00    +0.007 C 
ATOM     18  C   UNL     1      -0.500   1.968   3.606  0.00  0.00    +0.038 C 
ATOM     19  C   UNL     1      -0.102   1.010   2.454  0.00  0.00    +0.100 C 
ATOM     20  C   UNL     1      -2.222   1.095   1.193  0.00  0.00    +0.015 C 
ENDROOT
BRANCH  19  21
ATOM     21  O   UNL     1      -0.620  -0.298   2.709  0.00  0.00    -0.385 OA
ATOM     22  H   UNL     1      -0.234  -0.730   3.483  0.00  0.00    +0.210 HD
ENDBRANCH  19  21
BRANCH   5  23
ATOM     23  O   UNL     1      -2.007   7.619  -4.396  0.00  0.00    -0.392 OA
ATOM     24  H   UNL     1      -1.312   7.807  -5.041  0.00  0.00    +0.210 HD
ENDBRANCH   5  23
BRANCH  19  25
ATOM     25  C   UNL     1       1.415   0.958   2.305  0.00  0.00    +0.172 C 
BRANCH  25  26
ATOM     26  O   UNL     1       1.756   0.145   1.181  0.00  0.00    -0.387 OA
ATOM     27  H   UNL     1       1.444  -0.768   1.247  0.00  0.00    +0.210 HD
ENDBRANCH  25  26
BRANCH  25  28
ATOM     28  C   UNL     1       2.031   0.361   3.572  0.00  0.00    +0.190 C 
BRANCH  28  29
ATOM     29  O   UNL     1       3.456   0.419   3.482  0.00  0.00    -0.392 OA
ATOM     30  H   UNL     1       3.914   0.057   4.252  0.00  0.00    +0.210 HD
ENDBRANCH  28  29
ENDBRANCH  25  28
ENDBRANCH  19  25
TORSDOF 6
