REMARK  Name = ZINC36551120
REMARK  8 active torsions:
REMARK  status: ('A' for Active; 'I' for Inactive)
REMARK    1  A    between atoms: C_1  and  O_2
REMARK    2  A    between atoms: O_2  and  C_3
REMARK    3  A    between atoms: C_6  and  C_10
REMARK    4  A    between atoms: C_8  and  O_9
REMARK    5  A    between atoms: C_23  and  C_26
REMARK    6  A    between atoms: N_28  and  C_29
REMARK    7  A    between atoms: C_32  and  N_35
REMARK    8  A    between atoms: N_35  and  C_36
REMARK                            x       y       z     vdW  Elec       q    Type
REMARK                         _______ _______ _______ _____ _____    ______ ____
ROOT
ATOM      1  C   UNL     1       2.975  -2.240   4.505  0.00  0.00    +0.105 C 
ATOM      2  C   UNL     1       4.481  -2.276   4.322  0.00  0.00    +0.029 C 
ATOM      3  C   UNL     1       5.015  -2.866   3.010  0.00  0.00    +0.033 C 
ATOM      4  C   UNL     1       6.327  -2.098   2.839  0.00  0.00    -0.030 C 
ATOM      5  C   UNL     1       6.254  -0.929   3.464  0.00  0.00    -0.023 C 
ATOM      6  C   UNL     1       4.907  -0.794   4.096  0.00  0.00    +0.049 C 
ATOM      7  C   UNL     1       4.679  -0.061   5.361  0.00  0.00    -0.019 A 
ATOM      8  C   UNL     1       5.506   0.955   5.786  0.00  0.00    +0.006 A 
ATOM      9  C   UNL     1       5.252   1.624   6.972  0.00  0.00    +0.001 A 
ATOM     10  C   UNL     1       4.162   1.280   7.742  0.00  0.00    +0.015 A 
ATOM     11  C   UNL     1       3.314   0.251   7.330  0.00  0.00    +0.058 A 
ATOM     12  C   UNL     1       3.575  -0.437   6.134  0.00  0.00    +0.044 A 
ATOM     13  N   UNL     1       2.741  -1.490   5.758  0.00  0.00    -0.336 N 
ATOM     14  H   UNL     1       1.995  -1.736   6.327  0.00  0.00    +0.147 HD
ENDROOT
BRANCH   1  18
ATOM     15  C   UNL     1       1.133  -0.222   1.215  0.00  0.00    +0.161 A 
ATOM     16  C   UNL     1       1.507   0.487   2.345  0.00  0.00    +0.050 A 
ATOM     17  C   UNL     1       2.101  -0.168   3.407  0.00  0.00    +0.009 A 
ATOM     18  C   UNL     1       2.325  -1.531   3.345  0.00  0.00    -0.023 A 
ATOM     19  C   UNL     1       1.956  -2.244   2.220  0.00  0.00    +0.054 A 
ATOM     20  C   UNL     1       1.353  -1.595   1.154  0.00  0.00    +0.159 A 
BRANCH  15  22
ATOM     21  C   UNL     1       0.353   1.831   0.302  0.00  0.00    +0.277 C 
ATOM     22  O   UNL     1       0.548   0.421   0.170  0.00  0.00    -0.491 OA
ENDBRANCH  15  22
BRANCH  20  23
ATOM     23  O   UNL     1       0.984  -2.296   0.050  0.00  0.00    -0.503 OA
ATOM     24  H   UNL     1       1.672  -2.356  -0.627  0.00  0.00    +0.292 HD
ENDBRANCH  20  23
ENDBRANCH   1  18
BRANCH  11  25
ATOM     25  C   UNL     1       2.144  -0.113   8.150  0.00  0.00    +0.250 C 
ATOM     26  O   UNL     1       1.458  -1.068   7.840  0.00  0.00    -0.270 OA
ATOM     27  N   UNL     1       1.836   0.612   9.244  0.00  0.00    -0.281 N 
ATOM     28  H   UNL     1       2.342   1.413   9.453  0.00  0.00    +0.155 HD
BRANCH  27  29
ATOM     29  C   UNL     1       0.785   0.209  10.078  0.00  0.00    +0.034 A 
ATOM     30  C   UNL     1       0.037   1.160  10.759  0.00  0.00    +0.025 A 
ATOM     31  C   UNL     1      -0.999   0.763  11.582  0.00  0.00    +0.025 A 
ATOM     32  C   UNL     1      -1.292  -0.587  11.727  0.00  0.00    +0.031 A 
ATOM     33  C   UNL     1      -0.543  -1.538  11.045  0.00  0.00    +0.025 A 
ATOM     34  C   UNL     1       0.489  -1.140  10.218  0.00  0.00    +0.025 A 
BRANCH  32  35
ATOM     35  N   UNL     1      -2.341  -0.990  12.561  0.00  0.00    -0.314 N 
ATOM     36  H   UNL     1      -3.116  -0.418  12.675  0.00  0.00    +0.152 HD
BRANCH  35  37
ATOM     37  C   UNL     1      -2.271  -2.214  13.230  0.00  0.00    +0.031 A 
ATOM     38  C   UNL     1      -1.040  -2.721  13.628  0.00  0.00    +0.023 A 
ATOM     39  C   UNL     1      -0.975  -3.932  14.289  0.00  0.00    +0.002 A 
ATOM     40  C   UNL     1      -2.133  -4.640  14.554  0.00  0.00    +0.000 A 
ATOM     41  C   UNL     1      -3.360  -4.139  14.159  0.00  0.00    +0.002 A 
ATOM     42  C   UNL     1      -3.433  -2.925  13.503  0.00  0.00    +0.023 A 
ENDBRANCH  35  37
ENDBRANCH  32  35
ENDBRANCH  27  29
ENDBRANCH  11  25
TORSDOF 7
