REMARK  Name = ZINC63686426
REMARK  7 active torsions:
REMARK  status: ('A' for Active; 'I' for Inactive)
REMARK    1  A    between atoms: C_1  and  C_2
REMARK    2  A    between atoms: C_5  and  C_30
REMARK    3  A    between atoms: C_11  and  C_13
REMARK    4  A    between atoms: C_13  and  S_14
REMARK    5  A    between atoms: S_14  and  C_15
REMARK    6  A    between atoms: C_19  and  C_23
REMARK    7  A    between atoms: N_21  and  C_22
REMARK                            x       y       z     vdW  Elec       q    Type
REMARK                         _______ _______ _______ _____ _____    ______ ____
ROOT
ATOM      1  S   UNL     1      -1.094  -3.693   5.249  0.00  0.00    -0.119 S 
ENDROOT
BRANCH   1   2
ATOM      2  C   UNL     1      -0.764  -4.630   6.767  0.00  0.00    +0.200 C 
ATOM      3  N   UNL     1      -0.178  -3.750   7.811  0.00  0.00    -0.229 NA
ATOM      4  N   UNL     1       0.556  -4.663   8.691  0.00  0.00    -0.233 NA
ATOM      5  C   UNL     1       0.873  -5.865   7.893  0.00  0.00    +0.171 C 
ATOM      6  N   UNL     1       0.304  -5.639   6.542  0.00  0.00    -0.260 NA
ATOM      7  C   UNL     1      -0.252  -6.880   5.986  0.00  0.00    +0.109 C 
ATOM      8  H   UNL     1       0.442  -3.066   7.402  0.00  0.00    +0.143 HD
ATOM      9  H   UNL     1       1.397  -4.230   9.042  0.00  0.00    +0.143 HD
BRANCH   5  10
ATOM     10  C   UNL     1       2.366  -6.047   7.804  0.00  0.00    -0.012 A 
ATOM     11  C   UNL     1       2.928  -6.617   6.676  0.00  0.00    +0.007 A 
ATOM     12  C   UNL     1       4.297  -6.784   6.594  0.00  0.00    +0.003 A 
ATOM     13  C   UNL     1       5.107  -6.383   7.639  0.00  0.00    +0.038 A 
ATOM     14  C   UNL     1       4.546  -5.812   8.769  0.00  0.00    +0.124 A 
ATOM     15  C   UNL     1       3.175  -5.639   8.848  0.00  0.00    +0.045 A 
ATOM     16  F   UNL     1       5.337  -5.420   9.792  0.00  0.00    -0.205 F 
ENDBRANCH   5  10
ENDBRANCH   1   2
BRANCH   1  17
ATOM     17  C   UNL     1       0.514  -2.970   4.822  0.00  0.00    +0.125 C 
BRANCH  17  28
ATOM     18  C   UNL     1      -0.018   1.503   0.010  0.00  0.00    +0.044 C 
ATOM     19  C   UNL     1       0.002  -0.004   0.002  0.00  0.00    -0.038 A 
ATOM     20  C   UNL     1      -0.097  -0.686  -1.179  0.00  0.00    +0.004 A 
ATOM     21  C   UNL     1      -0.079  -2.074  -1.196  0.00  0.00    +0.005 A 
ATOM     22  C   UNL     1       0.040  -2.790  -0.025  0.00  0.00    -0.026 A 
ATOM     23  C   UNL     1       0.142  -2.116   1.189  0.00  0.00    +0.054 A 
ATOM     24  C   UNL     1       0.128  -0.710   1.198  0.00  0.00    +0.048 A 
ATOM     25  C   UNL     1       0.244  -0.015   2.493  0.00  0.00    +0.190 A 
ATOM     26  O   UNL     1       0.232   1.203   2.558  0.00  0.00    -0.287 OA
ATOM     27  C   UNL     1       0.369  -0.809   3.657  0.00  0.00    +0.073 A 
ATOM     28  C   UNL     1       0.379  -2.154   3.561  0.00  0.00    +0.030 A 
ATOM     29  N   UNL     1       0.262  -2.801   2.377  0.00  0.00    -0.357 N 
ATOM     30  C   UNL     1       0.058  -4.296  -0.057  0.00  0.00    +0.046 C 
ATOM     31  H   UNL     1       0.275  -3.771   2.364  0.00  0.00    +0.166 HD
ENDBRANCH  17  28
ENDBRANCH   1  17
TORSDOF 4
