REMARK  Name = ZINC20912700
REMARK  8 active torsions:
REMARK  status: ('A' for Active; 'I' for Inactive)
REMARK    1  A    between atoms: C_10  and  C_11
REMARK    2  A    between atoms: N_12  and  N_13
REMARK    3  A    between atoms: C_17  and  S_20
REMARK    4  A    between atoms: N_18  and  N_19
REMARK    5  A    between atoms: S_20  and  C_21
REMARK    6  A    between atoms: C_21  and  C_22
REMARK    7  A    between atoms: C_22  and  C_23
REMARK    8  A    between atoms: N_25  and  C_26
REMARK                            x       y       z     vdW  Elec       q    Type
REMARK                         _______ _______ _______ _____ _____    ______ ____
ROOT
ATOM      1  N   UNL     1      -1.377   0.049  -0.016  0.00  0.00    -0.204 N 
ATOM      2  C   UNL     1      -2.581  -0.639  -0.022  0.00  0.00    +0.254 A 
ATOM      3  N   UNL     1      -3.776  -0.100   0.006  0.00  0.00    -0.109 NA
ATOM      4  N   UNL     1      -4.719  -1.137  -0.016  0.00  0.00    -0.119 NA
ATOM      5  C   UNL     1      -4.068  -2.276  -0.048  0.00  0.00    +0.210 A 
ATOM      6  N   UNL     1      -2.731  -1.998  -0.053  0.00  0.00    -0.211 N 
ATOM      7  H   UNL     1      -0.427  -0.505  -0.037  0.00  0.00    +0.177 HD
ENDROOT
BRANCH   6   8
ATOM      8  N   UNL     1      -1.720  -2.916  -0.084  0.00  0.00    -0.294 N 
ATOM      9  H   UNL     1      -1.954  -3.990  -0.107  0.00  0.00    +0.163 HD
ATOM     10  H   UNL     1      -0.672  -2.581  -0.086  0.00  0.00    +0.163 HD
ENDBRANCH   6   8
BRANCH   1  12
ATOM     11  C   UNL     1      -0.241   2.095   0.023  0.00  0.00    +0.139 C 
ATOM     12  N   UNL     1      -1.370   1.450   0.017  0.00  0.00    -0.187 NA
BRANCH  11  22
ATOM     13  C   UNL     1      -3.805   5.793   0.498  0.00  0.00    +0.001 A 
ATOM     14  C   UNL     1      -3.853   4.401   0.469  0.00  0.00    +0.001 A 
ATOM     15  C   UNL     1      -2.714   3.664   0.328  0.00  0.00    +0.009 A 
ATOM     16  C   UNL     1      -1.480   4.314   0.210  0.00  0.00    -0.009 A 
ATOM     17  C   UNL     1      -1.428   5.729   0.238  0.00  0.00    -0.017 A 
ATOM     18  C   UNL     1      -2.622   6.456   0.385  0.00  0.00    +0.008 A 
ATOM     19  C   UNL     1      -0.187   6.377   0.119  0.00  0.00    +0.008 A 
ATOM     20  C   UNL     1       0.961   5.659  -0.023  0.00  0.00    +0.001 A 
ATOM     21  C   UNL     1       0.958   4.271  -0.049  0.00  0.00    +0.010 A 
ATOM     22  C   UNL     1      -0.234   3.564   0.057  0.00  0.00    +0.002 A 
ENDBRANCH  11  22
ENDBRANCH   1  12
BRANCH   5  23
ATOM     23  S   UNL     1      -4.792  -3.882  -0.080  0.00  0.00    -0.084 S 
BRANCH  23  24
ATOM     24  C   UNL     1      -6.546  -3.436  -0.054  0.00  0.00    +0.086 C 
BRANCH  24  25
ATOM     25  C   UNL     1      -7.396  -4.708  -0.077  0.00  0.00    +0.107 C 
BRANCH  25  26
ATOM     26  C   UNL     1      -8.856  -4.338  -0.056  0.00  0.00    +0.218 C 
ATOM     27  O   UNL     1      -9.185  -3.171  -0.025  0.00  0.00    -0.275 OA
ATOM     28  N   UNL     1      -9.797  -5.303  -0.070  0.00  0.00    -0.284 N 
ATOM     29  H   UNL     1      -9.501  -6.357  -0.173  0.00  0.00    +0.155 HD
BRANCH  28  30
ATOM     30  C   UNL     1     -11.150  -4.963   0.046  0.00  0.00    +0.052 A 
ATOM     31  C   UNL     1     -11.623  -3.785  -0.518  0.00  0.00    +0.025 A 
ATOM     32  C   UNL     1     -12.959  -3.456  -0.407  0.00  0.00    +0.002 A 
ATOM     33  C   UNL     1     -13.825  -4.292   0.275  0.00  0.00    +0.002 A 
ATOM     34  C   UNL     1     -13.357  -5.462   0.842  0.00  0.00    +0.022 A 
ATOM     35  C   UNL     1     -12.022  -5.801   0.730  0.00  0.00    +0.062 A 
ATOM     36 CL   UNL     1     -11.435  -7.271   1.443  0.00  0.00    -0.082 Cl
ENDBRANCH  28  30
ENDBRANCH  25  26
ENDBRANCH  24  25
ENDBRANCH  23  24
ENDBRANCH   5  23
TORSDOF 8
