REMARK  Name = ZINC06074365
REMARK  11 active torsions:
REMARK  status: ('A' for Active; 'I' for Inactive)
REMARK    1  A    between atoms: C_1  and  C_2
REMARK    2  A    between atoms: C_2  and  C_3
REMARK    3  A    between atoms: C_2  and  C_4
REMARK    4  A    between atoms: C_2  and  N_5
REMARK    5  A    between atoms: C_6  and  C_8
REMARK    6  A    between atoms: C_8  and  N_9
REMARK    7  A    between atoms: N_9  and  C_10
REMARK    8  A    between atoms: C_17  and  C_19
REMARK    9  A    between atoms: C_20  and  N_33
REMARK   10  A    between atoms: C_21  and  C_24
REMARK   11  A    between atoms: N_26  and  C_27
REMARK                            x       y       z     vdW  Elec       q    Type
REMARK                         _______ _______ _______ _____ _____    ______ ____
ROOT
ATOM      1  N   UNL     1       4.296  -0.384  -2.491  0.00  0.00    -0.255 N 
ATOM      2  C   UNL     1       4.423   0.805  -3.113  0.00  0.00    +0.261 C 
ATOM      3  O   UNL     1       3.447   1.343  -3.602  0.00  0.00    -0.269 OA
ENDROOT
BRANCH   1   4
ATOM      4  C   UNL     1       5.419  -1.003  -1.929  0.00  0.00    +0.072 A 
ATOM      5  C   UNL     1       6.189  -1.872  -2.691  0.00  0.00    +0.026 A 
ATOM      6  C   UNL     1       7.296  -2.481  -2.133  0.00  0.00    +0.002 A 
ATOM      7  C   UNL     1       7.640  -2.226  -0.818  0.00  0.00    +0.003 A 
ATOM      8  C   UNL     1       6.877  -1.362  -0.056  0.00  0.00    +0.040 A 
ATOM      9  C   UNL     1       5.769  -0.745  -0.608  0.00  0.00    +0.145 A 
ATOM     10  F   UNL     1       5.026   0.104   0.135  0.00  0.00    -0.204 F 
ENDBRANCH   1   4
BRANCH   2  11
ATOM     11  C   UNL     1       5.735   1.449  -3.201  0.00  0.00    +0.116 A 
ATOM     12  C   UNL     1       6.084   2.667  -3.787  0.00  0.00    +0.076 A 
ATOM     13  C   UNL     1       7.441   2.965  -3.679  0.00  0.00    +0.156 A 
ATOM     14  N   UNL     1       8.244   2.120  -3.066  0.00  0.00    -0.203 NA
ATOM     15  S   UNL     1       7.309   0.892  -2.581  0.00  0.00    +0.019 S 
BRANCH  13  16
ATOM     16  C   UNL     1       7.974   4.216  -4.247  0.00  0.00    +0.265 C 
ATOM     17  O   UNL     1       7.216   5.038  -4.725  0.00  0.00    -0.268 OA
ATOM     18  N   UNL     1       9.302   4.449  -4.237  0.00  0.00    -0.307 N 
ATOM     19  H   UNL     1       9.906   3.794  -3.856  0.00  0.00    +0.149 HD
BRANCH  18  20
ATOM     20  C   UNL     1       9.831   5.693  -4.803  0.00  0.00    +0.073 C 
ATOM     21  C   UNL     1      10.020   5.528  -6.312  0.00  0.00    +0.022 C 
ATOM     22  C   UNL     1      10.573   6.826  -6.902  0.00  0.00    +0.002 C 
ATOM     23  C   UNL     1      11.920   7.149  -6.252  0.00  0.00    +0.000 C 
ATOM     24  C   UNL     1      11.731   7.314  -4.742  0.00  0.00    +0.002 C 
ATOM     25  C   UNL     1      11.178   6.016  -4.152  0.00  0.00    +0.022 C 
ENDBRANCH  18  20
ENDBRANCH  13  16
BRANCH  12  26
ATOM     26  N   UNL     1       5.169   3.499  -4.417  0.00  0.00    -0.355 N 
ATOM     27  H   UNL     1       4.250   3.211  -4.533  0.00  0.00    +0.142 HD
ATOM     28  H   UNL     1       5.449   4.370  -4.741  0.00  0.00    +0.142 HD
ENDBRANCH  12  26
ENDBRANCH   2  11
BRANCH   1  29
ATOM     29  C   UNL     1       2.984  -1.029  -2.404  0.00  0.00    +0.209 C 
BRANCH  29  31
ATOM     30  N   UNL     1       1.057  -1.048  -0.852  0.00  0.00    -0.309 N 
ATOM     31  C   UNL     1       2.287  -0.581  -1.145  0.00  0.00    +0.231 C 
ATOM     32  O   UNL     1       2.833   0.200  -0.394  0.00  0.00    -0.274 OA
ATOM     33  H   UNL     1       0.620  -1.673  -1.452  0.00  0.00    +0.149 HD
BRANCH  30  35
ATOM     34  C   UNL     1       0.201   0.907   0.343  0.00  0.00    +0.031 C 
ATOM     35  C   UNL     1       0.380  -0.613   0.372  0.00  0.00    +0.026 C 
ATOM     36  C   UNL     1       1.223  -1.004   1.587  0.00  0.00    +0.031 C 
ATOM     37  C   UNL     1      -0.991  -1.286   0.463  0.00  0.00    +0.031 C 
ENDBRANCH  30  35
ENDBRANCH  29  31
ENDBRANCH   1  29
TORSDOF 8
