REMARK  Name = ZINC39335247
REMARK  7 active torsions:
REMARK  status: ('A' for Active; 'I' for Inactive)
REMARK    1  A    between atoms: C_4  and  N_8
REMARK    2  A    between atoms: C_9  and  C_11
REMARK    3  A    between atoms: C_11  and  S_12
REMARK    4  A    between atoms: S_12  and  C_13
REMARK    5  A    between atoms: C_14  and  C_27
REMARK    6  A    between atoms: C_21  and  C_25
REMARK    7  A    between atoms: C_22  and  N_24
REMARK                            x       y       z     vdW  Elec       q    Type
REMARK                         _______ _______ _______ _____ _____    ______ ____
ROOT
ATOM      1  C   UNL     1       6.277  -5.206   0.373  0.00  0.00    +0.081 C 
ATOM      2  C   UNL     1       6.421  -6.553   0.467  0.00  0.00    +0.068 C 
ATOM      3  C   UNL     1       7.777  -7.197   0.548  0.00  0.00    +0.045 C 
ATOM      4  C   UNL     1       7.752  -8.296   1.615  0.00  0.00    +0.018 C 
ATOM      5  C   UNL     1       9.131  -8.954   1.699  0.00  0.00    +0.001 C 
ATOM      6  C   UNL     1       9.483  -9.574   0.345  0.00  0.00    +0.000 C 
ATOM      7  C   UNL     1       9.501  -8.483  -0.726  0.00  0.00    +0.001 C 
ATOM      8  C   UNL     1       8.122  -7.824  -0.807  0.00  0.00    +0.018 C 
ATOM      9  C   UNL     1       8.826  -6.182   0.906  0.00  0.00    +0.076 C 
ATOM     10  C   UNL     1       8.594  -4.849   0.797  0.00  0.00    +0.100 C 
ATOM     11  N   UNL     1       7.378  -4.380   0.354  0.00  0.00    -0.296 N 
ATOM     12  H   UNL     1       7.296  -3.468   0.033  0.00  0.00    +0.154 HD
ENDROOT
BRANCH  10  13
ATOM     13  N   UNL     1       9.587  -3.958   1.128  0.00  0.00    -0.346 N 
ATOM     14  H   UNL     1      10.447  -4.282   1.437  0.00  0.00    +0.143 HD
ATOM     15  H   UNL     1       9.427  -3.004   1.053  0.00  0.00    +0.143 HD
ENDBRANCH  10  13
BRANCH   9  16
ATOM     16  C   UNL     1      10.102  -6.632   1.375  0.00  0.00    +0.099 C 
ATOM     17  N   UNL     1      11.115  -6.989   1.747  0.00  0.00    -0.191 NA
ENDBRANCH   9  16
BRANCH   2  18
ATOM     18  C   UNL     1       5.253  -7.381   0.488  0.00  0.00    +0.098 C 
ATOM     19  N   UNL     1       4.325  -8.037   0.506  0.00  0.00    -0.191 NA
ENDBRANCH   2  18
BRANCH   1  20
ATOM     20  S   UNL     1       4.662  -4.507   0.268  0.00  0.00    -0.100 S 
BRANCH  20  21
ATOM     21  C   UNL     1       4.963  -2.722   0.155  0.00  0.00    +0.171 C 
BRANCH  21  23
ATOM     22  N   UNL     1       3.623  -0.652  -0.036  0.00  0.00    -0.284 N 
ATOM     23  C   UNL     1       3.646  -1.996   0.058  0.00  0.00    +0.227 C 
ATOM     24  O   UNL     1       2.607  -2.622   0.065  0.00  0.00    -0.275 OA
ATOM     25  H   UNL     1       4.453  -0.157  -0.123  0.00  0.00    +0.155 HD
BRANCH  22  29
ATOM     26  C   UNL     1      -0.015   1.381   0.042  0.00  0.00    +0.021 A 
ATOM     27  C   UNL     1       1.083   1.956  -0.572  0.00  0.00    +0.023 A 
ATOM     28  C   UNL     1       2.290   1.284  -0.600  0.00  0.00    +0.062 A 
ATOM     29  C   UNL     1       2.401   0.031  -0.009  0.00  0.00    +0.053 A 
ATOM     30  C   UNL     1       1.297  -0.543   0.606  0.00  0.00    +0.044 A 
ATOM     31  C   UNL     1       0.092   0.134   0.630  0.00  0.00    +0.043 A 
ATOM     32 CL   UNL     1      -1.289  -0.583   1.401  0.00  0.00    -0.083 Cl
ATOM     33 CL   UNL     1       3.668   2.006  -1.371  0.00  0.00    -0.082 Cl
ENDBRANCH  22  29
ENDBRANCH  21  23
ENDBRANCH  20  21
ENDBRANCH   1  20
TORSDOF 7
