REMARK  Name = ZINC12775226
REMARK  14 active torsions:
REMARK  status: ('A' for Active; 'I' for Inactive)
REMARK    1  A    between atoms: C_1  and  C_2
REMARK    2  A    between atoms: C_2  and  C_3
REMARK    3  A    between atoms: C_3  and  N_4
REMARK    4  A    between atoms: N_4  and  C_5
REMARK    5  A    between atoms: C_8  and  S_26
REMARK    6  A    between atoms: C_10  and  N_11
REMARK    7  A    between atoms: N_11  and  S_12
REMARK    8  A    between atoms: S_12  and  C_15
REMARK    9  A    between atoms: C_16  and  C_25
REMARK   10  A    between atoms: C_17  and  C_24
REMARK   11  A    between atoms: C_18  and  C_23
REMARK   12  A    between atoms: C_19  and  C_22
REMARK   13  A    between atoms: C_20  and  C_21
REMARK   14  A    between atoms: S_26  and  N_29
REMARK                            x       y       z     vdW  Elec       q    Type
REMARK                         _______ _______ _______ _____ _____    ______ ____
ROOT
ATOM      1  C   UNL     1      -5.337   4.421   5.213  0.00  0.00    +0.050 A 
ATOM      2  C   UNL     1      -6.211   5.262   4.542  0.00  0.00    +0.027 A 
ATOM      3  C   UNL     1      -5.757   6.031   3.487  0.00  0.00    +0.030 A 
ATOM      4  C   UNL     1      -4.431   5.970   3.101  0.00  0.00    +0.107 A 
ATOM      5  C   UNL     1      -3.551   5.138   3.769  0.00  0.00    +0.054 A 
ATOM      6  C   UNL     1      -3.998   4.363   4.828  0.00  0.00    +0.071 A 
ENDROOT
BRANCH   4   7
ATOM      7  S   UNL     1      -3.861   6.953   1.755  0.00  0.00    +0.056 S 
ATOM      8  O   UNL     1      -4.755   8.052   1.648  0.00  0.00    -0.153 OA
ATOM      9  O   UNL     1      -2.462   7.123   1.940  0.00  0.00    -0.153 OA
BRANCH   7  10
ATOM     10  N   UNL     1      -4.049   6.053   0.377  0.00  0.00    -0.204 NA
ATOM     11  H   UNL     1      -4.419   5.158   0.429  0.00  0.00    +0.144 HD
ATOM     12  H   UNL     1      -3.790   6.422  -0.482  0.00  0.00    +0.144 HD
ENDBRANCH   7  10
ENDBRANCH   4   7
BRANCH   1  13
ATOM     13  N   UNL     1      -5.796   3.637   6.279  0.00  0.00    -0.342 N 
ATOM     14  H   UNL     1      -5.182   3.052   6.750  0.00  0.00    +0.146 HD
BRANCH  13  15
ATOM     15  C   UNL     1      -7.203   3.699   6.682  0.00  0.00    +0.101 C 
BRANCH  15  17
ATOM     16  C   UNL     1      -8.908   2.818   8.281  0.00  0.00    +0.005 C 
ATOM     17  C   UNL     1      -7.439   2.752   7.860  0.00  0.00    +0.015 C 
ENDBRANCH  15  17
ENDBRANCH  13  15
ENDBRANCH   1  13
BRANCH   6  18
ATOM     18  N   UNL     1      -3.108   3.520   5.506  0.00  0.00    -0.214 N 
ATOM     19  H   UNL     1      -2.683   3.821   6.324  0.00  0.00    +0.174 HD
BRANCH  18  20
ATOM     20  S   UNL     1      -2.781   2.010   4.909  0.00  0.00    +0.073 S 
ATOM     21  O   UNL     1      -4.036   1.381   4.688  0.00  0.00    -0.150 OA
ATOM     22  O   UNL     1      -1.785   1.447   5.752  0.00  0.00    -0.150 OA
BRANCH  20  23
ATOM     23  C   UNL     1      -2.039   2.225   3.326  0.00  0.00    +0.115 A 
ATOM     24  C   UNL     1      -2.825   2.235   2.189  0.00  0.00    -0.020 A 
ATOM     25  C   UNL     1      -2.243   2.403   0.947  0.00  0.00    -0.043 A 
ATOM     26  C   UNL     1      -0.873   2.562   0.842  0.00  0.00    -0.044 A 
ATOM     27  C   UNL     1      -0.086   2.546   1.978  0.00  0.00    -0.043 A 
ATOM     28  C   UNL     1      -0.669   2.383   3.221  0.00  0.00    -0.020 A 
ATOM     29  C   UNL     1       0.188   2.371   4.460  0.00  0.00    +0.046 C 
ATOM     30  C   UNL     1       1.407   2.713   1.863  0.00  0.00    +0.044 C 
ATOM     31  C   UNL     1      -0.238   2.745  -0.512  0.00  0.00    +0.044 C 
ATOM     32  C   UNL     1      -3.100   2.414  -0.292  0.00  0.00    +0.044 C 
ATOM     33  C   UNL     1      -4.318   2.062   2.304  0.00  0.00    +0.046 C 
ENDBRANCH  20  23
ENDBRANCH  18  20
ENDBRANCH   6  18
TORSDOF 8
