REMARK  Name = ZINC45166046
REMARK  5 active torsions:
REMARK  status: ('A' for Active; 'I' for Inactive)
REMARK    1  A    between atoms: C_1  and  C_2
REMARK    2  A    between atoms: C_4  and  N_9
REMARK    3  A    between atoms: N_9  and  S_10
REMARK    4  A    between atoms: S_10  and  C_13
REMARK    5  A    between atoms: C_14  and  N_20
REMARK                            x       y       z     vdW  Elec       q    Type
REMARK                         _______ _______ _______ _____ _____    ______ ____
ROOT
ATOM      1  S   UNL     1       1.147  -3.975  -2.692  0.00  0.00    +0.076 S 
ATOM      2  O   UNL     1       0.810  -4.368  -4.015  0.00  0.00    -0.150 OA
ATOM      3  O   UNL     1       2.462  -3.579  -2.327  0.00  0.00    -0.150 OA
ENDROOT
BRANCH   1   4
ATOM      4  C   UNL     1       0.717  -5.322  -1.641  0.00  0.00    +0.147 A 
ATOM      5  C   UNL     1      -0.477  -6.003  -1.837  0.00  0.00    +0.053 A 
ATOM      6  C   UNL     1      -0.813  -7.064  -1.006  0.00  0.00    +0.025 A 
ATOM      7  C   UNL     1       0.041  -7.439   0.012  0.00  0.00    +0.003 A 
ATOM      8  C   UNL     1       1.230  -6.760   0.206  0.00  0.00    +0.022 A 
ATOM      9  C   UNL     1       1.570  -5.705  -0.624  0.00  0.00    +0.069 A 
ATOM     10 CL   UNL     1       3.067  -4.860  -0.382  0.00  0.00    -0.081 Cl
BRANCH   5  11
ATOM     11  N   UNL     1      -1.340  -5.621  -2.867  0.00  0.00    -0.356 N 
ATOM     12  H   UNL     1      -1.143  -4.833  -3.398  0.00  0.00    +0.142 HD
ATOM     13  H   UNL     1      -2.136  -6.143  -3.052  0.00  0.00    +0.142 HD
ENDBRANCH   5  11
ENDBRANCH   1   4
BRANCH   1  14
ATOM     14  N   UNL     1       0.148  -2.712  -2.304  0.00  0.00    -0.216 N 
ATOM     15  H   UNL     1      -0.514  -2.404  -2.942  0.00  0.00    +0.174 HD
BRANCH  14  19
ATOM     16  C   UNL     1       0.406   1.409   0.360  0.00  0.00    +0.045 C 
ATOM     17  C   UNL     1       0.386  -0.094   0.264  0.00  0.00    -0.035 A 
ATOM     18  C   UNL     1       0.277  -0.705  -0.970  0.00  0.00    +0.029 A 
ATOM     19  C   UNL     1       0.259  -2.091  -1.058  0.00  0.00    +0.048 A 
ATOM     20  C   UNL     1       0.351  -2.859   0.097  0.00  0.00    +0.025 A 
ATOM     21  C   UNL     1       0.460  -2.243   1.327  0.00  0.00    +0.017 A 
ATOM     22  C   UNL     1       0.483  -0.862   1.411  0.00  0.00    +0.021 A 
ATOM     23 BR   UNL     1       0.641  -0.021   3.098  0.00  0.00    -0.050 Br
ENDBRANCH  14  19
ENDBRANCH   1  14
TORSDOF 4
