REMARK  Name = ZINC57014138
REMARK  7 active torsions:
REMARK  status: ('A' for Active; 'I' for Inactive)
REMARK    1  A    between atoms: C_1  and  C_2
REMARK    2  A    between atoms: C_5  and  C_8
REMARK    3  A    between atoms: C_8  and  C_10
REMARK    4  A    between atoms: C_8  and  N_23
REMARK    5  A    between atoms: C_10  and  N_11
REMARK    6  A    between atoms: N_14  and  N_15
REMARK    7  A    between atoms: N_15  and  C_16
REMARK                            x       y       z     vdW  Elec       q    Type
REMARK                         _______ _______ _______ _____ _____    ______ ____
ROOT
ATOM      1  C   UNL     1       1.523  -4.652   0.159  0.00  0.00    +0.129 C 
ENDROOT
BRANCH   1   2
ATOM      2  N   UNL     1       1.639  -6.110   0.236  0.00  0.00    -0.296 N 
ATOM      3  C   UNL     1       2.856  -6.687   0.295  0.00  0.00    +0.316 C 
ATOM      4  O   UNL     1       3.857  -5.997   0.285  0.00  0.00    -0.251 OA
ATOM      5  N   UNL     1       2.962  -8.029   0.366  0.00  0.00    -0.220 N 
ATOM      6  H   UNL     1       0.840  -6.661   0.244  0.00  0.00    +0.150 HD
ATOM      7  H   UNL     1       3.838  -8.444   0.408  0.00  0.00    +0.174 HD
BRANCH   5   8
ATOM      8  N   UNL     1       1.809  -8.824   0.378  0.00  0.00    -0.263 N 
ATOM      9  H   UNL     1       0.933  -8.409   0.335  0.00  0.00    +0.170 HD
BRANCH   8  10
ATOM     10  C   UNL     1       1.920 -10.216   0.451  0.00  0.00    +0.045 A 
ATOM     11  C   UNL     1       3.173 -10.811   0.518  0.00  0.00    +0.027 A 
ATOM     12  C   UNL     1       3.280 -12.186   0.590  0.00  0.00    +0.040 A 
ATOM     13  C   UNL     1       2.140 -12.971   0.596  0.00  0.00    +0.124 A 
ATOM     14  C   UNL     1       0.889 -12.380   0.530  0.00  0.00    +0.040 A 
ATOM     15  C   UNL     1       0.777 -11.005   0.463  0.00  0.00    +0.027 A 
ATOM     16  F   UNL     1       2.247 -14.316   0.667  0.00  0.00    -0.205 F 
ENDBRANCH   8  10
ENDBRANCH   5   8
ENDBRANCH   1   2
BRANCH   1  17
ATOM     17  C   UNL     1       0.053  -4.267  -0.025  0.00  0.00    +0.104 C 
BRANCH  17  22
ATOM     18  C   UNL     1      -0.402   1.483  -0.390  0.00  0.00    +0.044 C 
ATOM     19  C   UNL     1      -0.283  -0.017  -0.295  0.00  0.00    -0.050 A 
ATOM     20  C   UNL     1      -0.499  -0.799  -1.414  0.00  0.00    +0.003 A 
ATOM     21  C   UNL     1      -0.390  -2.175  -1.326  0.00  0.00    +0.005 A 
ATOM     22  C   UNL     1      -0.064  -2.767  -0.121  0.00  0.00    -0.029 A 
ATOM     23  C   UNL     1       0.153  -1.984   0.998  0.00  0.00    +0.005 A 
ATOM     24  C   UNL     1       0.048  -0.609   0.910  0.00  0.00    +0.003 A 
ENDBRANCH  17  22
BRANCH  17  25
ATOM     25  N   UNL     1      -0.726  -4.747   1.123  0.00  0.00    -0.290 NA
ATOM     26  C   UNL     1      -1.926  -3.922   1.327  0.00  0.00    +0.113 C 
ATOM     27  C   UNL     1      -2.738  -4.492   2.493  0.00  0.00    +0.175 C 
ATOM     28  O   UNL     1      -1.914  -4.547   3.660  0.00  0.00    -0.377 OA
ATOM     29  C   UNL     1      -0.736  -5.342   3.497  0.00  0.00    +0.175 C 
ATOM     30  C   UNL     1       0.096  -4.781   2.341  0.00  0.00    +0.113 C 
ENDBRANCH  17  25
ENDBRANCH   1  17
TORSDOF 6
