REMARK  Name = ZINC02356006
REMARK  9 active torsions:
REMARK  status: ('A' for Active; 'I' for Inactive)
REMARK    1  A    between atoms: C_9  and  C_27
REMARK    2  A    between atoms: C_10  and  N_26
REMARK    3  A    between atoms: N_11  and  C_14
REMARK    4  A    between atoms: C_14  and  C_15
REMARK    5  A    between atoms: C_15  and  C_16
REMARK    6  A    between atoms: C_19  and  S_22
REMARK    7  A    between atoms: S_22  and  N_25
REMARK    8  A    between atoms: C_27  and  O_29
REMARK    9  A    between atoms: O_29  and  C_30
REMARK                            x       y       z     vdW  Elec       q    Type
REMARK                         _______ _______ _______ _____ _____    ______ ____
ROOT
ATOM      1  C   UNL     1       5.124   4.624   5.485  0.00  0.00    +0.002 A 
ATOM      2  C   UNL     1       6.448   4.787   5.080  0.00  0.00    +0.002 A 
ATOM      3  C   UNL     1       6.900   4.232   3.923  0.00  0.00    +0.030 A 
ATOM      4  C   UNL     1       6.024   3.481   3.119  0.00  0.00    +0.092 A 
ATOM      5  C   UNL     1       4.677   3.315   3.531  0.00  0.00    +0.090 A 
ATOM      6  C   UNL     1       4.247   3.904   4.734  0.00  0.00    +0.030 A 
ATOM      7  N   UNL     1       3.834   2.604   2.776  0.00  0.00    -0.241 NA
ATOM      8  C   UNL     1       4.265   2.062   1.652  0.00  0.00    +0.124 A 
ATOM      9  C   UNL     1       3.618   1.242   0.613  0.00  0.00    +0.126 A 
ATOM     10  C   UNL     1       4.598   0.977  -0.341  0.00  0.00    +0.114 A 
ATOM     11  N   UNL     1       5.768   1.560   0.037  0.00  0.00    -0.312 N 
ATOM     12  C   UNL     1       5.614   2.225   1.238  0.00  0.00    +0.162 A 
ATOM     13  N   UNL     1       6.450   2.922   1.981  0.00  0.00    -0.226 NA
ENDROOT
BRANCH  10  14
ATOM     14  N   UNL     1       4.412   0.244  -1.483  0.00  0.00    -0.344 N 
ATOM     15  H   UNL     1       3.542  -0.138  -1.678  0.00  0.00    +0.144 HD
ATOM     16  H   UNL     1       5.151   0.107  -2.097  0.00  0.00    +0.144 HD
ENDBRANCH  10  14
BRANCH   9  17
ATOM     17  C   UNL     1       2.269   0.812   0.586  0.00  0.00    +0.345 C 
ATOM     18  O   UNL     1       1.958  -0.249   1.094  0.00  0.00    -0.245 OA
BRANCH  17  19
ATOM     19  O   UNL     1       1.328   1.580  -0.002  0.00  0.00    -0.458 OA
BRANCH  19  20
ATOM     20  C   UNL     1      -0.013   1.086   0.008  0.00  0.00    +0.177 C 
ATOM     21  C   UNL     1      -0.729   1.579   1.267  0.00  0.00    +0.044 C 
ATOM     22  C   UNL     1      -2.164   1.050   1.278  0.00  0.00    +0.004 C 
ATOM     23  C   UNL     1      -2.904   1.556   0.038  0.00  0.00    +0.000 C 
ATOM     24  C   UNL     1      -2.188   1.063  -1.221  0.00  0.00    +0.004 C 
ATOM     25  C   UNL     1      -0.753   1.593  -1.232  0.00  0.00    +0.044 C 
ENDBRANCH  19  20
ENDBRANCH  17  19
ENDBRANCH   9  17
BRANCH  11  26
ATOM     26  C   UNL     1       7.018   1.493  -0.724  0.00  0.00    +0.130 C 
BRANCH  26  27
ATOM     27  C   UNL     1       7.085   2.669  -1.700  0.00  0.00    +0.057 C 
BRANCH  27  28
ATOM     28  C   UNL     1       8.371   2.599  -2.483  0.00  0.00    -0.046 A 
ATOM     29  C   UNL     1       9.504   3.234  -2.010  0.00  0.00    +0.005 A 
ATOM     30  C   UNL     1      10.684   3.167  -2.726  0.00  0.00    +0.029 A 
ATOM     31  C   UNL     1      10.729   2.472  -3.920  0.00  0.00    +0.105 A 
ATOM     32  C   UNL     1       9.595   1.841  -4.396  0.00  0.00    +0.029 A 
ATOM     33  C   UNL     1       8.415   1.905  -3.678  0.00  0.00    +0.005 A 
BRANCH  31  34
ATOM     34  S   UNL     1      12.233   2.389  -4.835  0.00  0.00    +0.056 S 
ATOM     35  O   UNL     1      13.286   2.602  -3.905  0.00  0.00    -0.153 OA
ATOM     36  O   UNL     1      12.153   1.223  -5.643  0.00  0.00    -0.153 OA
BRANCH  34  37
ATOM     37  N   UNL     1      12.248   3.682  -5.870  0.00  0.00    -0.204 NA
ATOM     38  H   UNL     1      11.504   4.304  -5.879  0.00  0.00    +0.144 HD
ATOM     39  H   UNL     1      13.000   3.816  -6.468  0.00  0.00    +0.144 HD
ENDBRANCH  34  37
ENDBRANCH  31  34
ENDBRANCH  27  28
ENDBRANCH  26  27
ENDBRANCH  11  26
TORSDOF 9
