REMARK  Name = ZINC14162375
REMARK  3 active torsions:
REMARK  status: ('A' for Active; 'I' for Inactive)
REMARK    1  A    between atoms: C_1  and  C_2
REMARK    2  A    between atoms: C_20  and  C_31
REMARK    3  A    between atoms: C_21  and  N_30
REMARK                            x       y       z     vdW  Elec       q    Type
REMARK                         _______ _______ _______ _____ _____    ______ ____
ROOT
ATOM      1  C   UNL     1      -0.725   1.577   1.269  0.00  0.00    +0.012 C 
ATOM      2  C   UNL     1      -0.013   1.086   0.008  0.00  0.00    +0.020 C 
ATOM      3  C   UNL     1      -0.763   1.592  -1.229  0.00  0.00    +0.034 C 
ATOM      4  C   UNL     1      -0.044   1.214  -2.523  0.00  0.00    +0.043 C 
ATOM      5  C   UNL     1      -0.046  -0.314  -2.700  0.00  0.00    +0.026 C 
ATOM      6  C   UNL     1      -1.251  -0.584  -3.636  0.00  0.00    +0.002 C 
ATOM      7  C   UNL     1      -1.200   0.615  -4.617  0.00  0.00    +0.002 C 
ATOM      8  C   UNL     1      -0.775   1.808  -3.733  0.00  0.00    +0.026 C 
ATOM      9  N   UNL     1       1.338   1.707  -2.474  0.00  0.00    -0.263 N 
ATOM     10  C   UNL     1       1.973   1.872  -1.243  0.00  0.00    +0.045 A 
ATOM     11  C   UNL     1       1.395   1.603  -0.003  0.00  0.00    -0.020 A 
ATOM     12  C   UNL     1       2.175   1.837   1.106  0.00  0.00    +0.044 A 
ATOM     13  C   UNL     1       3.472   2.314   0.973  0.00  0.00    +0.124 A 
ATOM     14  C   UNL     1       4.048   2.579  -0.270  0.00  0.00    +0.045 A 
ATOM     15  C   UNL     1       3.269   2.348  -1.383  0.00  0.00    +0.002 A 
ATOM     16  C   UNL     1       3.478   2.492  -2.855  0.00  0.00    +0.144 C 
ATOM     17  C   UNL     1       2.161   2.055  -3.476  0.00  0.00    +0.241 C 
ATOM     18  O   UNL     1       1.901   2.025  -4.660  0.00  0.00    -0.273 OA
ATOM     19  C   UNL     1       4.585   1.599  -3.337  0.00  0.00    +0.110 C 
ATOM     20  C   UNL     1       5.788   2.126  -3.674  0.00  0.00    +0.199 C 
ATOM     21  O   UNL     1       6.024   3.444  -3.580  0.00  0.00    -0.445 OA
ATOM     22  C   UNL     1       5.000   4.316  -3.558  0.00  0.00    +0.115 C 
ATOM     23  C   UNL     1       3.756   3.928  -3.220  0.00  0.00    +0.058 C 
ATOM     24  C   UNL     1       2.685   4.841  -3.197  0.00  0.00    +0.164 C 
ATOM     25  O   UNL     1       1.580   4.457  -2.869  0.00  0.00    -0.292 OA
ATOM     26  C   UNL     1       2.884   6.285  -3.572  0.00  0.00    +0.080 C 
ATOM     27  C   UNL     1       4.049   6.381  -4.564  0.00  0.00    +0.016 C 
ATOM     28  C   UNL     1       5.287   5.755  -3.919  0.00  0.00    +0.075 C 
ATOM     29  F   UNL     1       4.203   2.529   2.088  0.00  0.00    -0.205 F 
ENDROOT
BRANCH  20  30
ATOM     30  N   UNL     1       6.784   1.295  -4.121  0.00  0.00    -0.328 N 
ATOM     31  H   UNL     1       7.649   1.661  -4.365  0.00  0.00    +0.145 HD
ATOM     32  H   UNL     1       6.624   0.341  -4.193  0.00  0.00    +0.145 HD
ENDBRANCH  20  30
BRANCH  19  33
ATOM     33  C   UNL     1       4.369   0.188  -3.441  0.00  0.00    +0.102 C 
ATOM     34  N   UNL     1       4.198  -0.932  -3.523  0.00  0.00    -0.191 NA
ENDBRANCH  19  33
TORSDOF 2
