REMARK  Name = ZINC08843880
REMARK  10 active torsions:
REMARK  status: ('A' for Active; 'I' for Inactive)
REMARK    1  A    between atoms: C_1  and  C_2
REMARK    2  A    between atoms: C_2  and  O_3
REMARK    3  A    between atoms: O_3  and  C_4
REMARK    4  A    between atoms: C_6  and  C_11
REMARK    5  A    between atoms: C_9  and  O_10
REMARK    6  A    between atoms: C_13  and  C_20
REMARK    7  A    between atoms: C_14  and  C_19
REMARK    8  A    between atoms: N_22  and  C_23
REMARK    9  A    between atoms: C_26  and  C_30
REMARK   10  A    between atoms: C_27  and  C_29
REMARK                            x       y       z     vdW  Elec       q    Type
REMARK                         _______ _______ _______ _____ _____    ______ ____
ROOT
ATOM      1  C   UNL     1       0.272  -4.661  -0.069  0.00  0.00    +0.139 C 
ATOM      2  C   UNL     1       0.736  -4.850   1.361  0.00  0.00    +0.056 C 
ATOM      3  C   UNL     1       0.729  -6.102   1.864  0.00  0.00    +0.017 C 
ATOM      4  N   UNL     1       0.317  -7.163   1.109  0.00  0.00    -0.300 N 
ATOM      5  C   UNL     1      -0.102  -7.054  -0.158  0.00  0.00    +0.135 C 
ATOM      6  S   UNL     1      -0.592  -8.467  -0.992  0.00  0.00    -0.019 S 
ATOM      7  N   UNL     1      -0.151  -5.869  -0.798  0.00  0.00    -0.315 N 
ATOM      8  C   UNL     1       1.182  -6.334   3.283  0.00  0.00    +0.061 C 
ATOM      9  H   UNL     1       0.329  -8.045   1.513  0.00  0.00    +0.154 HD
ATOM     10  H   UNL     1      -0.459  -5.813  -1.716  0.00  0.00    +0.149 HD
ENDROOT
BRANCH   1  13
ATOM     11  C   UNL     1       2.350  -2.104  -1.918  0.00  0.00    +0.162 A 
ATOM     12  C   UNL     1       1.319  -2.690  -1.201  0.00  0.00    +0.055 A 
ATOM     13  C   UNL     1       1.398  -4.023  -0.843  0.00  0.00    -0.019 A 
ATOM     14  C   UNL     1       2.509  -4.770  -1.186  0.00  0.00    +0.009 A 
ATOM     15  C   UNL     1       3.544  -4.189  -1.895  0.00  0.00    +0.049 A 
ATOM     16  C   UNL     1       3.468  -2.856  -2.264  0.00  0.00    +0.158 A 
BRANCH  16  17
ATOM     17  O   UNL     1       4.486  -2.283  -2.961  0.00  0.00    -0.503 OA
ATOM     18  H   UNL     1       5.170  -1.886  -2.405  0.00  0.00    +0.292 HD
ENDBRANCH  16  17
BRANCH  11  19
ATOM     19  O   UNL     1       2.271  -0.794  -2.277  0.00  0.00    -0.489 OA
BRANCH  19  21
ATOM     20  C   UNL     1       1.284   1.411  -2.215  0.00  0.00    +0.048 C 
ATOM     21  C   UNL     1       1.166  -0.047  -1.766  0.00  0.00    +0.226 C 
ENDBRANCH  19  21
ENDBRANCH  11  19
ENDBRANCH   1  13
BRANCH   2  22
ATOM     22  C   UNL     1       1.162  -3.749   2.143  0.00  0.00    +0.248 C 
ATOM     23  O   UNL     1       0.340  -3.019   2.667  0.00  0.00    -0.270 OA
ATOM     24  N   UNL     1       2.478  -3.508   2.308  0.00  0.00    -0.282 N 
ATOM     25  H   UNL     1       3.132  -4.027   1.813  0.00  0.00    +0.155 HD
BRANCH  24  26
ATOM     26  C   UNL     1       2.901  -2.512   3.193  0.00  0.00    +0.034 A 
ATOM     27  C   UNL     1       2.159  -2.233   4.334  0.00  0.00    +0.023 A 
ATOM     28  C   UNL     1       2.583  -1.252   5.208  0.00  0.00    +0.005 A 
ATOM     29  C   UNL     1       3.739  -0.540   4.944  0.00  0.00    -0.047 A 
ATOM     30  C   UNL     1       4.477  -0.811   3.807  0.00  0.00    -0.046 A 
ATOM     31  C   UNL     1       4.061  -1.795   2.931  0.00  0.00    +0.027 A 
ATOM     32  C   UNL     1       5.735  -0.033   3.523  0.00  0.00    +0.044 C 
ATOM     33  C   UNL     1       4.195   0.534   5.898  0.00  0.00    +0.044 C 
ENDBRANCH  24  26
ENDBRANCH   2  22
TORSDOF 6
