REMARK  Name = ZINC36567710
REMARK  13 active torsions:
REMARK  status: ('A' for Active; 'I' for Inactive)
REMARK    1  A    between atoms: C_1  and  C_2
REMARK    2  A    between atoms: C_2  and  C_3
REMARK    3  A    between atoms: C_3  and  N_4
REMARK    4  A    between atoms: N_4  and  C_5
REMARK    5  A    between atoms: C_5  and  C_7
REMARK    6  A    between atoms: C_5  and  C_14
REMARK    7  A    between atoms: C_12  and  O_13
REMARK    8  A    between atoms: N_16  and  C_17
REMARK    9  A    between atoms: C_17  and  C_18
REMARK   10  A    between atoms: C_17  and  C_19
REMARK   11  A    between atoms: C_17  and  C_20
REMARK   12  A    between atoms: C_21  and  C_23
REMARK   13  A    between atoms: C_28  and  O_29
REMARK                            x       y       z     vdW  Elec       q    Type
REMARK                         _______ _______ _______ _____ _____    ______ ____
ROOT
ATOM      1  C   UNL     1      -0.388  -2.834  -1.935  0.00  0.00    +0.196 C 
ENDROOT
BRANCH   1   2
ATOM      2  C   UNL     1      -1.783  -2.453  -1.511  0.00  0.00    +0.023 A 
ATOM      3  C   UNL     1      -2.071  -1.144  -1.177  0.00  0.00    +0.009 A 
ATOM      4  C   UNL     1      -3.350  -0.794  -0.788  0.00  0.00    +0.001 A 
ATOM      5  C   UNL     1      -4.345  -1.753  -0.732  0.00  0.00    +0.004 A 
ATOM      6  C   UNL     1      -4.062  -3.063  -1.066  0.00  0.00    +0.046 A 
ATOM      7  C   UNL     1      -2.780  -3.416  -1.462  0.00  0.00    +0.122 A 
BRANCH   7   8
ATOM      8  O   UNL     1      -2.501  -4.703  -1.796  0.00  0.00    -0.506 OA
ATOM      9  H   UNL     1      -2.212  -5.249  -1.052  0.00  0.00    +0.292 HD
ENDBRANCH   7   8
ENDBRANCH   1   2
BRANCH   1  10
ATOM     10  C   UNL     1      -0.260  -2.691  -3.430  0.00  0.00    +0.239 C 
ATOM     11  O   UNL     1       0.618  -1.998  -3.900  0.00  0.00    -0.273 OA
ATOM     12  N   UNL     1      -1.121  -3.331  -4.245  0.00  0.00    -0.309 N 
ATOM     13  H   UNL     1      -1.823  -3.885  -3.869  0.00  0.00    +0.149 HD
BRANCH  12  14
ATOM     14  C   UNL     1      -0.997  -3.192  -5.698  0.00  0.00    +0.026 C 
ATOM     15  C   UNL     1       0.377  -3.696  -6.143  0.00  0.00    +0.031 C 
ATOM     16  C   UNL     1      -2.089  -4.014  -6.384  0.00  0.00    +0.031 C 
ATOM     17  C   UNL     1      -1.150  -1.719  -6.083  0.00  0.00    +0.031 C 
ENDBRANCH  12  14
ENDBRANCH   1  10
BRANCH   1  18
ATOM     18  N   UNL     1       0.581  -1.955  -1.275  0.00  0.00    -0.282 N 
ATOM     19  C   UNL     1       0.787  -2.056   0.053  0.00  0.00    +0.251 C 
ATOM     20  O   UNL     1       1.660  -1.397   0.584  0.00  0.00    -0.270 OA
BRANCH  19  21
ATOM     21  C   UNL     1      -0.046  -2.966   0.862  0.00  0.00    +0.078 A 
ATOM     22  C   UNL     1      -0.978  -3.802   0.242  0.00  0.00    +0.017 A 
ATOM     23  C   UNL     1      -1.753  -4.650   1.004  0.00  0.00    +0.001 A 
ATOM     24  C   UNL     1      -1.613  -4.677   2.382  0.00  0.00    +0.004 A 
ATOM     25  C   UNL     1      -0.696  -3.855   3.006  0.00  0.00    +0.046 A 
ATOM     26  C   UNL     1       0.096  -3.000   2.255  0.00  0.00    +0.129 A 
BRANCH  26  27
ATOM     27  O   UNL     1       1.001  -2.196   2.868  0.00  0.00    -0.506 OA
ATOM     28  H   UNL     1       0.650  -1.332   3.123  0.00  0.00    +0.292 HD
ENDBRANCH  26  27
ENDBRANCH  19  21
BRANCH  18  29
ATOM     29  C   UNL     1       1.324  -0.965  -2.059  0.00  0.00    +0.109 C 
BRANCH  29  31
ATOM     30  C   UNL     1       3.272  -0.627  -3.588  0.00  0.00    +0.005 C 
ATOM     31  C   UNL     1       2.563  -1.625  -2.669  0.00  0.00    +0.016 C 
ENDBRANCH  29  31
ENDBRANCH  18  29
ENDBRANCH   1  18
TORSDOF 9
