REMARK  Name = ZINC61115917
REMARK  7 active torsions:
REMARK  status: ('A' for Active; 'I' for Inactive)
REMARK    1  A    between atoms: C_1  and  C_2
REMARK    2  A    between atoms: C_7  and  N_11
REMARK    3  A    between atoms: N_14  and  C_15
REMARK    4  A    between atoms: C_15  and  C_16
REMARK    5  A    between atoms: C_15  and  C_17
REMARK    6  A    between atoms: C_20  and  N_23
REMARK    7  A    between atoms: N_26  and  C_27
REMARK                            x       y       z     vdW  Elec       q    Type
REMARK                         _______ _______ _______ _____ _____    ______ ____
ROOT
ATOM      1  C   UNL     1      -0.168  -9.250   0.564  0.00  0.00    +0.102 C 
ATOM      2  C   UNL     1      -1.633  -9.506   0.207  0.00  0.00    +0.033 C 
ENDROOT
BRANCH   1   6
ATOM      3  N   UNL     1       0.124  -5.673   1.365  0.00  0.00    -0.269 N 
ATOM      4  C   UNL     1       0.026  -6.823   0.669  0.00  0.00    +0.304 C 
ATOM      5  O   UNL     1       0.017  -6.800  -0.547  0.00  0.00    -0.252 OA
ATOM      6  N   UNL     1      -0.061  -8.000   1.321  0.00  0.00    -0.293 N 
ATOM      7  H   UNL     1       0.199  -5.696   2.332  0.00  0.00    +0.156 HD
ATOM      8  H   UNL     1      -0.053  -8.019   2.290  0.00  0.00    +0.151 HD
BRANCH   3  15
ATOM      9  C   UNL     1      -1.070   1.369  -0.212  0.00  0.00    +0.109 C 
ATOM     10  C   UNL     1      -0.695  -0.088  -0.138  0.00  0.00    +0.194 A 
ATOM     11  N   UNL     1      -0.045  -0.735  -1.058  0.00  0.00    -0.214 NA
ATOM     12  C   UNL     1       0.117  -2.026  -0.656  0.00  0.00    +0.110 A 
ATOM     13  C   UNL     1       0.724  -3.146  -1.227  0.00  0.00    +0.033 A 
ATOM     14  C   UNL     1       0.722  -4.337  -0.558  0.00  0.00    +0.025 A 
ATOM     15  C   UNL     1       0.118  -4.445   0.692  0.00  0.00    +0.038 A 
ATOM     16  C   UNL     1      -0.489  -3.344   1.273  0.00  0.00    +0.071 A 
ATOM     17  C   UNL     1      -0.493  -2.130   0.604  0.00  0.00    +0.157 A 
ATOM     18  O   UNL     1      -0.980  -0.903   0.891  0.00  0.00    -0.440 OA
ENDBRANCH   3  15
ENDBRANCH   1   6
BRANCH   1  19
ATOM     19  C   UNL     1       0.352 -10.390   1.402  0.00  0.00    -0.027 A 
ATOM     20  C   UNL     1       0.061 -10.442   2.753  0.00  0.00    +0.007 A 
ATOM     21  C   UNL     1       0.536 -11.485   3.523  0.00  0.00    +0.023 A 
ATOM     22  C   UNL     1       1.306 -12.483   2.940  0.00  0.00    +0.035 A 
ATOM     23  C   UNL     1       1.596 -12.428   1.583  0.00  0.00    +0.023 A 
ATOM     24  C   UNL     1       1.113 -11.385   0.817  0.00  0.00    +0.007 A 
BRANCH  22  25
ATOM     25  N   UNL     1       1.789 -13.541   3.718  0.00  0.00    -0.269 N 
ATOM     26  C   UNL     1       1.044 -14.027   4.731  0.00  0.00    +0.304 C 
ATOM     27  O   UNL     1      -0.009 -13.493   5.022  0.00  0.00    -0.253 OA
ATOM     28  N   UNL     1       1.467 -15.105   5.421  0.00  0.00    -0.296 N 
ATOM     29  H   UNL     1       2.659 -13.924   3.528  0.00  0.00    +0.156 HD
ATOM     30  H   UNL     1       2.307 -15.531   5.188  0.00  0.00    +0.151 HD
BRANCH  28  31
ATOM     31  C   UNL     1       0.658 -15.634   6.521  0.00  0.00    +0.075 C 
ATOM     32  C   UNL     1       1.387 -16.031   7.807  0.00  0.00    +0.024 C 
ATOM     33  C   UNL     1       0.829 -17.112   6.878  0.00  0.00    +0.024 C 
ENDBRANCH  28  31
ENDBRANCH  22  25
ENDBRANCH   1  19
TORSDOF 5
