REMARK  Name = ZINC39559549
REMARK  6 active torsions:
REMARK  status: ('A' for Active; 'I' for Inactive)
REMARK    1  A    between atoms: C_4  and  C_7
REMARK    2  A    between atoms: C_10  and  C_12
REMARK    3  A    between atoms: C_13  and  C_14
REMARK    4  A    between atoms: N_16  and  C_17
REMARK    5  A    between atoms: C_17  and  C_18
REMARK    6  A    between atoms: N_20  and  C_21
REMARK                            x       y       z     vdW  Elec       q    Type
REMARK                         _______ _______ _______ _____ _____    ______ ____
ROOT
ATOM      1  C   UNL     1       9.894  -0.921  -0.075  0.00  0.00    +0.237 C 
ATOM      2  O   UNL     1      10.338  -2.055  -0.080  0.00  0.00    -0.271 OA
ATOM      3  N   UNL     1      10.736   0.132  -0.078  0.00  0.00    -0.303 N 
ATOM      4  H   UNL     1      10.382   1.035  -0.074  0.00  0.00    +0.149 HD
ENDROOT
BRANCH   1   6
ATOM      5  C   UNL     1       7.648  -1.769  -0.066  0.00  0.00    +0.020 C 
ATOM      6  C   UNL     1       8.496  -0.708  -0.068  0.00  0.00    +0.068 C 
BRANCH   5  10
ATOM      7  C   UNL     1       3.695  -0.685  -0.042  0.00  0.00    +0.020 A 
ATOM      8  C   UNL     1       3.931  -2.051  -0.046  0.00  0.00    +0.017 A 
ATOM      9  C   UNL     1       5.223  -2.495  -0.054  0.00  0.00    +0.016 A 
ATOM     10  C   UNL     1       6.250  -1.556  -0.058  0.00  0.00    +0.013 A 
ATOM     11  S   UNL     1       5.349  -0.015  -0.057  0.00  0.00    -0.089 S 
BRANCH   7  15
ATOM     12  C   UNL     1      -0.017   1.378  -0.017  0.00  0.00    +0.000 A 
ATOM     13  C   UNL     1       1.168   2.092  -0.028  0.00  0.00    +0.001 A 
ATOM     14  C   UNL     1       2.377   1.429  -0.036  0.00  0.00    +0.009 A 
ATOM     15  C   UNL     1       2.404   0.033  -0.033  0.00  0.00    -0.011 A 
ATOM     16  C   UNL     1       1.204  -0.682  -0.022  0.00  0.00    +0.009 A 
ATOM     17  C   UNL     1       0.002  -0.006  -0.014  0.00  0.00    +0.001 A 
ENDBRANCH   7  15
ENDBRANCH   5  10
ENDBRANCH   1   6
BRANCH   3  18
ATOM     18  C   UNL     1      12.184  -0.088  -0.086  0.00  0.00    +0.200 C 
BRANCH  18  19
ATOM     19  C   UNL     1      12.894   1.241  -0.087  0.00  0.00    +0.234 C 
ATOM     20  O   UNL     1      12.253   2.271  -0.082  0.00  0.00    -0.274 OA
ATOM     21  N   UNL     1      14.241   1.285  -0.094  0.00  0.00    -0.284 N 
ATOM     22  H   UNL     1      14.754   0.464  -0.030  0.00  0.00    +0.155 HD
BRANCH  21  23
ATOM     23  C   UNL     1      14.901   2.517  -0.192  0.00  0.00    +0.036 A 
ATOM     24  C   UNL     1      16.093   2.611  -0.902  0.00  0.00    +0.025 A 
ATOM     25  C   UNL     1      16.747   3.822  -1.003  0.00  0.00    +0.029 A 
ATOM     26  C   UNL     1      16.216   4.949  -0.395  0.00  0.00    +0.067 A 
ATOM     27  C   UNL     1      15.019   4.858   0.319  0.00  0.00    +0.069 A 
ATOM     28  C   UNL     1      14.361   3.642   0.414  0.00  0.00    +0.051 A 
ATOM     29  N   UNL     1      14.743   6.133   0.807  0.00  0.00    -0.306 N 
ATOM     30  H   UNL     1      13.973   6.382   1.342  0.00  0.00    +0.170 HD
ATOM     31  C   UNL     1      15.726   6.963   0.408  0.00  0.00    +0.325 A 
ATOM     32  O   UNL     1      15.788   8.150   0.666  0.00  0.00    -0.247 OA
ATOM     33  N   UNL     1      16.630   6.279  -0.318  0.00  0.00    -0.306 N 
ATOM     34  H   UNL     1      17.432   6.648  -0.720  0.00  0.00    +0.170 HD
ENDBRANCH  21  23
ENDBRANCH  18  19
ENDBRANCH   3  18
TORSDOF 6
