REMARK  Name = ZINC01370757
REMARK  4 active torsions:
REMARK  status: ('A' for Active; 'I' for Inactive)
REMARK    1  A    between atoms: C_1  and  O_2
REMARK    2  A    between atoms: O_2  and  C_3
REMARK    3  A    between atoms: C_6  and  C_9
REMARK    4  A    between atoms: C_12  and  N_16
REMARK                            x       y       z     vdW  Elec       q    Type
REMARK                         _______ _______ _______ _____ _____    ______ ____
ROOT
ATOM      1  C   UNL     1       2.480   1.069  -0.015  0.00  0.00    +0.106 A 
ATOM      2  C   UNL     1       3.611   1.613  -0.748  0.00  0.00    +0.111 A 
ATOM      3  C   UNL     1       4.764   0.806  -0.656  0.00  0.00    +0.098 A 
ATOM      4  C   UNL     1       5.942   1.174  -1.292  0.00  0.00    +0.140 A 
ATOM      5  N   UNL     1       5.949   2.304  -1.997  0.00  0.00    -0.220 NA
ATOM      6  C   UNL     1       4.859   3.050  -2.069  0.00  0.00    +0.224 A 
ATOM      7  N   UNL     1       3.732   2.741  -1.481  0.00  0.00    -0.233 NA
ATOM      8  S   UNL     1       4.227  -0.545   0.352  0.00  0.00    +0.017 S 
ATOM      9  N   UNL     1       2.611  -0.064   0.626  0.00  0.00    -0.208 NA
ENDROOT
BRANCH   4  10
ATOM     10  N   UNL     1       7.074   0.381  -1.207  0.00  0.00    -0.314 N 
ATOM     11  C   UNL     1       7.385   0.049   0.201  0.00  0.00    +0.106 C 
ATOM     12  C   UNL     1       8.743  -0.575   0.367  0.00  0.00    +0.019 C 
ATOM     13  C   UNL     1       9.758   0.540   0.697  0.00  0.00    +0.002 C 
ATOM     14  C   UNL     1      10.158   1.290  -0.488  0.00  0.00    +0.002 C 
ATOM     15  C   UNL     1       8.963   1.996  -1.162  0.00  0.00    +0.019 C 
ATOM     16  C   UNL     1       8.197   0.979  -1.963  0.00  0.00    +0.106 C 
ENDBRANCH   4  10
BRANCH   1  20
ATOM     17  C   UNL     1      -1.235   3.138   0.031  0.00  0.00    +0.120 A 
ATOM     18  C   UNL     1      -1.216   1.750   0.017  0.00  0.00    +0.046 A 
ATOM     19  C   UNL     1      -0.013   1.076   0.008  0.00  0.00    +0.013 A 
ATOM     20  C   UNL     1       1.185   1.790   0.000  0.00  0.00    +0.003 A 
ATOM     21  C   UNL     1       1.162   3.185   0.008  0.00  0.00    +0.013 A 
ATOM     22  C   UNL     1      -0.045   3.852   0.023  0.00  0.00    +0.046 A 
BRANCH  17  24
ATOM     23  C   UNL     1      -3.609   3.002   0.054  0.00  0.00    +0.277 C 
ATOM     24  O   UNL     1      -2.422   3.799   0.047  0.00  0.00    -0.495 OA
ENDBRANCH  17  24
ENDBRANCH   1  20
TORSDOF 3
