REMARK  Name = ZINC59384255
REMARK  11 active torsions:
REMARK  status: ('A' for Active; 'I' for Inactive)
REMARK    1  A    between atoms: C_1  and  C_2
REMARK    2  A    between atoms: C_3  and  C_19
REMARK    3  A    between atoms: C_4  and  C_10
REMARK    4  A    between atoms: C_13  and  O_18
REMARK    5  A    between atoms: C_14  and  O_16
REMARK    6  A    between atoms: O_16  and  C_17
REMARK    7  A    between atoms: N_21  and  N_22
REMARK    8  A    between atoms: C_23  and  C_24
REMARK    9  A    between atoms: C_27  and  C_30
REMARK   10  A    between atoms: C_30  and  O_32
REMARK   11  A    between atoms: O_32  and  C_33
REMARK                            x       y       z     vdW  Elec       q    Type
REMARK                         _______ _______ _______ _____ _____    ______ ____
ROOT
ATOM      1  C   UNL     1      -0.930   1.525   0.091  0.00  0.00    +0.061 C 
ATOM      2  C   UNL     1      -0.535   0.075   0.204  0.00  0.00    +0.017 C 
ATOM      3  C   UNL     1      -1.484  -0.881   0.118  0.00  0.00    +0.057 C 
ATOM      4  C   UNL     1      -1.043  -2.326   0.236  0.00  0.00    +0.139 C 
ATOM      5  N   UNL     1       0.395  -2.570   0.437  0.00  0.00    -0.315 N 
ATOM      6  C   UNL     1       1.223  -1.508   0.503  0.00  0.00    +0.135 C 
ATOM      7  S   UNL     1       2.897  -1.777   0.737  0.00  0.00    -0.019 S 
ATOM      8  N   UNL     1       0.779  -0.250   0.387  0.00  0.00    -0.300 N 
ATOM      9  H   UNL     1       0.739  -3.473   0.521  0.00  0.00    +0.149 HD
ATOM     10  H   UNL     1       1.426   0.470   0.439  0.00  0.00    +0.154 HD
ENDROOT
BRANCH   4  11
ATOM     11  C   UNL     1      -1.784  -2.945   1.393  0.00  0.00    -0.019 A 
ATOM     12  C   UNL     1      -2.750  -3.906   1.159  0.00  0.00    +0.009 A 
ATOM     13  C   UNL     1      -3.433  -4.476   2.216  0.00  0.00    +0.049 A 
ATOM     14  C   UNL     1      -3.150  -4.086   3.515  0.00  0.00    +0.158 A 
ATOM     15  C   UNL     1      -2.178  -3.119   3.752  0.00  0.00    +0.162 A 
ATOM     16  C   UNL     1      -1.494  -2.554   2.687  0.00  0.00    +0.055 A 
BRANCH  15  17
ATOM     17  O   UNL     1      -1.896  -2.732   5.025  0.00  0.00    -0.491 OA
ATOM     18  C   UNL     1      -0.969  -1.657   5.186  0.00  0.00    +0.277 C 
ENDBRANCH  15  17
BRANCH  14  19
ATOM     19  O   UNL     1      -3.822  -4.646   4.557  0.00  0.00    -0.503 OA
ATOM     20  H   UNL     1      -3.401  -5.440   4.915  0.00  0.00    +0.292 HD
ENDBRANCH  14  19
ENDBRANCH   4  11
BRANCH   3  21
ATOM     21  C   UNL     1      -2.846  -0.545  -0.076  0.00  0.00    +0.263 C 
ATOM     22  O   UNL     1      -3.196   0.621  -0.046  0.00  0.00    -0.269 OA
ATOM     23  N   UNL     1      -3.755  -1.516  -0.295  0.00  0.00    -0.203 N 
ATOM     24  H   UNL     1      -3.489  -2.448  -0.253  0.00  0.00    +0.178 HD
BRANCH  23  25
ATOM     25  N   UNL     1      -5.084  -1.179  -0.583  0.00  0.00    -0.187 NA
ATOM     26  C   UNL     1      -5.980  -2.112  -0.698  0.00  0.00    +0.138 C 
BRANCH  26  27
ATOM     27  C   UNL     1      -7.352  -1.769  -1.109  0.00  0.00    -0.005 A 
ATOM     28  C   UNL     1      -7.689  -0.439  -1.381  0.00  0.00    +0.010 A 
ATOM     29  C   UNL     1      -8.961  -0.121  -1.762  0.00  0.00    +0.015 A 
ATOM     30  C   UNL     1      -9.928  -1.125  -1.880  0.00  0.00    +0.059 A 
ATOM     31  C   UNL     1      -9.591  -2.455  -1.607  0.00  0.00    +0.015 A 
ATOM     32  C   UNL     1      -8.318  -2.774  -1.232  0.00  0.00    +0.010 A 
BRANCH  30  33
ATOM     33  C   UNL     1     -11.302  -0.781  -2.291  0.00  0.00    +0.339 C 
ATOM     34  O   UNL     1     -11.594   0.374  -2.527  0.00  0.00    -0.245 OA
BRANCH  33  35
ATOM     35  O   UNL     1     -12.233  -1.748  -2.404  0.00  0.00    -0.464 OA
ATOM     36  C   UNL     1     -13.543  -1.344  -2.807  0.00  0.00    +0.280 C 
ENDBRANCH  33  35
ENDBRANCH  30  33
ENDBRANCH  26  27
ENDBRANCH  23  25
ENDBRANCH   3  21
TORSDOF 8
