REMARK  Name = ZINC28007921
REMARK  8 active torsions:
REMARK  status: ('A' for Active; 'I' for Inactive)
REMARK    1  A    between atoms: C_1  and  C_2
REMARK    2  A    between atoms: C_2  and  C_3
REMARK    3  A    between atoms: C_5  and  N_11
REMARK    4  A    between atoms: C_8  and  C_9
REMARK    5  A    between atoms: N_11  and  C_12
REMARK    6  A    between atoms: C_12  and  C_13
REMARK    7  A    between atoms: N_15  and  C_16
REMARK    8  A    between atoms: C_17  and  O_24
REMARK                            x       y       z     vdW  Elec       q    Type
REMARK                         _______ _______ _______ _____ _____    ______ ____
ROOT
ATOM      1  C   UNL     1       2.107   0.427   1.165  0.00  0.00    +0.198 C 
ENDROOT
BRANCH   1   2
ATOM      2  C   UNL     1       0.769   1.117   1.096  0.00  0.00    +0.234 C 
ATOM      3  O   UNL     1       0.395   1.809   2.019  0.00  0.00    -0.274 OA
ATOM      4  N   UNL     1      -0.011   0.966   0.007  0.00  0.00    -0.280 N 
ATOM      5  H   UNL     1       0.359   0.400  -0.860  0.00  0.00    +0.155 HD
BRANCH   4   6
ATOM      6  C   UNL     1      -1.295   1.530  -0.019  0.00  0.00    +0.094 A 
ATOM      7  C   UNL     1      -1.477   2.829  -0.487  0.00  0.00    +0.141 A 
ATOM      8  C   UNL     1      -2.747   3.381  -0.512  0.00  0.00    +0.067 A 
ATOM      9  C   UNL     1      -3.832   2.644  -0.071  0.00  0.00    +0.046 A 
ATOM     10  C   UNL     1      -3.652   1.353   0.394  0.00  0.00    +0.042 A 
ATOM     11  C   UNL     1      -2.387   0.793   0.417  0.00  0.00    +0.067 A 
ATOM     12 CL   UNL     1      -2.166  -0.829   0.996  0.00  0.00    -0.081 Cl
ATOM     13 CL   UNL     1      -5.422   3.339  -0.102  0.00  0.00    -0.083 Cl
BRANCH   7  14
ATOM     14  O   UNL     1      -0.411   3.553  -0.921  0.00  0.00    -0.505 OA
ATOM     15  H   UNL     1      -0.556   4.579  -1.290  0.00  0.00    +0.292 HD
ENDBRANCH   7  14
ENDBRANCH   4   6
ENDBRANCH   1   2
BRANCH   1  16
ATOM     16  N   UNL     1       2.756   0.747   2.439  0.00  0.00    -0.331 N 
ATOM     17  H   UNL     1       2.253   1.404   3.163  0.00  0.00    +0.147 HD
BRANCH  16  20
ATOM     18  C   UNL     1       5.913  -1.115   2.165  0.00  0.00    -0.027 A 
ATOM     19  C   UNL     1       4.661  -0.618   1.830  0.00  0.00    +0.033 A 
ATOM     20  C   UNL     1       4.018   0.217   2.734  0.00  0.00    +0.093 A 
ATOM     21  C   UNL     1       4.646   0.516   3.944  0.00  0.00    +0.270 A 
ATOM     22  N   UNL     1       5.837   0.017   4.223  0.00  0.00    -0.325 N 
ATOM     23  C   UNL     1       6.473  -0.776   3.380  0.00  0.00    +0.019 A 
ATOM     24  C   UNL     1       7.829  -1.318   3.750  0.00  0.00    +0.063 C 
ATOM     25  O   UNL     1       4.029   1.327   4.841  0.00  0.00    -0.266 OA
ATOM     26  H   UNL     1       6.324   0.258   5.180  0.00  0.00    +0.169 HD
BRANCH  18  28
ATOM     27  C   UNL     1       6.375  -3.480   1.579  0.00  0.00    +0.009 C 
ATOM     28  C   UNL     1       6.652  -2.020   1.213  0.00  0.00    +0.033 C 
ENDBRANCH  18  28
ENDBRANCH  16  20
ENDBRANCH   1  16
TORSDOF 6
