REMARK  Name = ZINC40018168
REMARK  7 active torsions:
REMARK  status: ('A' for Active; 'I' for Inactive)
REMARK    1  A    between atoms: C_10  and  O_12
REMARK    2  A    between atoms: O_12  and  C_13
REMARK    3  A    between atoms: C_13  and  C_14
REMARK    4  A    between atoms: C_14  and  C_16
REMARK    5  A    between atoms: C_14  and  O_28
REMARK    6  A    between atoms: C_16  and  S_17
REMARK    7  A    between atoms: S_17  and  C_18
REMARK                            x       y       z     vdW  Elec       q    Type
REMARK                         _______ _______ _______ _____ _____    ______ ____
ROOT
ATOM      1  C   UNL     1       6.080   1.862  -1.423  0.00  0.00    +0.150 C 
ENDROOT
BRANCH   1   2
ATOM      2  O   UNL     1       7.122   1.008  -1.898  0.00  0.00    -0.389 OA
ATOM      3  H   UNL     1       7.747   0.732  -1.213  0.00  0.00    +0.210 HD
ENDBRANCH   1   2
BRANCH   1   4
ATOM      4  C   UNL     1       5.276   1.135  -0.344  0.00  0.00    +0.192 C 
BRANCH   4   5
ATOM      5  O   UNL     1       4.609   0.011  -0.924  0.00  0.00    -0.369 OA
BRANCH   5  15
ATOM      6  C   UNL     1       0.566  -2.482  -2.175  0.00  0.00    +0.000 A 
ATOM      7  C   UNL     1       0.977  -1.189  -2.438  0.00  0.00    +0.000 A 
ATOM      8  C   UNL     1       2.024  -0.644  -1.725  0.00  0.00    +0.006 A 
ATOM      9  C   UNL     1       2.673  -1.386  -0.746  0.00  0.00    -0.016 A 
ATOM     10  C   UNL     1       2.268  -2.676  -0.487  0.00  0.00    -0.042 A 
ATOM     11  C   UNL     1       1.209  -3.221  -1.203  0.00  0.00    +0.004 A 
ATOM     12  C   UNL     1       2.935  -3.543   0.548  0.00  0.00    +0.035 C 
ATOM     13  C   UNL     1       3.754  -2.691   1.515  0.00  0.00    +0.007 C 
ATOM     14  C   UNL     1       4.670  -1.774   0.696  0.00  0.00    +0.037 C 
ATOM     15  C   UNL     1       3.805  -0.727  -0.001  0.00  0.00    +0.149 C 
ENDBRANCH   5  15
ENDBRANCH   4   5
ENDBRANCH   1   4
BRANCH   1  16
ATOM     16  C   UNL     1       6.693   3.134  -0.831  0.00  0.00    +0.111 C 
BRANCH  16  17
ATOM     17  S   UNL     1       7.522   4.072  -2.144  0.00  0.00    -0.083 S 
BRANCH  17  18
ATOM     18  C   UNL     1       8.166   5.487  -1.314  0.00  0.00    +0.191 A 
ATOM     19  N   UNL     1       8.840   6.398  -2.007  0.00  0.00    -0.207 NA
ATOM     20  C   UNL     1       9.347   7.479  -1.439  0.00  0.00    +0.129 A 
ATOM     21  C   UNL     1       9.169   7.681  -0.042  0.00  0.00    +0.047 A 
ATOM     22  C   UNL     1       9.623   8.773   0.803  0.00  0.00    +0.021 A 
ATOM     23  C   UNL     1       9.334   8.751   2.112  0.00  0.00    +0.048 A 
ATOM     24  S   UNL     1       8.415   7.237   2.312  0.00  0.00    -0.077 S 
ATOM     25  C   UNL     1       8.444   6.673   0.630  0.00  0.00    +0.114 A 
ATOM     26  N   UNL     1       7.965   5.624  -0.010  0.00  0.00    -0.215 NA
ATOM     27  N   UNL     1      10.042   8.405  -2.195  0.00  0.00    -0.343 N 
ATOM     28  H   UNL     1      10.161   8.262  -3.147  0.00  0.00    +0.144 HD
ATOM     29  H   UNL     1      10.412   9.196  -1.773  0.00  0.00    +0.144 HD
ENDBRANCH  17  18
ENDBRANCH  16  17
ENDBRANCH   1  16
TORSDOF 7
