REMARK  Name = ZINC05445849
REMARK  6 active torsions:
REMARK  status: ('A' for Active; 'I' for Inactive)
REMARK    1  A    between atoms: C_2  and  C_19
REMARK    2  A    between atoms: C_5  and  C_7
REMARK    3  A    between atoms: N_8  and  N_9
REMARK    4  A    between atoms: N_12  and  C_13
REMARK    5  A    between atoms: N_20  and  N_21
REMARK    6  A    between atoms: N_24  and  C_25
REMARK                            x       y       z     vdW  Elec       q    Type
REMARK                         _______ _______ _______ _____ _____    ______ ____
ROOT
ATOM      1  C   UNL     1      -0.016   1.362   0.009  0.00  0.00    +0.010 A 
ATOM      2  C   UNL     1       1.185   2.077   0.002  0.00  0.00    -0.005 A 
ATOM      3  C   UNL     1       2.406   1.395  -0.013  0.00  0.00    +0.010 A 
ATOM      4  C   UNL     1       2.424   0.029  -0.020  0.00  0.00    +0.010 A 
ATOM      5  C   UNL     1       1.223  -0.687  -0.012  0.00  0.00    -0.005 A 
ATOM      6  C   UNL     1       0.002  -0.004   0.002  0.00  0.00    +0.010 A 
ENDROOT
BRANCH   5   7
ATOM      7  C   UNL     1       1.243  -2.160  -0.020  0.00  0.00    +0.138 C 
ATOM      8  N   UNL     1       0.127  -2.824  -0.012  0.00  0.00    -0.186 NA
BRANCH   8   9
ATOM      9  N   UNL     1       0.146  -4.225  -0.021  0.00  0.00    -0.191 N 
ATOM     10  C   UNL     1      -1.012  -4.915  -0.012  0.00  0.00    +0.319 C 
ATOM     11  O   UNL     1      -0.995  -6.131  -0.019  0.00  0.00    -0.251 OA
ATOM     12  N   UNL     1      -2.188  -4.257   0.004  0.00  0.00    -0.295 N 
ATOM     13  H   UNL     1       0.993  -4.699  -0.032  0.00  0.00    +0.179 HD
ATOM     14  H   UNL     1      -2.201  -3.287   0.009  0.00  0.00    +0.151 HD
BRANCH  12  15
ATOM     15  C   UNL     1      -3.446  -5.006   0.013  0.00  0.00    +0.074 C 
ATOM     16  C   UNL     1      -3.835  -5.367  -1.422  0.00  0.00    +0.022 C 
ATOM     17  C   UNL     1      -5.150  -6.150  -1.413  0.00  0.00    +0.002 C 
ATOM     18  C   UNL     1      -6.250  -5.292  -0.787  0.00  0.00    +0.000 C 
ATOM     19  C   UNL     1      -5.861  -4.931   0.648  0.00  0.00    +0.002 C 
ATOM     20  C   UNL     1      -4.547  -4.148   0.639  0.00  0.00    +0.022 C 
ENDBRANCH  12  15
ENDBRANCH   8   9
ENDBRANCH   5   7
BRANCH   2  21
ATOM     21  C   UNL     1       1.165   3.550   0.009  0.00  0.00    +0.138 C 
ATOM     22  N   UNL     1       2.281   4.215   0.002  0.00  0.00    -0.186 NA
BRANCH  22  23
ATOM     23  N   UNL     1       2.262   5.615   0.010  0.00  0.00    -0.191 N 
ATOM     24  C   UNL     1       3.420   6.305   0.002  0.00  0.00    +0.319 C 
ATOM     25  O   UNL     1       3.403   7.521   0.009  0.00  0.00    -0.251 OA
ATOM     26  N   UNL     1       4.596   5.647  -0.012  0.00  0.00    -0.295 N 
ATOM     27  H   UNL     1       1.415   6.089   0.020  0.00  0.00    +0.179 HD
ATOM     28  H   UNL     1       4.609   4.677  -0.017  0.00  0.00    +0.151 HD
BRANCH  26  29
ATOM     29  C   UNL     1       5.854   6.397  -0.020  0.00  0.00    +0.074 C 
ATOM     30  C   UNL     1       6.215   6.773  -1.459  0.00  0.00    +0.022 C 
ATOM     31  C   UNL     1       7.529   7.556  -1.467  0.00  0.00    +0.002 C 
ATOM     32  C   UNL     1       8.642   6.691  -0.872  0.00  0.00    +0.000 C 
ATOM     33  C   UNL     1       8.281   6.315   0.567  0.00  0.00    +0.002 C 
ATOM     34  C   UNL     1       6.967   5.532   0.575  0.00  0.00    +0.022 C 
ENDBRANCH  26  29
ENDBRANCH  22  23
ENDBRANCH   2  21
TORSDOF 6
