REMARK  Name = ZINC64056304
REMARK  9 active torsions:
REMARK  status: ('A' for Active; 'I' for Inactive)
REMARK    1  A    between atoms: C_1  and  C_2
REMARK    2  A    between atoms: C_2  and  C_3
REMARK    3  A    between atoms: C_2  and  C_4
REMARK    4  A    between atoms: C_4  and  C_5
REMARK    5  A    between atoms: C_5  and  C_6
REMARK    6  A    between atoms: C_5  and  N_26
REMARK    7  A    between atoms: N_8  and  C_9
REMARK    8  A    between atoms: C_12  and  O_15
REMARK    9  A    between atoms: O_15  and  C_16
REMARK                            x       y       z     vdW  Elec       q    Type
REMARK                         _______ _______ _______ _____ _____    ______ ____
ROOT
ATOM      1  C   UNL     1       2.708  -0.450   5.029  0.00  0.00    +0.034 A 
ATOM      2  C   UNL     1       2.158  -1.416   5.862  0.00  0.00    +0.027 A 
ATOM      3  C   UNL     1       2.871  -1.873   6.952  0.00  0.00    +0.048 A 
ATOM      4  C   UNL     1       4.136  -1.369   7.216  0.00  0.00    +0.129 A 
ATOM      5  C   UNL     1       4.686  -0.404   6.384  0.00  0.00    +0.048 A 
ATOM      6  C   UNL     1       3.977   0.050   5.290  0.00  0.00    +0.027 A 
ENDROOT
BRANCH   1   9
ATOM      7  C   UNL     1       2.630   0.333   2.782  0.00  0.00    +0.238 C 
ATOM      8  O   UNL     1       3.841   0.293   2.739  0.00  0.00    -0.273 OA
ATOM      9  N   UNL     1       1.986   0.015   3.922  0.00  0.00    -0.284 N 
ATOM     10  H   UNL     1       1.021   0.107   3.977  0.00  0.00    +0.155 HD
BRANCH   7  11
ATOM     11  C   UNL     1       1.845   0.739   1.562  0.00  0.00    +0.161 C 
BRANCH  11  12
ATOM     12  N   UNL     1       2.768   1.033   0.463  0.00  0.00    -0.288 N 
ATOM     13  C   UNL     1       2.352   0.924  -0.815  0.00  0.00    +0.298 C 
ATOM     14  O   UNL     1       1.211   0.582  -1.055  0.00  0.00    -0.253 OA
ATOM     15  N   UNL     1       3.202   1.194  -1.825  0.00  0.00    -0.313 N 
ATOM     16  H   UNL     1       3.679   1.306   0.654  0.00  0.00    +0.151 HD
ATOM     17  H   UNL     1       4.113   1.467  -1.634  0.00  0.00    +0.146 HD
ATOM     18  H   UNL     1       2.902   1.116  -2.745  0.00  0.00    +0.146 HD
ENDBRANCH  11  12
BRANCH  11  19
ATOM     19  C   UNL     1       1.017   1.986   1.879  0.00  0.00    +0.034 C 
BRANCH  19  21
ATOM     20  C   UNL     1      -0.893   1.205   0.471  0.00  0.00    +0.007 C 
ATOM     21  C   UNL     1       0.127   2.325   0.682  0.00  0.00    -0.015 C 
ATOM     22  C   UNL     1      -0.608   3.640   0.949  0.00  0.00    +0.007 C 
ENDBRANCH  19  21
ENDBRANCH  11  19
ENDBRANCH   7  11
ENDBRANCH   1   9
BRANCH   4  23
ATOM     23  O   UNL     1       4.837  -1.820   8.289  0.00  0.00    -0.454 OA
BRANCH  23  24
ATOM     24  C   UNL     1       4.923  -1.014   9.379  0.00  0.00    +0.154 A 
ATOM     25  C   UNL     1       4.398   0.257   9.344  0.00  0.00    +0.048 A 
ATOM     26  C   UNL     1       4.479   1.094  10.453  0.00  0.00    +0.004 A 
ATOM     27  C   UNL     1       5.080   0.678  11.602  0.00  0.00    +0.010 A 
ATOM     28  C   UNL     1       5.627  -0.613  11.677  0.00  0.00    +0.004 A 
ATOM     29  C   UNL     1       5.547  -1.476  10.557  0.00  0.00    +0.113 A 
ATOM     30  N   UNL     1       6.063  -2.707  10.627  0.00  0.00    -0.251 NA
ATOM     31  C   UNL     1       6.644  -3.142  11.718  0.00  0.00    +0.111 A 
ATOM     32  C   UNL     1       6.752  -2.346  12.857  0.00  0.00    +0.020 A 
ATOM     33  C   UNL     1       6.255  -1.074  12.850  0.00  0.00    +0.011 A 
ENDBRANCH  23  24
ENDBRANCH   4  23
TORSDOF 7
