REMARK  Name = ZINC02543932
REMARK  12 active torsions:
REMARK  status: ('A' for Active; 'I' for Inactive)
REMARK    1  A    between atoms: C_1  and  O_2
REMARK    2  A    between atoms: O_2  and  C_3
REMARK    3  A    between atoms: C_6  and  C_9
REMARK    4  A    between atoms: C_9  and  O_11
REMARK    5  A    between atoms: O_11  and  C_12
REMARK    6  A    between atoms: C_17  and  C_18
REMARK    7  A    between atoms: N_19  and  N_20
REMARK    8  A    between atoms: C_21  and  C_23
REMARK    9  A    between atoms: C_23  and  O_24
REMARK   10  A    between atoms: O_24  and  C_25
REMARK   11  A    between atoms: C_28  and  O_31
REMARK   12  A    between atoms: O_31  and  C_32
REMARK                            x       y       z     vdW  Elec       q    Type
REMARK                         _______ _______ _______ _____ _____    ______ ____
ROOT
ATOM      1  C   UNL     1       1.282   3.296  -0.102  0.00  0.00    +0.141 A 
ATOM      2  C   UNL     1       2.496   3.959  -0.168  0.00  0.00    +0.048 A 
ATOM      3  C   UNL     1       3.679   3.247  -0.109  0.00  0.00    +0.019 A 
ATOM      4  C   UNL     1       3.661   1.868   0.022  0.00  0.00    +0.019 A 
ATOM      5  C   UNL     1       2.460   1.192   0.095  0.00  0.00    +0.028 A 
ATOM      6  C   UNL     1       1.258   1.901   0.036  0.00  0.00    +0.038 A 
ATOM      7 BR   UNL     1       5.288   0.908   0.102  0.00  0.00    -0.050 Br
ENDROOT
BRANCH   6   8
ATOM      8  C   UNL     1      -0.029   1.186   0.113  0.00  0.00    +0.142 C 
ATOM      9  N   UNL     1      -1.141   1.854   0.147  0.00  0.00    -0.188 NA
BRANCH   9  10
ATOM     10  N   UNL     1      -2.357   1.181   0.321  0.00  0.00    -0.204 N 
ATOM     11  C   UNL     1      -3.519   1.859   0.253  0.00  0.00    +0.270 C 
ATOM     12  O   UNL     1      -3.519   3.034  -0.052  0.00  0.00    -0.270 OA
ATOM     13  H   UNL     1      -2.363   0.226   0.492  0.00  0.00    +0.177 HD
BRANCH  11  14
ATOM     14  C   UNL     1      -4.820   1.160   0.554  0.00  0.00    +0.326 C 
BRANCH  14  15
ATOM     15  O   UNL     1      -5.901   2.083   0.414  0.00  0.00    -0.483 OA
BRANCH  15  16
ATOM     16  C   UNL     1      -7.153   1.609   0.652  0.00  0.00    +0.121 A 
ATOM     17  C   UNL     1      -7.335   0.281   1.008  0.00  0.00    +0.049 A 
ATOM     18  C   UNL     1      -8.606  -0.200   1.254  0.00  0.00    +0.049 A 
ATOM     19  C   UNL     1      -9.702   0.643   1.137  0.00  0.00    +0.120 A 
ATOM     20  C   UNL     1      -9.520   1.970   0.777  0.00  0.00    +0.049 A 
ATOM     21  C   UNL     1      -8.248   2.452   0.535  0.00  0.00    +0.049 A 
BRANCH  19  22
ATOM     22  O   UNL     1     -10.953   0.168   1.375  0.00  0.00    -0.495 OA
ATOM     23  C   UNL     1     -11.067  -1.208   1.742  0.00  0.00    +0.277 C 
ENDBRANCH  19  22
ENDBRANCH  15  16
ENDBRANCH  14  15
ENDBRANCH  11  14
ENDBRANCH   9  10
ENDBRANCH   6   8
BRANCH   1  24
ATOM     24  O   UNL     1       0.119   3.995  -0.165  0.00  0.00    -0.422 OA
BRANCH  24  25
ATOM     25  C   UNL     1      -0.413   4.406   1.003  0.00  0.00    +0.344 C 
ATOM     26  O   UNL     1       0.088   4.057   2.054  0.00  0.00    -0.245 OA
BRANCH  25  30
ATOM     27  C   UNL     1      -3.836   6.916   1.012  0.00  0.00    +0.120 A 
ATOM     28  C   UNL     1      -3.207   6.598   2.210  0.00  0.00    +0.046 A 
ATOM     29  C   UNL     1      -2.096   5.785   2.212  0.00  0.00    +0.018 A 
ATOM     30  C   UNL     1      -1.602   5.278   1.006  0.00  0.00    +0.060 A 
ATOM     31  C   UNL     1      -2.234   5.604  -0.197  0.00  0.00    +0.018 A 
ATOM     32  C   UNL     1      -3.348   6.414  -0.189  0.00  0.00    +0.046 A 
BRANCH  27  34
ATOM     33  C   UNL     1      -5.528   8.005  -0.251  0.00  0.00    +0.277 C 
ATOM     34  O   UNL     1      -4.931   7.719   1.015  0.00  0.00    -0.495 OA
ENDBRANCH  27  34
ENDBRANCH  25  30
ENDBRANCH  24  25
ENDBRANCH   1  24
TORSDOF 10
