REMARK  Name = ZINC36813329
REMARK  4 active torsions:
REMARK  status: ('A' for Active; 'I' for Inactive)
REMARK    1  A    between atoms: C_1  and  N_2
REMARK    2  A    between atoms: C_3  and  S_7
REMARK    3  A    between atoms: S_7  and  C_8
REMARK    4  A    between atoms: C_17  and  N_18
REMARK                            x       y       z     vdW  Elec       q    Type
REMARK                         _______ _______ _______ _____ _____    ______ ____
ROOT
ATOM      1  C   UNL     1       0.011  -1.839  -3.662  0.00  0.00    +0.047 A 
ATOM      2  C   UNL     1       1.229  -2.454  -4.032  0.00  0.00    +0.017 A 
ATOM      3  C   UNL     1       2.465  -1.880  -3.701  0.00  0.00    +0.026 A 
ATOM      4  C   UNL     1       3.618  -2.502  -4.075  0.00  0.00    +0.019 A 
ATOM      5  C   UNL     1       3.584  -3.703  -4.782  0.00  0.00    +0.017 A 
ATOM      6  C   UNL     1       2.402  -4.286  -5.119  0.00  0.00    +0.029 A 
ATOM      7  C   UNL     1       1.191  -3.674  -4.750  0.00  0.00    +0.072 A 
ATOM      8  N   UNL     1       0.016  -4.228  -5.068  0.00  0.00    -0.253 NA
ATOM      9  C   UNL     1      -1.124  -3.671  -4.732  0.00  0.00    +0.135 A 
ATOM     10  C   UNL     1      -1.174  -2.474  -4.020  0.00  0.00    +0.058 A 
ATOM     11 BR   UNL     1       5.285  -1.727  -3.629  0.00  0.00    -0.050 Br
ENDROOT
BRANCH  10  12
ATOM     12  N   UNL     1      -2.409  -1.910  -3.673  0.00  0.00    -0.356 N 
ATOM     13  H   UNL     1      -2.440  -1.075  -3.181  0.00  0.00    +0.142 HD
ATOM     14  H   UNL     1      -3.233  -2.356  -3.925  0.00  0.00    +0.142 HD
ENDBRANCH  10  12
BRANCH   1  15
ATOM     15  S   UNL     1      -0.006  -0.321  -2.768  0.00  0.00    -0.046 S 
BRANCH  15  18
ATOM     16  C   UNL     1      -0.018   1.461   0.010  0.00  0.00    +0.177 C 
ATOM     17  N   UNL     1       0.002  -0.004   0.002  0.00  0.00    -0.223 N 
ATOM     18  C   UNL     1       0.008  -0.820  -1.078  0.00  0.00    +0.214 A 
ATOM     19  N   UNL     1       0.027  -2.056  -0.629  0.00  0.00    -0.101 NA
ATOM     20  N   UNL     1       0.033  -2.068   0.655  0.00  0.00    -0.022 NA
ATOM     21  N   UNL     1       0.025  -0.864   1.114  0.00  0.00    -0.043 NA
ENDBRANCH  15  18
ENDBRANCH   1  15
TORSDOF 3
