REMARK  Name = ZINC16428376
REMARK  6 active torsions:
REMARK  status: ('A' for Active; 'I' for Inactive)
REMARK    1  A    between atoms: C_6  and  N_7
REMARK    2  A    between atoms: N_10  and  C_11
REMARK    3  A    between atoms: C_11  and  C_12
REMARK    4  A    between atoms: C_17  and  C_20
REMARK    5  A    between atoms: C_20  and  N_21
REMARK    6  A    between atoms: N_24  and  C_25
REMARK                            x       y       z     vdW  Elec       q    Type
REMARK                         _______ _______ _______ _____ _____    ______ ____
ROOT
ATOM      1  C   UNL     1       3.253   7.691   0.861  0.00  0.00    +0.006 C 
ATOM      2  C   UNL     1       2.734   8.043  -0.535  0.00  0.00    +0.005 C 
ATOM      3  C   UNL     1       2.449   9.544  -0.609  0.00  0.00    +0.001 C 
ATOM      4  C   UNL     1       3.737  10.322  -0.332  0.00  0.00    +0.005 C 
ATOM      5  C   UNL     1       4.256   9.970   1.063  0.00  0.00    +0.006 C 
ATOM      6  C   UNL     1       4.541   8.469   1.137  0.00  0.00    +0.010 C 
ENDROOT
BRANCH   1   7
ATOM      7  C   UNL     1       3.538   6.189   0.934  0.00  0.00    +0.109 C 
BRANCH   7  11
ATOM      8  N   UNL     1       1.137   3.415   0.688  0.00  0.00    -0.269 N 
ATOM      9  C   UNL     1       2.291   4.099   0.822  0.00  0.00    +0.304 C 
ATOM     10  O   UNL     1       3.338   3.500   0.974  0.00  0.00    -0.253 OA
ATOM     11  N   UNL     1       2.284   5.446   0.788  0.00  0.00    -0.299 N 
ATOM     12  H   UNL     1       0.313   3.888   0.492  0.00  0.00    +0.156 HD
ATOM     13  H   UNL     1       1.448   5.924   0.668  0.00  0.00    +0.150 HD
BRANCH   8  19
ATOM     14  C   UNL     1       2.002   1.409   1.718  0.00  0.00    +0.026 A 
ATOM     15  C   UNL     1       1.991   0.035   1.858  0.00  0.00    +0.040 A 
ATOM     16  C   UNL     1       1.109  -0.731   1.114  0.00  0.00    +0.124 A 
ATOM     17  C   UNL     1       0.237  -0.121   0.228  0.00  0.00    +0.040 A 
ATOM     18  C   UNL     1       0.245   1.253   0.085  0.00  0.00    +0.026 A 
ATOM     19  C   UNL     1       1.128   2.022   0.831  0.00  0.00    +0.035 A 
ATOM     20  F   UNL     1       1.099  -2.075   1.253  0.00  0.00    -0.205 F 
ENDBRANCH   8  19
ENDBRANCH   7  11
ENDBRANCH   1   7
BRANCH   5  21
ATOM     21  C   UNL     1       5.544  10.748   1.340  0.00  0.00    +0.109 C 
BRANCH  21  22
ATOM     22  N   UNL     1       5.248  12.182   1.387  0.00  0.00    -0.299 N 
ATOM     23  C   UNL     1       6.238  13.067   1.619  0.00  0.00    +0.304 C 
ATOM     24  O   UNL     1       7.376  12.675   1.790  0.00  0.00    -0.253 OA
ATOM     25  N   UNL     1       5.965  14.386   1.663  0.00  0.00    -0.269 N 
ATOM     26  H   UNL     1       4.340  12.494   1.252  0.00  0.00    +0.150 HD
ATOM     27  H   UNL     1       5.048  14.694   1.603  0.00  0.00    +0.156 HD
BRANCH  25  28
ATOM     28  C   UNL     1       7.008  15.312   1.796  0.00  0.00    +0.035 A 
ATOM     29  C   UNL     1       6.801  16.495   2.493  0.00  0.00    +0.026 A 
ATOM     30  C   UNL     1       7.832  17.405   2.628  0.00  0.00    +0.040 A 
ATOM     31  C   UNL     1       9.067  17.143   2.058  0.00  0.00    +0.124 A 
ATOM     32  C   UNL     1       9.273  15.966   1.358  0.00  0.00    +0.040 A 
ATOM     33  C   UNL     1       8.246  15.051   1.226  0.00  0.00    +0.026 A 
ATOM     34  F   UNL     1      10.072  18.036   2.186  0.00  0.00    -0.205 F 
ENDBRANCH  25  28
ENDBRANCH  21  22
ENDBRANCH   5  21
TORSDOF 6
