REMARK  Name = ZINC05563171
REMARK  8 active torsions:
REMARK  status: ('A' for Active; 'I' for Inactive)
REMARK    1  A    between atoms: C_1  and  C_2
REMARK    2  A    between atoms: C_9  and  N_23
REMARK    3  A    between atoms: C_10  and  C_13
REMARK    4  A    between atoms: C_14  and  C_15
REMARK    5  A    between atoms: C_14  and  C_17
REMARK    6  A    between atoms: N_19  and  C_20
REMARK    7  A    between atoms: C_20  and  C_21
REMARK    8  A    between atoms: C_26  and  C_29
REMARK                            x       y       z     vdW  Elec       q    Type
REMARK                         _______ _______ _______ _____ _____    ______ ____
ROOT
ATOM      1  C   UNL     1       3.534  -1.236  -1.664  0.00  0.00    +0.047 C 
ATOM      2  C   UNL     1       2.500  -2.144  -1.050  0.00  0.00    -0.007 A 
ATOM      3  C   UNL     1       2.771  -3.468  -0.865  0.00  0.00    +0.008 A 
ATOM      4  C   UNL     1       1.800  -4.299  -0.293  0.00  0.00    +0.019 A 
ATOM      5  C   UNL     1       0.601  -3.790   0.071  0.00  0.00    +0.096 A 
ATOM      6  N   UNL     1       0.320  -2.469  -0.109  0.00  0.00    -0.267 N 
ATOM      7  C   UNL     1       1.248  -1.633  -0.664  0.00  0.00    +0.145 A 
ATOM      8  N   UNL     1       0.992  -0.337  -0.853  0.00  0.00    -0.213 NA
ATOM      9  C   UNL     1      -0.166   0.202  -0.505  0.00  0.00    +0.136 A 
ATOM     10  C   UNL     1      -1.170  -0.616   0.076  0.00  0.00    +0.081 A 
ATOM     11  C   UNL     1      -0.887  -1.993   0.267  0.00  0.00    +0.267 A 
ATOM     12  O   UNL     1      -1.718  -2.734   0.762  0.00  0.00    -0.267 OA
ENDROOT
BRANCH   9  13
ATOM     13  N   UNL     1      -0.397   1.542  -0.709  0.00  0.00    -0.314 N 
ATOM     14  C   UNL     1      -1.483   1.748  -1.675  0.00  0.00    +0.107 C 
ATOM     15  C   UNL     1      -1.809   3.241  -1.768  0.00  0.00    +0.031 C 
ATOM     16  C   UNL     1      -0.557   4.005  -2.209  0.00  0.00    +0.078 C 
ATOM     17  C   UNL     1       0.573   3.735  -1.213  0.00  0.00    +0.031 C 
ATOM     18  C   UNL     1       0.830   2.228  -1.136  0.00  0.00    +0.107 C 
BRANCH  16  19
ATOM     19  C   UNL     1      -0.855   5.482  -2.246  0.00  0.00    +0.214 C 
ATOM     20  O   UNL     1      -0.224   6.245  -1.545  0.00  0.00    -0.276 OA
ATOM     21  N   UNL     1      -1.820   5.955  -3.059  0.00  0.00    -0.329 N 
ATOM     22  H   UNL     1      -2.324   5.345  -3.619  0.00  0.00    +0.145 HD
ATOM     23  H   UNL     1      -2.011   6.905  -3.082  0.00  0.00    +0.145 HD
ENDBRANCH  16  19
ENDBRANCH   9  13
BRANCH  10  24
ATOM     24  C   UNL     1      -2.412  -0.076   0.451  0.00  0.00    +0.040 C 
ATOM     25  C   UNL     1      -2.465   0.999   1.329  0.00  0.00    +0.114 C 
BRANCH  25  26
ATOM     26  C   UNL     1      -3.755   1.618   1.653  0.00  0.00    +0.255 C 
ATOM     27  O   UNL     1      -4.778   1.191   1.151  0.00  0.00    -0.269 OA
ATOM     28  N   UNL     1      -3.806   2.661   2.505  0.00  0.00    -0.307 N 
ATOM     29  H   UNL     1      -2.991   3.002   2.904  0.00  0.00    +0.149 HD
BRANCH  28  30
ATOM     30  C   UNL     1      -5.094   3.280   2.828  0.00  0.00    +0.131 C 
BRANCH  30  31
ATOM     31  C   UNL     1      -4.878   4.415   3.795  0.00  0.00    -0.016 C 
ATOM     32  C   UNL     1      -5.319   5.614   3.507  0.00  0.00    +0.005 C 
ENDBRANCH  30  31
ENDBRANCH  28  30
ENDBRANCH  25  26
BRANCH  25  33
ATOM     33  C   UNL     1      -1.261   1.502   1.919  0.00  0.00    +0.104 C 
ATOM     34  N   UNL     1      -0.306   1.901   2.387  0.00  0.00    -0.191 NA
ENDBRANCH  25  33
ENDBRANCH  10  24
TORSDOF 7
