REMARK  Name = ZINC08221510
REMARK  5 active torsions:
REMARK  status: ('A' for Active; 'I' for Inactive)
REMARK    1  A    between atoms: C_1  and  C_2
REMARK    2  A    between atoms: C_3  and  C_25
REMARK    3  A    between atoms: N_9  and  C_12
REMARK    4  A    between atoms: C_12  and  C_13
REMARK    5  A    between atoms: C_16  and  C_18
REMARK                            x       y       z     vdW  Elec       q    Type
REMARK                         _______ _______ _______ _____ _____    ______ ____
ROOT
ATOM      1  C   UNL     1      -1.303   2.054   0.019  0.00  0.00    +0.222 C 
ENDROOT
BRANCH   1  10
ATOM      2  C   UNL     1       3.954   3.402  -0.017  0.00  0.00    +0.045 C 
ATOM      3  C   UNL     1       3.726   1.912  -0.024  0.00  0.00    -0.026 A 
ATOM      4  C   UNL     1       4.768   1.066  -0.039  0.00  0.00    -0.008 A 
ATOM      5  S   UNL     1       3.995  -0.541  -0.041  0.00  0.00    -0.073 S 
ATOM      6  C   UNL     1       2.296  -0.028  -0.021  0.00  0.00    +0.116 A 
ATOM      7  C   UNL     1       2.378   1.376  -0.013  0.00  0.00    +0.075 A 
ATOM      8  C   UNL     1       1.124   2.069   0.002  0.00  0.00    +0.263 A 
ATOM      9  O   UNL     1       1.090   3.288   0.009  0.00  0.00    -0.267 OA
ATOM     10  N   UNL     1      -0.016   1.354   0.009  0.00  0.00    -0.290 N 
ATOM     11  C   UNL     1       0.002  -0.004   0.002  0.00  0.00    +0.203 A 
ATOM     12  N   UNL     1       1.129  -0.665  -0.013  0.00  0.00    -0.230 NA
ATOM     13  C   UNL     1       6.239   1.395  -0.053  0.00  0.00    +0.052 C 
ENDBRANCH   1  10
BRANCH   1  14
ATOM     14  C   UNL     1      -1.738   2.286   1.444  0.00  0.00    +0.216 A 
ATOM     15  N   UNL     1      -1.449   3.335   2.161  0.00  0.00    -0.220 NA
ATOM     16  C   UNL     1      -2.003   3.198   3.375  0.00  0.00    +0.161 A 
ATOM     17  C   UNL     1      -2.658   2.009   3.393  0.00  0.00    +0.155 A 
ATOM     18  O   UNL     1      -2.488   1.450   2.174  0.00  0.00    -0.438 OA
BRANCH  17  19
ATOM     19  C   UNL     1      -3.416   1.437   4.526  0.00  0.00    +0.019 A 
ATOM     20  C   UNL     1      -3.505   2.134   5.732  0.00  0.00    +0.013 A 
ATOM     21  C   UNL     1      -4.218   1.598   6.784  0.00  0.00    +0.021 A 
ATOM     22  C   UNL     1      -4.837   0.366   6.649  0.00  0.00    +0.041 A 
ATOM     23  C   UNL     1      -4.747  -0.332   5.456  0.00  0.00    +0.021 A 
ATOM     24  C   UNL     1      -4.041   0.196   4.396  0.00  0.00    +0.013 A 
ATOM     25 CL   UNL     1      -5.727  -0.305   7.979  0.00  0.00    -0.084 Cl
ENDBRANCH  17  19
ENDBRANCH   1  14
TORSDOF 3
