REMARK  Name = ZINC12224559
REMARK  6 active torsions:
REMARK  status: ('A' for Active; 'I' for Inactive)
REMARK    1  A    between atoms: C_10  and  C_11
REMARK    2  A    between atoms: C_11  and  S_12
REMARK    3  A    between atoms: S_12  and  C_13
REMARK    4  A    between atoms: C_18  and  N_22
REMARK    5  A    between atoms: C_19  and  N_21
REMARK    6  A    between atoms: C_23  and  C_25
REMARK                            x       y       z     vdW  Elec       q    Type
REMARK                         _______ _______ _______ _____ _____    ______ ____
ROOT
ATOM      1  C   UNL     1      -4.709   4.907  -1.359  0.00  0.00    +0.171 A 
ATOM      2  N   UNL     1      -5.471   5.321  -2.409  0.00  0.00    -0.300 N 
ATOM      3  H   UNL     1      -5.169   5.166  -3.318  0.00  0.00    +0.171 HD
ATOM      4  C   UNL     1      -6.646   5.947  -2.189  0.00  0.00    +0.275 A 
ATOM      5  O   UNL     1      -7.336   6.322  -3.124  0.00  0.00    -0.266 OA
ATOM      6  C   UNL     1      -7.061   6.160  -0.866  0.00  0.00    +0.139 A 
ATOM      7  C   UNL     1      -6.245   5.716   0.169  0.00  0.00    +0.146 A 
ATOM      8  N   UNL     1      -5.093   5.097  -0.115  0.00  0.00    -0.207 NA
ENDROOT
BRANCH   6   9
ATOM      9  N   UNL     1      -8.280   6.809  -0.591  0.00  0.00    -0.274 N 
ATOM     10  C   UNL     1      -8.490   8.065  -1.035  0.00  0.00    +0.251 C 
ATOM     11  O   UNL     1      -7.663   8.604  -1.745  0.00  0.00    -0.270 OA
ATOM     12  H   UNL     1      -8.969   6.353  -0.082  0.00  0.00    +0.155 HD
BRANCH  10  13
ATOM     13  C   UNL     1      -9.724   8.784  -0.659  0.00  0.00    +0.072 A 
ATOM     14  C   UNL     1     -10.678   8.165   0.151  0.00  0.00    +0.016 A 
ATOM     15  C   UNL     1     -11.826   8.844   0.501  0.00  0.00    +0.001 A 
ATOM     16  C   UNL     1     -12.039  10.133   0.045  0.00  0.00    +0.003 A 
ATOM     17  C   UNL     1     -11.103  10.753  -0.761  0.00  0.00    +0.039 A 
ATOM     18  C   UNL     1      -9.945  10.086  -1.118  0.00  0.00    +0.135 A 
ATOM     19  F   UNL     1      -9.030  10.692  -1.907  0.00  0.00    -0.205 F 
ENDBRANCH  10  13
ENDBRANCH   6   9
BRANCH   7  20
ATOM     20  N   UNL     1      -6.623   5.909   1.485  0.00  0.00    -0.341 N 
ATOM     21  H   UNL     1      -7.460   6.356   1.688  0.00  0.00    +0.144 HD
ATOM     22  H   UNL     1      -6.052   5.599   2.205  0.00  0.00    +0.144 HD
ENDBRANCH   7  20
BRANCH   1  23
ATOM     23  S   UNL     1      -3.179   4.092  -1.674  0.00  0.00    -0.083 S 
BRANCH  23  24
ATOM     24  C   UNL     1      -2.630   3.787   0.023  0.00  0.00    +0.113 C 
BRANCH  24  34
ATOM     25  C   UNL     1       2.281   5.229  -0.008  0.00  0.00    +0.001 A 
ATOM     26  C   UNL     1       1.062   5.903   0.012  0.00  0.00    +0.001 A 
ATOM     27  C   UNL     1      -0.116   5.221   0.015  0.00  0.00    +0.009 A 
ATOM     28  C   UNL     1      -0.105   3.816  -0.002  0.00  0.00    -0.014 A 
ATOM     29  C   UNL     1       1.135   3.130  -0.023  0.00  0.00    -0.018 A 
ATOM     30  C   UNL     1       2.330   3.869  -0.026  0.00  0.00    +0.008 A 
ATOM     31  C   UNL     1       1.146   1.726  -0.041  0.00  0.00    +0.008 A 
ATOM     32  C   UNL     1      -0.032   1.043  -0.037  0.00  0.00    +0.001 A 
ATOM     33  C   UNL     1      -1.252   1.717  -0.022  0.00  0.00    +0.005 A 
ATOM     34  C   UNL     1      -1.301   3.077   0.002  0.00  0.00    -0.029 A 
ENDBRANCH  24  34
ENDBRANCH  23  24
ENDBRANCH   1  23
TORSDOF 6
