REMARK  Name = ZINC36948302
REMARK  3 active torsions:
REMARK  status: ('A' for Active; 'I' for Inactive)
REMARK    1  A    between atoms: C_1  and  C_2
REMARK    2  A    between atoms: C_5  and  N_16
REMARK    3  A    between atoms: C_7  and  N_8
REMARK                            x       y       z     vdW  Elec       q    Type
REMARK                         _______ _______ _______ _____ _____    ______ ____
ROOT
ATOM      1  C   UNL     1      -0.018   1.503   0.010  0.00  0.00    +0.045 C 
ATOM      2  C   UNL     1       0.002  -0.004   0.002  0.00  0.00    -0.029 A 
ATOM      3  C   UNL     1       0.006  -0.688  -1.199  0.00  0.00    +0.007 A 
ATOM      4  C   UNL     1       0.024  -2.069  -1.211  0.00  0.00    +0.023 A 
ATOM      5  C   UNL     1       0.040  -2.776  -0.014  0.00  0.00    +0.026 A 
ATOM      6  C   UNL     1       0.036  -2.092   1.193  0.00  0.00    +0.046 A 
ATOM      7  C   UNL     1       0.023  -0.704   1.202  0.00  0.00    +0.034 A 
ENDROOT
BRANCH   7   8
ATOM      8  N   UNL     1       0.025  -0.013   2.415  0.00  0.00    -0.327 N 
ATOM      9  C   UNL     1      -1.245   0.324   3.060  0.00  0.00    +0.128 C 
ATOM     10  C   UNL     1      -1.357  -0.426   4.391  0.00  0.00    +0.184 C 
ATOM     11  S   UNL     1       0.061   0.019   5.436  0.00  0.00    -0.028 S 
ATOM     12  O   UNL     1       0.090  -0.856   6.556  0.00  0.00    -0.174 OA
ATOM     13  O   UNL     1       0.038   1.423   5.656  0.00  0.00    -0.174 OA
ATOM     14  C   UNL     1       1.469  -0.377   4.357  0.00  0.00    +0.184 C 
ATOM     15  C   UNL     1       1.299   0.363   3.032  0.00  0.00    +0.128 C 
ENDBRANCH   7   8
BRANCH   5  16
ATOM     16  N   UNL     1       0.058  -4.172  -0.027  0.00  0.00    -0.358 N 
ATOM     17  H   UNL     1       0.060  -4.649  -0.872  0.00  0.00    +0.142 HD
ATOM     18  H   UNL     1       0.069  -4.665   0.808  0.00  0.00    +0.142 HD
ENDBRANCH   5  16
TORSDOF 2
