REMARK  Name = ZINC65315508
REMARK  6 active torsions:
REMARK  status: ('A' for Active; 'I' for Inactive)
REMARK    1  A    between atoms: C_2  and  C_3
REMARK    2  A    between atoms: C_3  and  N_4
REMARK    3  A    between atoms: C_5  and  C_7
REMARK    4  A    between atoms: N_16  and  C_17
REMARK    5  A    between atoms: C_20  and  N_23
REMARK    6  A    between atoms: N_26  and  C_27
REMARK                            x       y       z     vdW  Elec       q    Type
REMARK                         _______ _______ _______ _____ _____    ______ ____
ROOT
ATOM      1  C   UNL     1      -0.539  -6.890   5.975  0.00  0.00    +0.035 A 
ATOM      2  C   UNL     1      -1.726  -6.172   5.898  0.00  0.00    +0.025 A 
ATOM      3  C   UNL     1      -2.804  -6.536   6.679  0.00  0.00    +0.025 A 
ATOM      4  C   UNL     1      -2.704  -7.620   7.540  0.00  0.00    +0.035 A 
ATOM      5  C   UNL     1      -1.518  -8.339   7.617  0.00  0.00    +0.025 A 
ATOM      6  C   UNL     1      -0.440  -7.977   6.832  0.00  0.00    +0.025 A 
ENDROOT
BRANCH   1  15
ATOM      7  C   UNL     1       3.365  -3.062   3.857  0.00  0.00    +0.092 C 
ATOM      8  C   UNL     1       4.299  -4.046   3.148  0.00  0.00    +0.016 C 
ATOM      9  C   UNL     1       4.093  -5.450   3.720  0.00  0.00    +0.020 C 
ATOM     10  C   UNL     1       2.647  -5.891   3.471  0.00  0.00    +0.109 C 
ATOM     11  N   UNL     1       1.741  -4.876   4.024  0.00  0.00    -0.285 N 
ATOM     12  C   UNL     1       1.911  -3.476   3.611  0.00  0.00    +0.122 C 
ATOM     13  C   UNL     1       0.771  -5.221   4.895  0.00  0.00    +0.306 C 
ATOM     14  O   UNL     1       0.092  -4.361   5.421  0.00  0.00    -0.252 OA
ATOM     15  N   UNL     1       0.556  -6.520   5.183  0.00  0.00    -0.269 N 
ATOM     16  H   UNL     1       1.158  -7.199   4.841  0.00  0.00    +0.156 HD
BRANCH   7  18
ATOM     17  N   UNL     1       2.874  -0.639   3.796  0.00  0.00    -0.312 N 
ATOM     18  C   UNL     1       3.592  -1.674   3.317  0.00  0.00    +0.218 C 
ATOM     19  O   UNL     1       4.420  -1.489   2.450  0.00  0.00    -0.275 OA
ATOM     20  H   UNL     1       2.212  -0.787   4.489  0.00  0.00    +0.149 HD
BRANCH  17  21
ATOM     21  C   UNL     1       3.095   0.711   3.270  0.00  0.00    +0.131 C 
BRANCH  21  23
ATOM     22  C   UNL     1       2.666   2.734   4.567  0.00  0.00    +0.005 C 
ATOM     23  C   UNL     1       2.174   1.678   3.968  0.00  0.00    -0.016 C 
ENDBRANCH  21  23
ENDBRANCH  17  21
ENDBRANCH   7  18
ENDBRANCH   1  15
BRANCH   4  24
ATOM     24  N   UNL     1      -3.799  -7.990   8.333  0.00  0.00    -0.269 N 
ATOM     25  C   UNL     1      -3.598  -8.493   9.567  0.00  0.00    +0.308 C 
ATOM     26  O   UNL     1      -2.476  -8.527  10.035  0.00  0.00    -0.252 OA
ATOM     27  N   UNL     1      -4.641  -8.960  10.282  0.00  0.00    -0.269 N 
ATOM     28  H   UNL     1      -4.701  -7.883   7.994  0.00  0.00    +0.156 HD
ATOM     29  H   UNL     1      -5.522  -9.007   9.880  0.00  0.00    +0.156 HD
BRANCH  27  30
ATOM     30  C   UNL     1      -4.452  -9.376  11.606  0.00  0.00    +0.035 A 
ATOM     31  C   UNL     1      -3.506  -8.745  12.404  0.00  0.00    +0.026 A 
ATOM     32  C   UNL     1      -3.322  -9.157  13.710  0.00  0.00    +0.040 A 
ATOM     33  C   UNL     1      -4.078 -10.197  14.222  0.00  0.00    +0.124 A 
ATOM     34  C   UNL     1      -5.021 -10.828  13.428  0.00  0.00    +0.040 A 
ATOM     35  C   UNL     1      -5.213 -10.415  12.124  0.00  0.00    +0.026 A 
ATOM     36  F   UNL     1      -3.896 -10.598  15.499  0.00  0.00    -0.205 F 
ENDBRANCH  27  30
ENDBRANCH   4  24
TORSDOF 6
