REMARK  Name = ZINC53114657
REMARK  6 active torsions:
REMARK  status: ('A' for Active; 'I' for Inactive)
REMARK    1  A    between atoms: C_1  and  C_2
REMARK    2  A    between atoms: C_7  and  C_9
REMARK    3  A    between atoms: C_7  and  N_11
REMARK    4  A    between atoms: C_9  and  O_10
REMARK    5  A    between atoms: N_11  and  C_12
REMARK    6  A    between atoms: C_17  and  N_18
REMARK                            x       y       z     vdW  Elec       q    Type
REMARK                         _______ _______ _______ _____ _____    ______ ____
ROOT
ATOM      1  C   UNL     1      -1.517  -1.944   2.288  0.00  0.00    +0.052 A 
ATOM      2  C   UNL     1      -1.062  -0.955   3.147  0.00  0.00    +0.074 A 
ATOM      3  C   UNL     1      -1.901  -0.444   4.126  0.00  0.00    +0.164 A 
ATOM      4  C   UNL     1      -3.200  -0.921   4.246  0.00  0.00    +0.164 A 
ATOM      5  C   UNL     1      -3.656  -1.912   3.389  0.00  0.00    +0.074 A 
ATOM      6  C   UNL     1      -2.821  -2.421   2.406  0.00  0.00    +0.049 A 
ATOM      7  O   UNL     1      -4.040  -0.424   5.197  0.00  0.00    -0.485 OA
ATOM      8  C   UNL     1      -3.436   0.298   6.275  0.00  0.00    +0.270 C 
ATOM      9  C   UNL     1      -2.415   1.279   5.684  0.00  0.00    +0.270 C 
ATOM     10  O   UNL     1      -1.435   0.525   4.963  0.00  0.00    -0.485 OA
ENDROOT
BRANCH   6  11
ATOM     11  N   UNL     1      -3.286  -3.418   1.536  0.00  0.00    -0.356 N 
ATOM     12  H   UNL     1      -2.699  -3.776   0.852  0.00  0.00    +0.142 HD
ATOM     13  H   UNL     1      -4.194  -3.749   1.619  0.00  0.00    +0.142 HD
ENDBRANCH   6  11
BRANCH   1  14
ATOM     14  N   UNL     1      -0.667  -2.460   1.298  0.00  0.00    -0.335 N 
ATOM     15  H   UNL     1      -1.012  -3.085   0.642  0.00  0.00    +0.147 HD
BRANCH  14  21
ATOM     16  C   UNL     1       0.267   1.216  -0.722  0.00  0.00    +0.007 C 
ATOM     17  C   UNL     1       0.177  -0.279  -0.411  0.00  0.00    -0.012 C 
ATOM     18  C   UNL     1       0.904  -1.071  -1.500  0.00  0.00    +0.003 C 
ATOM     19  C   UNL     1       0.814  -2.567  -1.188  0.00  0.00    +0.002 C 
ATOM     20  C   UNL     1       1.466  -2.846   0.167  0.00  0.00    +0.028 C 
ATOM     21  C   UNL     1       0.740  -2.053   1.256  0.00  0.00    +0.055 C 
ATOM     22  C   UNL     1       0.830  -0.558   0.945  0.00  0.00    +0.031 C 
BRANCH  21  23
ATOM     23  C   UNL     1       1.392  -2.332   2.611  0.00  0.00    +0.181 C 
BRANCH  23  24
ATOM     24  O   UNL     1       1.298  -3.727   2.907  0.00  0.00    -0.393 OA
ATOM     25  H   UNL     1       1.693  -3.977   3.754  0.00  0.00    +0.209 HD
ENDBRANCH  23  24
ENDBRANCH  21  23
ENDBRANCH  14  21
ENDBRANCH   1  14
TORSDOF 5
