REMARK  Name = ZINC11121528
REMARK  5 active torsions:
REMARK  status: ('A' for Active; 'I' for Inactive)
REMARK    1  A    between atoms: C_6  and  S_7
REMARK    2  A    between atoms: S_7  and  N_10
REMARK    3  A    between atoms: C_13  and  C_16
REMARK    4  A    between atoms: C_24  and  S_28
REMARK    5  A    between atoms: S_28  and  N_31
REMARK                            x       y       z     vdW  Elec       q    Type
REMARK                         _______ _______ _______ _____ _____    ______ ____
ROOT
ATOM      1  C   UNL     1       1.136   7.486   4.416  0.00  0.00    +0.222 C 
ATOM      2  O   UNL     1       2.033   8.268   4.184  0.00  0.00    -0.275 OA
ATOM      3  N   UNL     1       0.128   7.841   5.236  0.00  0.00    -0.264 N 
ATOM      4  C   UNL     1       0.115   9.101   5.813  0.00  0.00    +0.165 A 
ATOM      5  N   UNL     1       0.989  10.072   5.689  0.00  0.00    -0.225 NA
ATOM      6  C   UNL     1       0.847  11.262   6.312  0.00  0.00    +0.080 A 
ATOM      7  C   UNL     1       1.706  12.384   6.259  0.00  0.00    +0.031 A 
ATOM      8  C   UNL     1       1.415  13.522   6.964  0.00  0.00    +0.030 A 
ATOM      9  C   UNL     1       0.276  13.616   7.751  0.00  0.00    +0.106 A 
ATOM     10  C   UNL     1      -0.586  12.538   7.827  0.00  0.00    +0.045 A 
ATOM     11  C   UNL     1      -0.303  11.394   7.123  0.00  0.00    +0.043 A 
ATOM     12  S   UNL     1      -1.090   9.813   6.924  0.00  0.00    -0.052 S 
ATOM     13  H   UNL     1      -0.590   7.216   5.422  0.00  0.00    +0.157 HD
ENDROOT
BRANCH   1  17
ATOM     14  N   UNL     1       1.154   4.329   1.596  0.00  0.00    -0.177 NA
ATOM     15  C   UNL     1      -0.107   4.535   2.322  0.00  0.00    +0.110 C 
ATOM     16  C   UNL     1      -0.106   5.935   2.932  0.00  0.00    +0.030 C 
ATOM     17  C   UNL     1       1.149   6.116   3.788  0.00  0.00    +0.078 C 
ATOM     18  C   UNL     1       2.394   5.970   2.909  0.00  0.00    +0.030 C 
ATOM     19  C   UNL     1       2.422   4.565   2.300  0.00  0.00    +0.110 C 
BRANCH  14  20
ATOM     20  S   UNL     1       1.146   3.847   0.011  0.00  0.00    +0.061 S 
ATOM     21  O   UNL     1       2.380   4.274  -0.549  0.00  0.00    -0.153 OA
ATOM     22  O   UNL     1      -0.110   4.239  -0.526  0.00  0.00    -0.153 OA
BRANCH  20  28
ATOM     23  C   UNL     1      -0.017   1.378   0.010  0.00  0.00    +0.030 A 
ATOM     24  C   UNL     1       0.002  -0.004   0.002  0.00  0.00    +0.022 A 
ATOM     25  C   UNL     1       1.210  -0.679  -0.013  0.00  0.00    +0.041 A 
ATOM     26  C   UNL     1       2.398   0.030  -0.021  0.00  0.00    +0.022 A 
ATOM     27  C   UNL     1       2.378   1.412  -0.013  0.00  0.00    +0.030 A 
ATOM     28  C   UNL     1       1.171   2.086   0.002  0.00  0.00    +0.106 A 
ATOM     29 CL   UNL     1       1.234  -2.415  -0.022  0.00  0.00    -0.084 Cl
ENDBRANCH  20  28
ENDBRANCH  14  20
ENDBRANCH   1  17
BRANCH   9  30
ATOM     30  S   UNL     1      -0.068  15.095   8.645  0.00  0.00    +0.056 S 
ATOM     31  O   UNL     1       0.613  16.145   7.972  0.00  0.00    -0.153 OA
ATOM     32  O   UNL     1      -1.472  15.118   8.868  0.00  0.00    -0.153 OA
BRANCH  30  33
ATOM     33  N   UNL     1       0.645  14.946  10.132  0.00  0.00    -0.204 NA
ATOM     34  H   UNL     1       0.960  15.735  10.601  0.00  0.00    +0.144 HD
ATOM     35  H   UNL     1       0.748  14.069  10.535  0.00  0.00    +0.144 HD
ENDBRANCH  30  33
ENDBRANCH   9  30
TORSDOF 5
