REMARK  Name = ZINC42413787
REMARK  5 active torsions:
REMARK  status: ('A' for Active; 'I' for Inactive)
REMARK    1  A    between atoms: C_1  and  C_2
REMARK    2  A    between atoms: C_3  and  N_19
REMARK    3  A    between atoms: C_5  and  S_9
REMARK    4  A    between atoms: S_9  and  N_12
REMARK    5  A    between atoms: N_12  and  C_13
REMARK                            x       y       z     vdW  Elec       q    Type
REMARK                         _______ _______ _______ _____ _____    ______ ____
ROOT
ATOM      1  C   UNL     1      -0.018   1.503   0.010  0.00  0.00    +0.047 C 
ATOM      2  C   UNL     1       0.002  -0.004   0.002  0.00  0.00    -0.011 A 
ATOM      3  C   UNL     1       0.006  -0.693  -1.204  0.00  0.00    +0.031 A 
ATOM      4  C   UNL     1       0.025  -2.082  -1.208  0.00  0.00    +0.052 A 
ATOM      5  C   UNL     1       0.040  -2.774  -0.012  0.00  0.00    +0.114 A 
ATOM      6  C   UNL     1       0.035  -2.087   1.187  0.00  0.00    +0.049 A 
ATOM      7  C   UNL     1       0.023  -0.702   1.194  0.00  0.00    +0.047 A 
ATOM      8 CL   UNL     1       0.026   0.157   2.703  0.00  0.00    -0.083 Cl
ENDROOT
BRANCH   5   9
ATOM      9  S   UNL     1       0.063  -4.536  -0.016  0.00  0.00    +0.093 S 
ATOM     10  O   UNL     1      -0.476  -4.952   1.231  0.00  0.00    -0.148 OA
ATOM     11  O   UNL     1      -0.488  -4.947  -1.260  0.00  0.00    -0.148 OA
BRANCH   9  12
ATOM     12  N   UNL     1       1.652  -5.004  -0.025  0.00  0.00    -0.076 NA
BRANCH  12  13
ATOM     13  C   UNL     1       1.980  -6.365  -0.029  0.00  0.00    +0.184 A 
ATOM     14  C   UNL     1       3.279  -6.900  -0.031  0.00  0.00    +0.068 A 
ATOM     15  C   UNL     1       3.172  -8.248  -0.036  0.00  0.00    +0.107 A 
ATOM     16  N   UNL     1       1.859  -8.559  -0.037  0.00  0.00    -0.283 N 
ATOM     17  H   UNL     1       1.485  -9.454  -0.040  0.00  0.00    +0.188 HD
ATOM     18  N   UNL     1       1.129  -7.364  -0.027  0.00  0.00    -0.155 NA
ENDBRANCH  12  13
ENDBRANCH   9  12
ENDBRANCH   5   9
BRANCH   3  19
ATOM     19  N   UNL     1      -0.010   0.010  -2.411  0.00  0.00    -0.358 N 
ATOM     20  H   UNL     1      -0.023   0.980  -2.408  0.00  0.00    +0.142 HD
ATOM     21  H   UNL     1      -0.007  -0.472  -3.253  0.00  0.00    +0.142 HD
ENDBRANCH   3  19
TORSDOF 4
