REMARK  Name = ZINC36559603
REMARK  16 active torsions:
REMARK  status: ('A' for Active; 'I' for Inactive)
REMARK    1  A    between atoms: C_1  and  C_2
REMARK    2  A    between atoms: C_2  and  C_3
REMARK    3  A    between atoms: C_3  and  N_4
REMARK    4  A    between atoms: N_4  and  C_5
REMARK    5  A    between atoms: C_5  and  C_7
REMARK    6  A    between atoms: C_5  and  C_16
REMARK    7  A    between atoms: C_8  and  O_15
REMARK    8  A    between atoms: C_10  and  O_14
REMARK    9  A    between atoms: C_12  and  O_13
REMARK   10  A    between atoms: N_18  and  C_19
REMARK   11  A    between atoms: C_19  and  C_20
REMARK   12  A    between atoms: C_19  and  C_21
REMARK   13  A    between atoms: C_19  and  C_22
REMARK   14  A    between atoms: C_23  and  C_25
REMARK   15  A    between atoms: C_25  and  C_33
REMARK   16  A    between atoms: C_26  and  C_27
REMARK                            x       y       z     vdW  Elec       q    Type
REMARK                         _______ _______ _______ _____ _____    ______ ____
ROOT
ATOM      1  C   UNL     1       0.517  -2.909  -2.114  0.00  0.00    +0.199 C 
ENDROOT
BRANCH   1   2
ATOM      2  C   UNL     1       1.304  -4.124  -2.534  0.00  0.00    +0.065 A 
ATOM      3  C   UNL     1       2.644  -4.001  -2.870  0.00  0.00    +0.129 A 
ATOM      4  C   UNL     1       3.368  -5.119  -3.256  0.00  0.00    +0.091 A 
ATOM      5  C   UNL     1       2.752  -6.360  -3.305  0.00  0.00    +0.124 A 
ATOM      6  C   UNL     1       1.412  -6.484  -2.968  0.00  0.00    +0.091 A 
ATOM      7  C   UNL     1       0.690  -5.367  -2.578  0.00  0.00    +0.129 A 
BRANCH   7   8
ATOM      8  O   UNL     1      -0.622  -5.489  -2.243  0.00  0.00    -0.506 OA
ATOM      9  H   UNL     1      -1.230  -5.381  -2.988  0.00  0.00    +0.292 HD
ENDBRANCH   7   8
BRANCH   5  10
ATOM     10  O   UNL     1       3.461  -7.456  -3.684  0.00  0.00    -0.507 OA
ATOM     11  H   UNL     1       3.892  -7.918  -2.953  0.00  0.00    +0.292 HD
ENDBRANCH   5  10
BRANCH   3  12
ATOM     12  O   UNL     1       3.247  -2.784  -2.822  0.00  0.00    -0.506 OA
ATOM     13  H   UNL     1       3.706  -2.605  -1.989  0.00  0.00    +0.292 HD
ENDBRANCH   3  12
ENDBRANCH   1   2
BRANCH   1  14
ATOM     14  C   UNL     1       0.240  -2.049  -3.320  0.00  0.00    +0.239 C 
ATOM     15  O   UNL     1       1.023  -1.179  -3.638  0.00  0.00    -0.273 OA
ATOM     16  N   UNL     1      -0.878  -2.247  -4.046  0.00  0.00    -0.309 N 
ATOM     17  H   UNL     1      -1.504  -2.943  -3.793  0.00  0.00    +0.149 HD
BRANCH  16  18
ATOM     18  C   UNL     1      -1.147  -1.411  -5.219  0.00  0.00    +0.026 C 
ATOM     19  C   UNL     1      -0.014  -1.575  -6.234  0.00  0.00    +0.031 C 
ATOM     20  C   UNL     1      -2.470  -1.840  -5.858  0.00  0.00    +0.031 C 
ATOM     21  C   UNL     1      -1.240   0.055  -4.790  0.00  0.00    +0.031 C 
ENDBRANCH  16  18
ENDBRANCH   1  14
BRANCH   1  22
ATOM     22  N   UNL     1       1.290  -2.142  -1.134  0.00  0.00    -0.282 N 
ATOM     23  C   UNL     1       1.863  -2.768  -0.088  0.00  0.00    +0.248 C 
ATOM     24  O   UNL     1       1.845  -3.983  -0.022  0.00  0.00    -0.270 OA
BRANCH  23  25
ATOM     25  C   UNL     1       2.511  -1.983   0.975  0.00  0.00    +0.045 C 
ATOM     26  C   UNL     1       3.751  -2.327   1.415  0.00  0.00    +0.021 C 
BRANCH  26  27
ATOM     27  C   UNL     1       4.339  -1.634   2.569  0.00  0.00    -0.024 A 
ATOM     28  C   UNL     1       3.519  -1.172   3.606  0.00  0.00    +0.008 A 
ATOM     29  C   UNL     1       4.079  -0.523   4.686  0.00  0.00    +0.001 A 
ATOM     30  C   UNL     1       5.448  -0.328   4.746  0.00  0.00    +0.000 A 
ATOM     31  C   UNL     1       6.266  -0.781   3.725  0.00  0.00    +0.001 A 
ATOM     32  C   UNL     1       5.723  -1.436   2.641  0.00  0.00    +0.008 A 
ENDBRANCH  26  27
BRANCH  25  33
ATOM     33  C   UNL     1       1.812  -0.819   1.567  0.00  0.00    -0.013 A 
ATOM     34  C   UNL     1       0.576  -0.988   2.193  0.00  0.00    +0.008 A 
ATOM     35  C   UNL     1      -0.070   0.101   2.741  0.00  0.00    +0.001 A 
ATOM     36  C   UNL     1       0.504   1.357   2.672  0.00  0.00    +0.000 A 
ATOM     37  C   UNL     1       1.729   1.531   2.052  0.00  0.00    +0.001 A 
ATOM     38  C   UNL     1       2.388   0.450   1.504  0.00  0.00    +0.008 A 
ENDBRANCH  25  33
ENDBRANCH  23  25
BRANCH  22  39
ATOM     39  C   UNL     1       1.439  -0.693  -1.292  0.00  0.00    +0.109 C 
BRANCH  39  41
ATOM     40  C   UNL     1       2.944   1.126  -2.112  0.00  0.00    +0.005 C 
ATOM     41  C   UNL     1       2.790  -0.387  -1.943  0.00  0.00    +0.016 C 
ENDBRANCH  39  41
ENDBRANCH  22  39
ENDBRANCH   1  22
TORSDOF 12
