REMARK  Name = ZINC04552213
REMARK  12 active torsions:
REMARK  status: ('A' for Active; 'I' for Inactive)
REMARK    1  A    between atoms: C_4  and  O_7
REMARK    2  A    between atoms: O_7  and  C_8
REMARK    3  A    between atoms: C_8  and  C_9
REMARK    4  A    between atoms: C_9  and  O_10
REMARK    5  A    between atoms: O_10  and  C_11
REMARK    6  A    between atoms: C_12  and  N_38
REMARK    7  A    between atoms: C_15  and  N_27
REMARK    8  A    between atoms: C_16  and  O_17
REMARK    9  A    between atoms: O_17  and  C_18
REMARK   10  A    between atoms: C_18  and  C_19
REMARK   11  A    between atoms: C_19  and  O_20
REMARK   12  A    between atoms: O_20  and  C_21
REMARK                            x       y       z     vdW  Elec       q    Type
REMARK                         _______ _______ _______ _____ _____    ______ ____
ROOT
ATOM      1  C   UNL     1       7.062  -2.590   0.872  0.00  0.00    +0.185 A 
ATOM      2  C   UNL     1       7.462  -3.874   1.271  0.00  0.00    +0.082 A 
ATOM      3  C   UNL     1       8.801  -4.247   1.154  0.00  0.00    +0.059 A 
ATOM      4  C   UNL     1       9.747  -3.328   0.631  0.00  0.00    +0.059 A 
ATOM      5  C   UNL     1       9.335  -2.054   0.239  0.00  0.00    +0.082 A 
ATOM      6  C   UNL     1       7.984  -1.695   0.358  0.00  0.00    +0.185 A 
ATOM      7  C   UNL     1      11.154  -3.749   0.515  0.00  0.00    +0.196 C 
ATOM      8  O   UNL     1      12.058  -2.934   0.518  0.00  0.00    -0.287 OA
ATOM      9  C   UNL     1      11.428  -5.201   0.395  0.00  0.00    +0.033 A 
ATOM     10  C   UNL     1      12.583  -5.671  -0.216  0.00  0.00    +0.012 A 
ATOM     11  C   UNL     1      12.801  -7.035  -0.308  0.00  0.00    +0.001 A 
ATOM     12  C   UNL     1      11.879  -7.931   0.203  0.00  0.00    +0.001 A 
ATOM     13  C   UNL     1      10.723  -7.478   0.815  0.00  0.00    +0.012 A 
ATOM     14  C   UNL     1      10.489  -6.114   0.915  0.00  0.00    +0.033 A 
ATOM     15  C   UNL     1       9.263  -5.585   1.561  0.00  0.00    +0.196 C 
ATOM     16  O   UNL     1       8.661  -6.232   2.397  0.00  0.00    -0.287 OA
ENDROOT
BRANCH   5  17
ATOM     17  N   UNL     1      10.255  -1.150  -0.271  0.00  0.00    -0.354 N 
ATOM     18  H   UNL     1      11.188  -1.403  -0.356  0.00  0.00    +0.142 HD
ATOM     19  H   UNL     1       9.965  -0.265  -0.543  0.00  0.00    +0.142 HD
ENDBRANCH   5  17
BRANCH   2  20
ATOM     20  N   UNL     1       6.532  -4.768   1.781  0.00  0.00    -0.354 N 
ATOM     21  H   UNL     1       5.601  -4.505   1.862  0.00  0.00    +0.142 HD
ATOM     22  H   UNL     1       6.811  -5.654   2.056  0.00  0.00    +0.142 HD
ENDBRANCH   2  20
BRANCH   1  23
ATOM     23  O   UNL     1       5.758  -2.224   0.985  0.00  0.00    -0.483 OA
BRANCH  23  24
ATOM     24  C   UNL     1       5.383  -1.516   2.168  0.00  0.00    +0.270 C 
BRANCH  24  25
ATOM     25  C   UNL     1       3.919  -1.084   2.062  0.00  0.00    +0.270 C 
BRANCH  25  26
ATOM     26  O   UNL     1       3.081  -2.242   2.041  0.00  0.00    -0.489 OA
BRANCH  26  30
ATOM     27  C   UNL     1      -0.954  -1.621   1.453  0.00  0.00    +0.000 A 
ATOM     28  C   UNL     1      -0.454  -2.909   1.503  0.00  0.00    +0.004 A 
ATOM     29  C   UNL     1       0.897  -3.119   1.700  0.00  0.00    +0.045 A 
ATOM     30  C   UNL     1       1.752  -2.037   1.847  0.00  0.00    +0.121 A 
ATOM     31  C   UNL     1       1.248  -0.746   1.795  0.00  0.00    +0.045 A 
ATOM     32  C   UNL     1      -0.104  -0.540   1.599  0.00  0.00    +0.004 A 
ENDBRANCH  26  30
ENDBRANCH  25  26
ENDBRANCH  24  25
ENDBRANCH  23  24
ENDBRANCH   1  23
BRANCH   6  33
ATOM     33  O   UNL     1       7.579  -0.457  -0.029  0.00  0.00    -0.483 OA
BRANCH  33  34
ATOM     34  C   UNL     1       7.062  -0.329  -1.355  0.00  0.00    +0.270 C 
BRANCH  34  35
ATOM     35  C   UNL     1       6.776   1.145  -1.650  0.00  0.00    +0.270 C 
BRANCH  35  36
ATOM     36  O   UNL     1       8.003   1.877  -1.658  0.00  0.00    -0.489 OA
BRANCH  36  37
ATOM     37  C   UNL     1       7.918   3.223  -1.822  0.00  0.00    +0.121 A 
ATOM     38  C   UNL     1       6.677   3.841  -1.862  0.00  0.00    +0.045 A 
ATOM     39  C   UNL     1       6.593   5.210  -2.029  0.00  0.00    +0.004 A 
ATOM     40  C   UNL     1       7.745   5.964  -2.156  0.00  0.00    +0.000 A 
ATOM     41  C   UNL     1       8.984   5.350  -2.116  0.00  0.00    +0.004 A 
ATOM     42  C   UNL     1       9.073   3.982  -1.944  0.00  0.00    +0.045 A 
ENDBRANCH  36  37
ENDBRANCH  35  36
ENDBRANCH  34  35
ENDBRANCH  33  34
ENDBRANCH   6  33
TORSDOF 12
