REMARK  Name = ZINC02978303
REMARK  9 active torsions:
REMARK  status: ('A' for Active; 'I' for Inactive)
REMARK    1  A    between atoms: C_1  and  C_2
REMARK    2  A    between atoms: C_2  and  O_3
REMARK    3  A    between atoms: O_3  and  C_4
REMARK    4  A    between atoms: C_6  and  C_11
REMARK    5  A    between atoms: C_9  and  O_10
REMARK    6  A    between atoms: C_11  and  C_13
REMARK    7  A    between atoms: C_11  and  N_24
REMARK    8  A    between atoms: C_22  and  O_23
REMARK    9  A    between atoms: N_24  and  C_25
REMARK                            x       y       z     vdW  Elec       q    Type
REMARK                         _______ _______ _______ _____ _____    ______ ____
ROOT
ATOM      1  C   UNL     1      -0.230  -4.965   0.482  0.00  0.00    +0.136 C 
ENDROOT
BRANCH   1   2
ATOM      2  C   UNL     1       0.811  -5.595   1.373  0.00  0.00    +0.021 A 
ATOM      3  C   UNL     1       1.362  -6.824   1.020  0.00  0.00    +0.010 A 
ATOM      4  C   UNL     1       2.309  -7.416   1.799  0.00  0.00    +0.010 A 
ATOM      5  C   UNL     1       2.729  -6.788   2.983  0.00  0.00    +0.004 A 
ATOM      6  C   UNL     1       3.700  -7.373   3.818  0.00  0.00    +0.011 A 
ATOM      7  C   UNL     1       4.060  -6.705   4.953  0.00  0.00    +0.020 A 
ATOM      8  C   UNL     1       3.469  -5.480   5.257  0.00  0.00    +0.111 A 
ATOM      9  N   UNL     1       2.565  -4.939   4.477  0.00  0.00    -0.251 NA
ATOM     10  C   UNL     1       2.168  -5.541   3.352  0.00  0.00    +0.113 A 
ATOM     11  C   UNL     1       1.194  -4.954   2.516  0.00  0.00    +0.148 A 
BRANCH  11  12
ATOM     12  O   UNL     1       0.641  -3.758   2.847  0.00  0.00    -0.504 OA
ATOM     13  H   UNL     1      -0.155  -3.830   3.391  0.00  0.00    +0.292 HD
ENDBRANCH  11  12
ENDBRANCH   1   2
BRANCH   1  16
ATOM     14  C   UNL     1       0.920  -1.766  -1.165  0.00  0.00    +0.162 A 
ATOM     15  C   UNL     1       0.311  -2.646  -0.285  0.00  0.00    +0.055 A 
ATOM     16  C   UNL     1       0.438  -4.010  -0.472  0.00  0.00    -0.019 A 
ATOM     17  C   UNL     1       1.181  -4.498  -1.530  0.00  0.00    +0.009 A 
ATOM     18  C   UNL     1       1.796  -3.626  -2.409  0.00  0.00    +0.049 A 
ATOM     19  C   UNL     1       1.668  -2.258  -2.230  0.00  0.00    +0.158 A 
BRANCH  19  20
ATOM     20  O   UNL     1       2.273  -1.398  -3.093  0.00  0.00    -0.503 OA
ATOM     21  H   UNL     1       3.171  -1.148  -2.835  0.00  0.00    +0.292 HD
ENDBRANCH  19  20
BRANCH  14  22
ATOM     22  O   UNL     1       0.791  -0.424  -0.985  0.00  0.00    -0.489 OA
BRANCH  22  24
ATOM     23  C   UNL     1      -0.022   1.538   0.167  0.00  0.00    +0.048 C 
ATOM     24  C   UNL     1       0.008   0.009   0.129  0.00  0.00    +0.226 C 
ENDBRANCH  22  24
ENDBRANCH  14  22
ENDBRANCH   1  16
BRANCH   1  25
ATOM     25  N   UNL     1      -0.920  -6.011  -0.276  0.00  0.00    -0.320 N 
ATOM     26  H   UNL     1      -0.612  -6.249  -1.165  0.00  0.00    +0.148 HD
BRANCH  25  27
ATOM     27  C   UNL     1      -2.018  -6.661   0.276  0.00  0.00    +0.097 A 
ATOM     28  C   UNL     1      -2.382  -6.400   1.594  0.00  0.00    +0.041 A 
ATOM     29  C   UNL     1      -3.479  -7.050   2.129  0.00  0.00    +0.005 A 
ATOM     30  C   UNL     1      -4.172  -7.950   1.330  0.00  0.00    +0.018 A 
ATOM     31  C   UNL     1      -3.752  -8.164   0.033  0.00  0.00    +0.084 A 
ATOM     32  N   UNL     1      -2.682  -7.540  -0.528  0.00  0.00    -0.350 N 
ATOM     33  H   UNL     1      -2.392  -7.719  -1.497  0.00  0.00    +0.166 HD
ENDBRANCH  25  27
ENDBRANCH   1  25
TORSDOF 8
