REMARK  Name = ZINC55174099
REMARK  4 active torsions:
REMARK  status: ('A' for Active; 'I' for Inactive)
REMARK    1  A    between atoms: C_1  and  C_2
REMARK    2  A    between atoms: C_3  and  C_8
REMARK    3  A    between atoms: C_12  and  C_19
REMARK    4  A    between atoms: C_16  and  C_18
REMARK                            x       y       z     vdW  Elec       q    Type
REMARK                         _______ _______ _______ _____ _____    ______ ____
ROOT
ATOM      1  C   UNL     1       0.034  -0.252  -2.563  0.00  0.00    +0.255 C 
ATOM      2  O   UNL     1      -0.171   0.925  -2.799  0.00  0.00    -0.269 OA
ATOM      3  N   UNL     1       0.125  -1.136  -3.576  0.00  0.00    -0.294 N 
ATOM      4  C   UNL     1       0.146  -2.581  -3.309  0.00  0.00    +0.121 C 
ATOM      5  C   UNL     1      -0.951  -3.252  -4.141  0.00  0.00    +0.092 C 
ATOM      6  C   UNL     1      -0.767  -2.883  -5.614  0.00  0.00    +0.016 C 
ATOM      7  C   UNL     1      -0.894  -1.367  -5.781  0.00  0.00    +0.023 C 
ATOM      8  C   UNL     1       0.198  -0.674  -4.969  0.00  0.00    +0.073 C 
ATOM      9  C   UNL     1      -0.012   0.841  -5.019  0.00  0.00    +0.028 C 
ENDROOT
BRANCH   1  12
ATOM     10  C   UNL     1      -0.478   1.421   0.020  0.00  0.00    +0.067 C 
ATOM     11  C   UNL     1      -0.030  -0.017   0.005  0.00  0.00    +0.060 A 
ATOM     12  C   UNL     1       0.181  -0.706  -1.181  0.00  0.00    +0.098 A 
ATOM     13  S   UNL     1       0.681  -2.300  -0.551  0.00  0.00    -0.048 S 
ATOM     14  C   UNL     1       0.577  -1.946   1.091  0.00  0.00    +0.156 A 
ATOM     15  N   UNL     1       0.188  -0.683   1.111  0.00  0.00    -0.230 NA
ATOM     16  N   UNL     1       0.839  -2.775   2.160  0.00  0.00    -0.337 N 
ATOM     17  H   UNL     1       1.125  -3.689   2.007  0.00  0.00    +0.144 HD
ATOM     18  H   UNL     1       0.739  -2.444   3.067  0.00  0.00    +0.144 HD
ENDBRANCH   1  12
BRANCH   5  19
ATOM     19  C   UNL     1      -0.859  -4.748  -3.981  0.00  0.00    +0.215 C 
ATOM     20  O   UNL     1      -0.667  -5.451  -4.951  0.00  0.00    -0.276 OA
ATOM     21  N   UNL     1      -0.989  -5.305  -2.760  0.00  0.00    -0.329 N 
ATOM     22  H   UNL     1      -1.142  -4.743  -1.985  0.00  0.00    +0.145 HD
ATOM     23  H   UNL     1      -0.929  -6.268  -2.658  0.00  0.00    +0.145 HD
ENDBRANCH   5  19
TORSDOF 2
