REMARK  Name = ZINC35622943
REMARK  10 active torsions:
REMARK  status: ('A' for Active; 'I' for Inactive)
REMARK    1  A    between atoms: C_1  and  C_2
REMARK    2  A    between atoms: C_2  and  C_3
REMARK    3  A    between atoms: C_2  and  C_4
REMARK    4  A    between atoms: C_2  and  O_5
REMARK    5  A    between atoms: O_5  and  C_6
REMARK    6  A    between atoms: N_8  and  C_9
REMARK    7  A    between atoms: N_13  and  C_15
REMARK    8  A    between atoms: C_15  and  C_17
REMARK    9  A    between atoms: C_15  and  C_19
REMARK   10  A    between atoms: C_17  and  N_18
REMARK                            x       y       z     vdW  Elec       q    Type
REMARK                         _______ _______ _______ _____ _____    ______ ____
ROOT
ATOM      1  C   UNL     1       4.075   0.135  -2.506  0.00  0.00    +0.091 C 
ATOM      2  C   UNL     1       4.257   1.514  -3.194  0.00  0.00    +0.039 C 
ATOM      3  C   UNL     1       5.600   1.355  -3.939  0.00  0.00    +0.087 C 
ATOM      4  N   UNL     1       5.825  -0.089  -4.132  0.00  0.00    -0.295 NA
ATOM      5  C   UNL     1       4.675  -0.825  -3.563  0.00  0.00    +0.107 C 
ENDROOT
BRANCH   1   8
ATOM      6  C   UNL     1       2.065   0.234  -1.132  0.00  0.00    +0.401 C 
ATOM      7  O   UNL     1       2.707   0.825  -0.287  0.00  0.00    -0.226 OA
ATOM      8  N   UNL     1       2.657  -0.154  -2.279  0.00  0.00    -0.277 N 
ATOM      9  H   UNL     1       2.144  -0.626  -2.954  0.00  0.00    +0.152 HD
BRANCH   6  10
ATOM     10  O   UNL     1       0.762  -0.032  -0.924  0.00  0.00    -0.445 OA
BRANCH  10  12
ATOM     11  C   UNL     1       0.331   1.930   0.420  0.00  0.00    +0.055 C 
ATOM     12  C   UNL     1       0.199   0.410   0.314  0.00  0.00    +0.107 C 
ATOM     13  C   UNL     1       0.945  -0.249   1.476  0.00  0.00    +0.055 C 
ATOM     14  C   UNL     1      -1.279   0.020   0.370  0.00  0.00    +0.055 C 
ENDBRANCH  10  12
ENDBRANCH   6  10
ENDBRANCH   1   8
BRANCH   4  15
ATOM     15  C   UNL     1       6.003  -0.409  -5.554  0.00  0.00    +0.069 C 
BRANCH  15  16
ATOM     16  C   UNL     1       6.177  -1.897  -5.717  0.00  0.00    -0.032 A 
ATOM     17  C   UNL     1       6.933  -2.608  -4.804  0.00  0.00    +0.006 A 
ATOM     18  C   UNL     1       7.093  -3.973  -4.952  0.00  0.00    +0.015 A 
ATOM     19  C   UNL     1       6.496  -4.627  -6.015  0.00  0.00    +0.018 A 
ATOM     20  C   UNL     1       5.739  -3.915  -6.928  0.00  0.00    +0.015 A 
ATOM     21  C   UNL     1       5.576  -2.551  -6.776  0.00  0.00    +0.006 A 
ATOM     22 BR   UNL     1       6.714  -6.494  -6.219  0.00  0.00    -0.050 Br
ENDBRANCH  15  16
BRANCH  15  23
ATOM     23  C   UNL     1       7.243   0.311  -6.087  0.00  0.00    -0.063 C 
BRANCH  23  24
ATOM     24  N   UNL     1       7.359   0.082  -7.534  0.00  0.00    +0.379 N 
ATOM     25  H   UNL     1       7.535  -0.896  -7.706  0.00  0.00    -0.090 HD
ATOM     26  H   UNL     1       6.500   0.354  -7.987  0.00  0.00    -0.090 HD
ATOM     27  H   UNL     1       8.121   0.631  -7.901  0.00  0.00    -0.090 HD
ENDBRANCH  23  24
ENDBRANCH  15  23
ENDBRANCH   4  15
TORSDOF 7
