REMARK  Name = ZINC39327050
REMARK  8 active torsions:
REMARK  status: ('A' for Active; 'I' for Inactive)
REMARK    1  A    between atoms: C_1  and  C_2
REMARK    2  A    between atoms: C_3  and  C_31
REMARK    3  A    between atoms: C_4  and  C_26
REMARK    4  A    between atoms: C_7  and  N_25
REMARK    5  A    between atoms: C_8  and  C_12
REMARK    6  A    between atoms: N_14  and  C_15
REMARK    7  A    between atoms: C_31  and  O_33
REMARK    8  A    between atoms: O_33  and  C_34
REMARK                            x       y       z     vdW  Elec       q    Type
REMARK                         _______ _______ _______ _____ _____    ______ ____
ROOT
ATOM      1  C   UNL     1      -0.018   1.503   0.010  0.00  0.00    +0.061 C 
ATOM      2  C   UNL     1       0.002  -0.004   0.002  0.00  0.00    +0.016 C 
ATOM      3  C   UNL     1      -1.159  -0.672   0.004  0.00  0.00    +0.066 C 
ATOM      4  C   UNL     1      -1.283  -2.167   0.016  0.00  0.00    +0.098 C 
ATOM      5  C   UNL     1       0.068  -2.797  -0.298  0.00  0.00    +0.015 A 
ATOM      6  C   UNL     1       0.254  -4.133  -0.606  0.00  0.00    +0.050 A 
ATOM      7  C   UNL     1       1.543  -4.596  -0.872  0.00  0.00    +0.096 A 
ATOM      8  S   UNL     1       2.515  -3.108  -0.685  0.00  0.00    -0.067 S 
ATOM      9  C   UNL     1       1.196  -2.003  -0.281  0.00  0.00    +0.076 A 
ATOM     10  N   UNL     1       1.212  -0.657  -0.013  0.00  0.00    -0.312 N 
ATOM     11  H   UNL     1       2.042  -0.187   0.162  0.00  0.00    +0.152 HD
ENDROOT
BRANCH   4  12
ATOM     12  C   UNL     1      -1.743  -2.622   1.377  0.00  0.00    +0.002 A 
ATOM     13  C   UNL     1      -2.858  -3.314   1.715  0.00  0.00    +0.012 A 
ATOM     14  C   UNL     1      -3.077  -3.626   3.044  0.00  0.00    +0.008 A 
ATOM     15  C   UNL     1      -2.171  -3.229   3.970  0.00  0.00    +0.045 A 
ATOM     16  S   UNL     1      -0.955  -2.394   2.963  0.00  0.00    -0.101 S 
ENDBRANCH   4  12
BRANCH   7  17
ATOM     17  C   UNL     1       1.968  -5.899  -1.204  0.00  0.00    +0.253 C 
ATOM     18  O   UNL     1       1.154  -6.802  -1.289  0.00  0.00    -0.270 OA
ATOM     19  N   UNL     1       3.274  -6.145  -1.428  0.00  0.00    -0.305 N 
ATOM     20  H   UNL     1       3.922  -5.426  -1.360  0.00  0.00    +0.150 HD
BRANCH  19  21
ATOM     21  C   UNL     1       3.716  -7.499  -1.772  0.00  0.00    +0.036 C 
ATOM     22  C   UNL     1       3.347  -8.460  -0.640  0.00  0.00    +0.029 C 
ATOM     23  C   UNL     1       3.808  -9.873  -1.000  0.00  0.00    -0.008 C 
ATOM     24  C   UNL     1       5.325  -9.879  -1.200  0.00  0.00    +0.007 C 
ATOM     25  C   UNL     1       5.694  -8.919  -2.332  0.00  0.00    -0.008 C 
ATOM     26  C   UNL     1       5.232  -7.505  -1.972  0.00  0.00    +0.029 C 
ATOM     27  C   UNL     1       5.007  -9.366  -3.624  0.00  0.00    +0.007 C 
ATOM     28  C   UNL     1       3.490  -9.360  -3.424  0.00  0.00    -0.008 C 
ATOM     29  C   UNL     1       3.121 -10.320  -2.292  0.00  0.00    +0.007 C 
ATOM     30  C   UNL     1       3.029  -7.946  -3.064  0.00  0.00    +0.029 C 
ENDBRANCH  19  21
ENDBRANCH   7  17
BRANCH   6  31
ATOM     31  N   UNL     1      -0.831  -5.005  -0.647  0.00  0.00    -0.357 N 
ATOM     32  H   UNL     1      -1.724  -4.677  -0.460  0.00  0.00    +0.142 HD
ATOM     33  H   UNL     1      -0.693  -5.941  -0.863  0.00  0.00    +0.142 HD
ENDBRANCH   6  31
BRANCH   3  34
ATOM     34  C   UNL     1      -2.352   0.085  -0.005  0.00  0.00    +0.337 C 
ATOM     35  O   UNL     1      -2.301   1.301  -0.015  0.00  0.00    -0.245 OA
BRANCH  34  36
ATOM     36  O   UNL     1      -3.548  -0.540  -0.004  0.00  0.00    -0.465 OA
ATOM     37  C   UNL     1      -4.713   0.287  -0.013  0.00  0.00    +0.280 C 
ENDBRANCH  34  36
ENDBRANCH   3  34
TORSDOF 6
