REMARK  Name = ZINC25143276
REMARK  10 active torsions:
REMARK  status: ('A' for Active; 'I' for Inactive)
REMARK    1  A    between atoms: C_1  and  C_2
REMARK    2  A    between atoms: C_2  and  C_3
REMARK    3  A    between atoms: C_2  and  C_4
REMARK    4  A    between atoms: C_2  and  C_5
REMARK    5  A    between atoms: C_8  and  C_11
REMARK    6  A    between atoms: N_13  and  N_14
REMARK    7  A    between atoms: C_15  and  C_17
REMARK    8  A    between atoms: C_17  and  C_18
REMARK    9  A    between atoms: C_18  and  N_19
REMARK   10  A    between atoms: N_22  and  C_23
REMARK                            x       y       z     vdW  Elec       q    Type
REMARK                         _______ _______ _______ _____ _____    ______ ____
ROOT
ATOM      1  N   UNL     1       4.637  -1.973  -6.106  0.00  0.00    -0.234 N 
ATOM      2  C   UNL     1       5.922  -1.633  -6.327  0.00  0.00    +0.231 C 
ATOM      3  O   UNL     1       6.511  -0.936  -5.528  0.00  0.00    -0.274 OA
ATOM      4  H   UNL     1       4.166  -2.530  -6.745  0.00  0.00    +0.173 HD
ENDROOT
BRANCH   1   7
ATOM      5  C   UNL     1       2.696  -1.860  -4.732  0.00  0.00    +0.260 C 
ATOM      6  O   UNL     1       2.106  -2.559  -5.533  0.00  0.00    -0.269 OA
ATOM      7  N   UNL     1       3.981  -1.521  -4.953  0.00  0.00    -0.230 N 
ATOM      8  H   UNL     1       4.452  -0.963  -4.314  0.00  0.00    +0.173 HD
BRANCH   5  12
ATOM      9  C   UNL     1       0.707  -0.490  -1.238  0.00  0.00    -0.042 A 
ATOM     10  C   UNL     1       0.033  -1.285  -2.147  0.00  0.00    +0.005 A 
ATOM     11  C   UNL     1       0.672  -1.733  -3.284  0.00  0.00    +0.013 A 
ATOM     12  C   UNL     1       2.004  -1.383  -3.516  0.00  0.00    +0.038 A 
ATOM     13  C   UNL     1       2.679  -0.581  -2.595  0.00  0.00    +0.013 A 
ATOM     14  C   UNL     1       2.025  -0.135  -1.464  0.00  0.00    +0.005 A 
BRANCH   9  16
ATOM     15  C   UNL     1      -0.019   1.526   0.010  0.00  0.00    +0.015 C 
ATOM     16  C   UNL     1       0.002  -0.004   0.002  0.00  0.00    -0.013 C 
ATOM     17  C   UNL     1       0.742  -0.511   1.242  0.00  0.00    +0.015 C 
ATOM     18  C   UNL     1      -1.433  -0.534   0.013  0.00  0.00    +0.015 C 
ENDBRANCH   9  16
ENDBRANCH   5  12
ENDBRANCH   1   7
BRANCH   2  19
ATOM     19  C   UNL     1       6.628  -2.119  -7.566  0.00  0.00    +0.116 C 
BRANCH  19  20
ATOM     20  C   UNL     1       8.065  -1.595  -7.574  0.00  0.00    +0.115 C 
BRANCH  20  21
ATOM     21  N   UNL     1       8.751  -2.068  -8.779  0.00  0.00    -0.299 N 
ATOM     22  C   UNL     1      10.037  -1.728  -9.000  0.00  0.00    +0.300 C 
ATOM     23  O   UNL     1      10.627  -1.030  -8.199  0.00  0.00    -0.253 OA
ATOM     24  N   UNL     1      10.668  -2.163 -10.109  0.00  0.00    -0.297 N 
ATOM     25  H   UNL     1       8.280  -2.626  -9.418  0.00  0.00    +0.150 HD
ATOM     26  H   UNL     1      10.197  -2.721 -10.748  0.00  0.00    +0.151 HD
BRANCH  24  27
ATOM     27  C   UNL     1      12.065  -1.794 -10.349  0.00  0.00    +0.074 C 
ATOM     28  C   UNL     1      12.120  -0.426 -11.032  0.00  0.00    +0.022 C 
ATOM     29  C   UNL     1      13.580  -0.041 -11.282  0.00  0.00    +0.002 C 
ATOM     30  C   UNL     1      14.236  -1.088 -12.184  0.00  0.00    +0.000 C 
ATOM     31  C   UNL     1      14.180  -2.456 -11.502  0.00  0.00    +0.002 C 
ATOM     32  C   UNL     1      12.721  -2.841 -11.251  0.00  0.00    +0.022 C 
ENDBRANCH  24  27
ENDBRANCH  20  21
ENDBRANCH  19  20
ENDBRANCH   2  19
TORSDOF 7
