REMARK  Name = ZINC54621190
REMARK  7 active torsions:
REMARK  status: ('A' for Active; 'I' for Inactive)
REMARK    1  A    between atoms: C_4  and  C_7
REMARK    2  A    between atoms: C_7  and  C_9
REMARK    3  A    between atoms: C_7  and  N_20
REMARK    4  A    between atoms: C_18  and  O_19
REMARK    5  A    between atoms: N_20  and  C_21
REMARK    6  A    between atoms: C_24  and  S_27
REMARK    7  A    between atoms: S_27  and  N_30
REMARK                            x       y       z     vdW  Elec       q    Type
REMARK                         _______ _______ _______ _____ _____    ______ ____
ROOT
ATOM      1  C   UNL     1       3.711  -0.707  -0.038  0.00  0.00    +0.135 C 
ENDROOT
BRANCH   1   2
ATOM      2  C   UNL     1       3.904  -1.293   1.337  0.00  0.00    +0.021 A 
ATOM      3  C   UNL     1       3.438  -2.577   1.607  0.00  0.00    +0.010 A 
ATOM      4  C   UNL     1       3.596  -3.135   2.839  0.00  0.00    +0.010 A 
ATOM      5  C   UNL     1       4.239  -2.409   3.855  0.00  0.00    +0.004 A 
ATOM      6  C   UNL     1       4.422  -2.953   5.141  0.00  0.00    +0.011 A 
ATOM      7  C   UNL     1       5.056  -2.189   6.079  0.00  0.00    +0.020 A 
ATOM      8  C   UNL     1       5.501  -0.910   5.749  0.00  0.00    +0.111 A 
ATOM      9  N   UNL     1       5.329  -0.408   4.551  0.00  0.00    -0.251 NA
ATOM     10  C   UNL     1       4.716  -1.103   3.588  0.00  0.00    +0.113 A 
ATOM     11  C   UNL     1       4.539  -0.559   2.298  0.00  0.00    +0.148 A 
BRANCH  11  12
ATOM     12  O   UNL     1       4.992   0.690   2.015  0.00  0.00    -0.504 OA
ATOM     13  H   UNL     1       4.348   1.391   2.187  0.00  0.00    +0.292 HD
ENDBRANCH  11  12
ENDBRANCH   1   2
BRANCH   1  17
ATOM     14  C   UNL     1       0.065   1.516  -0.141  0.00  0.00    +0.000 A 
ATOM     15  C   UNL     1       1.272   2.174   0.009  0.00  0.00    +0.000 A 
ATOM     16  C   UNL     1       2.452   1.454   0.043  0.00  0.00    +0.006 A 
ATOM     17  C   UNL     1       2.425   0.077  -0.073  0.00  0.00    -0.023 A 
ATOM     18  C   UNL     1       1.218  -0.581  -0.222  0.00  0.00    +0.006 A 
ATOM     19  C   UNL     1       0.038   0.139  -0.258  0.00  0.00    +0.000 A 
ENDBRANCH   1  17
BRANCH   1  20
ATOM     20  N   UNL     1       3.652  -1.788  -1.025  0.00  0.00    -0.333 N 
ATOM     21  H   UNL     1       3.376  -2.678  -0.754  0.00  0.00    +0.147 HD
BRANCH  20  22
ATOM     22  C   UNL     1       3.992  -1.537  -2.356  0.00  0.00    +0.028 A 
ATOM     23  C   UNL     1       4.392  -0.264  -2.744  0.00  0.00    +0.025 A 
ATOM     24  C   UNL     1       4.728  -0.020  -4.061  0.00  0.00    +0.030 A 
ATOM     25  C   UNL     1       4.666  -1.040  -4.993  0.00  0.00    +0.105 A 
ATOM     26  C   UNL     1       4.268  -2.307  -4.610  0.00  0.00    +0.030 A 
ATOM     27  C   UNL     1       3.936  -2.560  -3.294  0.00  0.00    +0.025 A 
BRANCH  25  28
ATOM     28  S   UNL     1       5.095  -0.723  -6.673  0.00  0.00    +0.056 S 
ATOM     29  O   UNL     1       4.431  -1.707  -7.454  0.00  0.00    -0.153 OA
ATOM     30  O   UNL     1       4.909   0.670  -6.884  0.00  0.00    -0.153 OA
BRANCH  28  31
ATOM     31  N   UNL     1       6.718  -1.012  -6.827  0.00  0.00    -0.204 NA
ATOM     32  H   UNL     1       7.077  -1.321  -7.673  0.00  0.00    +0.144 HD
ATOM     33  H   UNL     1       7.309  -0.872  -6.071  0.00  0.00    +0.144 HD
ENDBRANCH  28  31
ENDBRANCH  25  28
ENDBRANCH  20  22
ENDBRANCH   1  20
TORSDOF 7
