REMARK  Name = ZINC67065005
REMARK  6 active torsions:
REMARK  status: ('A' for Active; 'I' for Inactive)
REMARK    1  A    between atoms: C_3  and  C_22
REMARK    2  A    between atoms: C_6  and  C_7
REMARK    3  A    between atoms: C_7  and  N_8
REMARK    4  A    between atoms: N_11  and  N_12
REMARK    5  A    between atoms: C_13  and  C_15
REMARK    6  A    between atoms: C_15  and  C_16
REMARK                            x       y       z     vdW  Elec       q    Type
REMARK                         _______ _______ _______ _____ _____    ______ ____
ROOT
ATOM      1  N   UNL     1      -1.726  -1.018  -1.368  0.00  0.00    -0.294 N 
ATOM      2  C   UNL     1      -2.867  -1.694  -1.606  0.00  0.00    +0.316 C 
ATOM      3  O   UNL     1      -3.536  -2.104  -0.678  0.00  0.00    -0.251 OA
ATOM      4  N   UNL     1      -3.265  -1.918  -2.874  0.00  0.00    -0.218 N 
ATOM      5  H   UNL     1      -1.192  -0.691  -2.108  0.00  0.00    +0.151 HD
ATOM      6  H   UNL     1      -4.086  -2.405  -3.046  0.00  0.00    +0.174 HD
ENDROOT
BRANCH   4   7
ATOM      7  N   UNL     1      -2.494  -1.446  -3.944  0.00  0.00    -0.233 N 
ATOM      8  C   UNL     1      -2.892  -1.669  -5.212  0.00  0.00    +0.229 C 
ATOM      9  O   UNL     1      -3.919  -2.278  -5.427  0.00  0.00    -0.274 OA
ATOM     10  H   UNL     1      -1.673  -0.959  -3.773  0.00  0.00    +0.173 HD
BRANCH   8  11
ATOM     11  C   UNL     1      -2.062  -1.162  -6.363  0.00  0.00    +0.101 C 
BRANCH  11  12
ATOM     12  C   UNL     1      -2.732  -1.546  -7.684  0.00  0.00    -0.002 C 
ATOM     13  C   UNL     1      -2.737  -3.069  -7.829  0.00  0.00    +0.004 C 
ATOM     14  C   UNL     1      -3.408  -3.454  -9.149  0.00  0.00    +0.000 C 
ATOM     15  C   UNL     1      -2.634  -2.833 -10.314  0.00  0.00    +0.000 C 
ATOM     16  C   UNL     1      -2.628  -1.310 -10.169  0.00  0.00    +0.000 C 
ATOM     17  C   UNL     1      -1.958  -0.926  -8.848  0.00  0.00    +0.004 C 
ENDBRANCH  11  12
ENDBRANCH   8  11
ENDBRANCH   4   7
BRANCH   1  18
ATOM     18  C   UNL     1      -1.293  -0.775   0.011  0.00  0.00    +0.141 C 
BRANCH  18  24
ATOM     19  C   UNL     1      -0.017   1.378   0.010  0.00  0.00    +0.006 A 
ATOM     20  C   UNL     1       1.171   2.086   0.002  0.00  0.00    +0.013 A 
ATOM     21  C   UNL     1       2.377   1.411  -0.013  0.00  0.00    +0.055 A 
ATOM     22  C   UNL     1       2.396   0.029  -0.020  0.00  0.00    +0.013 A 
ATOM     23  C   UNL     1       1.208  -0.679  -0.012  0.00  0.00    +0.006 A 
ATOM     24  C   UNL     1       0.002  -0.004   0.002  0.00  0.00    -0.030 A 
BRANCH  21  25
ATOM     25  C   UNL     1       3.672   2.182  -0.022  0.00  0.00    +0.417 C 
ATOM     26  F   UNL     1       4.086   2.414   1.294  0.00  0.00    -0.166 F 
ATOM     27  F   UNL     1       4.651   1.442  -0.695  0.00  0.00    -0.166 F 
ATOM     28  F   UNL     1       3.482   3.405  -0.674  0.00  0.00    -0.166 F 
ENDBRANCH  21  25
ENDBRANCH  18  24
ENDBRANCH   1  18
TORSDOF 6
