REMARK  Name = ZINC03271228
REMARK  9 active torsions:
REMARK  status: ('A' for Active; 'I' for Inactive)
REMARK    1  A    between atoms: C_1  and  C_2
REMARK    2  A    between atoms: C_4  and  S_10
REMARK    3  A    between atoms: C_5  and  C_9
REMARK    4  A    between atoms: S_10  and  C_11
REMARK    5  A    between atoms: C_11  and  C_12
REMARK    6  A    between atoms: N_14  and  N_15
REMARK    7  A    between atoms: C_16  and  C_17
REMARK    8  A    between atoms: C_20  and  O_24
REMARK    9  A    between atoms: C_21  and  O_23
REMARK                            x       y       z     vdW  Elec       q    Type
REMARK                         _______ _______ _______ _____ _____    ______ ____
ROOT
ATOM      1  C   UNL     1       0.006  -2.263  -5.363  0.00  0.00    +0.242 C 
ATOM      2  O   UNL     1       0.022  -3.470  -5.483  0.00  0.00    -0.273 OA
ATOM      3  N   UNL     1      -0.011  -1.477  -6.457  0.00  0.00    -0.206 N 
ATOM      4  H   UNL     1      -0.024  -0.512  -6.361  0.00  0.00    +0.177 HD
ENDROOT
BRANCH   3   5
ATOM      5  N   UNL     1      -0.009  -2.054  -7.734  0.00  0.00    -0.188 NA
ATOM      6  C   UNL     1      -0.025  -1.298  -8.788  0.00  0.00    +0.138 C 
BRANCH   6   7
ATOM      7  C   UNL     1      -0.024  -1.905 -10.132  0.00  0.00    -0.002 A 
ATOM      8  C   UNL     1      -0.011  -3.295 -10.272  0.00  0.00    +0.013 A 
ATOM      9  C   UNL     1      -0.010  -3.861 -11.529  0.00  0.00    +0.050 A 
ATOM     10  C   UNL     1      -0.021  -3.053 -12.657  0.00  0.00    +0.158 A 
ATOM     11  C   UNL     1      -0.034  -1.666 -12.525  0.00  0.00    +0.159 A 
ATOM     12  C   UNL     1      -0.041  -1.092 -11.268  0.00  0.00    +0.058 A 
BRANCH  11  13
ATOM     13  O   UNL     1      -0.044  -0.877 -13.633  0.00  0.00    -0.503 OA
ATOM     14  H   UNL     1      -0.930  -0.658 -13.951  0.00  0.00    +0.292 HD
ENDBRANCH  11  13
BRANCH  10  15
ATOM     15  O   UNL     1      -0.018  -3.616 -13.895  0.00  0.00    -0.503 OA
ATOM     16  H   UNL     1      -0.901  -3.788 -14.250  0.00  0.00    +0.292 HD
ENDBRANCH  10  15
ENDBRANCH   6   7
ENDBRANCH   3   5
BRANCH   1  17
ATOM     17  C   UNL     1       0.004  -1.643  -3.989  0.00  0.00    +0.171 C 
BRANCH  17  18
ATOM     18  S   UNL     1       0.029  -2.952  -2.734  0.00  0.00    -0.116 S 
BRANCH  18  22
ATOM     19  C   UNL     1      -0.018   1.503   0.010  0.00  0.00    +0.045 C 
ATOM     20  C   UNL     1       0.002  -0.004   0.002  0.00  0.00    -0.035 A 
ATOM     21  C   UNL     1       0.006  -0.687  -1.198  0.00  0.00    +0.019 A 
ATOM     22  C   UNL     1       0.025  -2.077  -1.205  0.00  0.00    +0.012 A 
ATOM     23  C   UNL     1       0.041  -2.774  -0.003  0.00  0.00    -0.036 A 
ATOM     24  C   UNL     1       0.037  -2.085   1.193  0.00  0.00    +0.020 A 
ATOM     25  C   UNL     1       0.023  -0.702   1.197  0.00  0.00    +0.021 A 
ATOM     26 BR   UNL     1       0.025   0.238   2.838  0.00  0.00    -0.050 Br
ATOM     27  C   UNL     1       0.061  -4.281  -0.006  0.00  0.00    +0.045 C 
ENDBRANCH  18  22
ENDBRANCH  17  18
ENDBRANCH   1  17
TORSDOF 7
