REMARK  Name = ZINC05780544
REMARK  6 active torsions:
REMARK  status: ('A' for Active; 'I' for Inactive)
REMARK    1  A    between atoms: C_1  and  C_2
REMARK    2  A    between atoms: C_2  and  C_4
REMARK    3  A    between atoms: C_2  and  S_16
REMARK    4  A    between atoms: N_6  and  C_7
REMARK    5  A    between atoms: C_10  and  C_13
REMARK    6  A    between atoms: S_16  and  C_17
REMARK                            x       y       z     vdW  Elec       q    Type
REMARK                         _______ _______ _______ _____ _____    ______ ____
ROOT
ATOM      1  C   UNL     1       2.400  -2.740  -0.137  0.00  0.00    +0.230 C 
ATOM      2  O   UNL     1       3.445  -2.125  -0.144  0.00  0.00    -0.274 OA
ATOM      3  N   UNL     1       1.231  -2.079  -0.020  0.00  0.00    -0.285 N 
ATOM      4  H   UNL     1       0.399  -2.574   0.052  0.00  0.00    +0.155 HD
ENDROOT
BRANCH   3   5
ATOM      5  C   UNL     1       1.216  -0.685  -0.004  0.00  0.00    +0.033 A 
ATOM      6  C   UNL     1       2.255   0.013   0.603  0.00  0.00    +0.024 A 
ATOM      7  C   UNL     1       2.244   1.390   0.620  0.00  0.00    +0.015 A 
ATOM      8  C   UNL     1       1.188   2.086   0.026  0.00  0.00    +0.037 A 
ATOM      9  C   UNL     1       0.146   1.382  -0.583  0.00  0.00    +0.015 A 
ATOM     10  C   UNL     1       0.163   0.005  -0.596  0.00  0.00    +0.024 A 
BRANCH   8  11
ATOM     11  C   UNL     1       1.173   3.562   0.043  0.00  0.00    +0.242 C 
ATOM     12  O   UNL     1       2.080   4.173   0.574  0.00  0.00    -0.270 OA
ATOM     13  N   UNL     1       0.153   4.232  -0.530  0.00  0.00    -0.325 N 
ATOM     14  H   UNL     1      -0.571   3.744  -0.953  0.00  0.00    +0.145 HD
ATOM     15  H   UNL     1       0.143   5.202  -0.518  0.00  0.00    +0.145 HD
ENDBRANCH   8  11
ENDBRANCH   3   5
BRANCH   1  17
ATOM     16  C   UNL     1       2.237  -4.866   1.128  0.00  0.00    +0.029 C 
ATOM     17  C   UNL     1       2.408  -4.242  -0.258  0.00  0.00    +0.136 C 
BRANCH  17  18
ATOM     18  S   UNL     1       3.981  -4.781  -0.973  0.00  0.00    -0.086 S 
BRANCH  18  19
ATOM     19  C   UNL     1       3.666  -6.507  -1.139  0.00  0.00    +0.136 A 
ATOM     20  N   UNL     1       2.585  -7.182  -0.817  0.00  0.00    -0.233 NA
ATOM     21  C   UNL     1       2.480  -8.516  -1.006  0.00  0.00    +0.081 A 
ATOM     22  C   UNL     1       1.382  -9.355  -0.711  0.00  0.00    +0.049 A 
ATOM     23  C   UNL     1       1.442 -10.702  -0.962  0.00  0.00    +0.043 A 
ATOM     24  C   UNL     1       2.575 -11.287  -1.510  0.00  0.00    +0.021 A 
ATOM     25  C   UNL     1       3.668 -10.495  -1.810  0.00  0.00    +0.018 A 
ATOM     26  C   UNL     1       3.616  -9.146  -1.563  0.00  0.00    +0.040 A 
ATOM     27  S   UNL     1       4.738  -7.785  -1.779  0.00  0.00    -0.061 S 
ATOM     28 CL   UNL     1       0.070 -11.698  -0.584  0.00  0.00    -0.083 Cl
ENDBRANCH  18  19
ENDBRANCH  17  18
ENDBRANCH   1  17
TORSDOF 5
