REMARK  Name = ZINC02215677
REMARK  10 active torsions:
REMARK  status: ('A' for Active; 'I' for Inactive)
REMARK    1  A    between atoms: C_1  and  C_2
REMARK    2  A    between atoms: N_8  and  C_9
REMARK    3  A    between atoms: C_9  and  C_10
REMARK    4  A    between atoms: C_10  and  C_11
REMARK    5  A    between atoms: C_14  and  O_18
REMARK    6  A    between atoms: C_15  and  O_17
REMARK    7  A    between atoms: C_19  and  C_27
REMARK    8  A    between atoms: C_21  and  C_25
REMARK    9  A    between atoms: C_22  and  N_24
REMARK   10  A    between atoms: C_27  and  C_28
REMARK                            x       y       z     vdW  Elec       q    Type
REMARK                         _______ _______ _______ _____ _____    ______ ____
ROOT
ATOM      1  C   UNL     1      -2.312  -3.034  -0.488  0.00  0.00    +0.064 C 
ATOM      2  C   UNL     1      -1.105  -2.168  -0.240  0.00  0.00    +0.022 A 
ATOM      3  C   UNL     1      -1.187  -0.836  -0.445  0.00  0.00    +0.068 A 
ATOM      4  C   UNL     1      -0.060  -0.020  -0.213  0.00  0.00    +0.141 A 
ATOM      5  C   UNL     1       1.110  -0.606   0.222  0.00  0.00    +0.068 A 
ATOM      6  C   UNL     1       1.149  -1.992   0.421  0.00  0.00    +0.259 A 
ATOM      7  O   UNL     1       2.178  -2.525   0.805  0.00  0.00    -0.267 OA
ATOM      8  N   UNL     1       0.052  -2.738   0.188  0.00  0.00    -0.312 N 
ATOM      9  C   UNL     1       2.336   0.226   0.483  0.00  0.00    +0.078 C 
ATOM     10  C   UNL     1       2.191   1.577  -0.161  0.00  0.00    +0.094 C 
ATOM     11  C   UNL     1       0.984   2.036  -0.567  0.00  0.00    +0.198 C 
ATOM     12  O   UNL     1      -0.139   1.312  -0.417  0.00  0.00    -0.441 OA
ENDROOT
BRANCH  11  13
ATOM     13  N   UNL     1       0.904   3.276  -1.148  0.00  0.00    -0.328 N 
ATOM     14  H   UNL     1       0.046   3.619  -1.444  0.00  0.00    +0.145 HD
ATOM     15  H   UNL     1       1.705   3.811  -1.263  0.00  0.00    +0.145 HD
ENDBRANCH  11  13
BRANCH  10  16
ATOM     16  C   UNL     1       3.352   2.394  -0.347  0.00  0.00    +0.100 C 
ATOM     17  N   UNL     1       4.273   3.042  -0.495  0.00  0.00    -0.191 NA
ENDBRANCH  10  16
BRANCH   8  18
ATOM     18  C   UNL     1       0.107  -4.186   0.401  0.00  0.00    +0.130 C 
BRANCH  18  19
ATOM     19  C   UNL     1       0.579  -4.872  -0.882  0.00  0.00    +0.057 C 
BRANCH  19  20
ATOM     20  C   UNL     1       0.635  -6.362  -0.663  0.00  0.00    -0.042 A 
ATOM     21  C   UNL     1       1.799  -6.949  -0.202  0.00  0.00    +0.007 A 
ATOM     22  C   UNL     1       1.854  -8.314   0.006  0.00  0.00    +0.049 A 
ATOM     23  C   UNL     1       0.744  -9.100  -0.260  0.00  0.00    +0.158 A 
ATOM     24  C   UNL     1      -0.426  -8.511  -0.729  0.00  0.00    +0.158 A 
ATOM     25  C   UNL     1      -0.476  -7.141  -0.930  0.00  0.00    +0.052 A 
BRANCH  24  26
ATOM     26  O   UNL     1      -1.518  -9.278  -0.991  0.00  0.00    -0.503 OA
ATOM     27  H   UNL     1      -1.556  -9.612  -1.897  0.00  0.00    +0.292 HD
ENDBRANCH  24  26
BRANCH  23  28
ATOM     28  O   UNL     1       0.798 -10.445  -0.061  0.00  0.00    -0.503 OA
ATOM     29  H   UNL     1       1.092 -10.945  -0.835  0.00  0.00    +0.292 HD
ENDBRANCH  23  28
ENDBRANCH  19  20
ENDBRANCH  18  19
ENDBRANCH   8  18
BRANCH   9  30
ATOM     30  C   UNL     1       2.516   0.403   1.992  0.00  0.00    +0.049 C 
BRANCH  30  31
ATOM     31  C   UNL     1       3.808   1.130   2.261  0.00  0.00    -0.046 A 
ATOM     32  C   UNL     1       4.978   0.417   2.444  0.00  0.00    +0.003 A 
ATOM     33  C   UNL     1       6.164   1.085   2.687  0.00  0.00    +0.000 A 
ATOM     34  C   UNL     1       6.178   2.465   2.757  0.00  0.00    +0.000 A 
ATOM     35  C   UNL     1       5.007   3.178   2.579  0.00  0.00    +0.000 A 
ATOM     36  C   UNL     1       3.822   2.511   2.332  0.00  0.00    +0.003 A 
ENDBRANCH  30  31
ENDBRANCH   9  30
TORSDOF 9
