REMARK  Name = ZINC48449752
REMARK  4 active torsions:
REMARK  status: ('A' for Active; 'I' for Inactive)
REMARK    1  A    between atoms: C_3  and  S_6
REMARK    2  A    between atoms: S_6  and  N_9
REMARK    3  A    between atoms: C_10  and  C_12
REMARK    4  A    between atoms: C_18  and  C_20
REMARK                            x       y       z     vdW  Elec       q    Type
REMARK                         _______ _______ _______ _____ _____    ______ ____
ROOT
ATOM      1  N   UNL     1       4.497   2.037   1.551  0.00  0.00    -0.090 NA
ATOM      2  C   UNL     1       5.664   2.513   1.829  0.00  0.00    +0.268 C 
ATOM      3  O   UNL     1       6.496   2.882   0.833  0.00  0.00    -0.269 OA
ENDROOT
BRANCH   2   4
ATOM      4  C   UNL     1       6.097   2.657   3.265  0.00  0.00    +0.092 C 
ATOM      5  C   UNL     1       4.880   2.978   4.135  0.00  0.00    +0.013 C 
ATOM      6  C   UNL     1       3.858   1.846   4.021  0.00  0.00    +0.001 C 
ATOM      7  C   UNL     1       4.493   0.537   4.496  0.00  0.00    +0.001 C 
ATOM      8  C   UNL     1       5.709   0.215   3.626  0.00  0.00    +0.013 C 
ATOM      9  C   UNL     1       6.731   1.348   3.739  0.00  0.00    +0.105 C 
BRANCH   9  10
ATOM     10  C   UNL     1       7.948   1.026   2.869  0.00  0.00    +0.394 C 
ATOM     11  F   UNL     1       8.883   2.062   2.973  0.00  0.00    -0.170 F 
ATOM     12  F   UNL     1       8.528  -0.171   3.303  0.00  0.00    -0.170 F 
ATOM     13  F   UNL     1       7.546   0.893   1.536  0.00  0.00    -0.170 F 
ENDBRANCH   9  10
ENDBRANCH   2   4
BRANCH   1  14
ATOM     14  S   UNL     1       4.021   1.880  -0.027  0.00  0.00    +0.108 S 
ATOM     15  O   UNL     1       4.864   0.895  -0.609  0.00  0.00    -0.146 OA
ATOM     16  O   UNL     1       3.912   3.196  -0.552  0.00  0.00    -0.146 OA
BRANCH  14  19
ATOM     17  C   UNL     1       0.036   1.109   0.018  0.00  0.00    +0.010 A 
ATOM     18  C   UNL     1       1.202   1.852   0.015  0.00  0.00    +0.037 A 
ATOM     19  C   UNL     1       2.393   1.206  -0.015  0.00  0.00    +0.150 A 
ATOM     20  S   UNL     1       1.884  -0.505  -0.040  0.00  0.00    -0.076 S 
ATOM     21  C   UNL     1       0.118  -0.243  -0.009  0.00  0.00    +0.047 A 
ENDBRANCH  14  19
ENDBRANCH   1  14
TORSDOF 4
