REMARK  Name = ZINC36660410
REMARK  12 active torsions:
REMARK  status: ('A' for Active; 'I' for Inactive)
REMARK    1  A    between atoms: C_1  and  C_2
REMARK    2  A    between atoms: N_11  and  C_12
REMARK    3  A    between atoms: C_12  and  C_13
REMARK    4  A    between atoms: C_13  and  C_14
REMARK    5  A    between atoms: C_14  and  N_15
REMARK    6  A    between atoms: N_15  and  C_16
REMARK    7  A    between atoms: N_15  and  C_17
REMARK    8  A    between atoms: C_18  and  C_20
REMARK    9  A    between atoms: N_25  and  S_26
REMARK   10  A    between atoms: S_26  and  C_29
REMARK   11  A    between atoms: C_32  and  O_35
REMARK   12  A    between atoms: O_35  and  C_36
REMARK                            x       y       z     vdW  Elec       q    Type
REMARK                         _______ _______ _______ _____ _____    ______ ____
ROOT
ATOM      1  C   UNL     1       0.435   2.570  -0.126  0.00  0.00    +0.046 C 
ATOM      2  C   UNL     1       0.087   1.125  -0.371  0.00  0.00    -0.024 A 
ATOM      3  C   UNL     1      -0.119   0.685  -1.653  0.00  0.00    +0.005 A 
ATOM      4  C   UNL     1      -0.441  -0.637  -1.923  0.00  0.00    +0.001 A 
ATOM      5  C   UNL     1      -0.559  -1.533  -0.876  0.00  0.00    +0.017 A 
ATOM      6  C   UNL     1      -0.355  -1.102   0.411  0.00  0.00    +0.041 A 
ATOM      7  C   UNL     1      -0.020   0.236   0.723  0.00  0.00    +0.083 A 
ATOM      8  N   UNL     1       0.154   0.504   2.035  0.00  0.00    -0.224 NA
ATOM      9  C   UNL     1       0.026  -0.413   2.966  0.00  0.00    +0.168 A 
ATOM     10  S   UNL     1      -0.397  -1.865   2.015  0.00  0.00    -0.052 S 
ATOM     11  N   UNL     1       0.174  -0.285   4.338  0.00  0.00    -0.249 N 
ATOM     12  C   UNL     1       0.384   0.930   4.883  0.00  0.00    +0.240 C 
ATOM     13  O   UNL     1       0.592   1.032   6.073  0.00  0.00    -0.273 OA
ENDROOT
BRANCH  12  14
ATOM     14  C   UNL     1       0.359   2.160   4.013  0.00  0.00    +0.166 C 
ATOM     15  C   UNL     1       1.773   2.442   3.462  0.00  0.00    +0.031 C 
ATOM     16  C   UNL     1       1.864   3.990   3.513  0.00  0.00    +0.019 C 
ATOM     17  C   UNL     1       1.065   4.306   4.803  0.00  0.00    +0.110 C 
ATOM     18  N   UNL     1      -0.042   3.328   4.810  0.00  0.00    -0.165 NA
BRANCH  18  19
ATOM     19  S   UNL     1      -1.494   3.514   5.586  0.00  0.00    +0.062 S 
ATOM     20  O   UNL     1      -1.758   4.910   5.623  0.00  0.00    -0.153 OA
ATOM     21  O   UNL     1      -2.392   2.584   4.996  0.00  0.00    -0.153 OA
BRANCH  19  22
ATOM     22  C   UNL     1      -1.262   3.001   7.256  0.00  0.00    +0.106 A 
ATOM     23  C   UNL     1      -1.565   1.705   7.628  0.00  0.00    +0.032 A 
ATOM     24  C   UNL     1      -1.385   1.300   8.936  0.00  0.00    +0.047 A 
ATOM     25  C   UNL     1      -0.898   2.196   9.877  0.00  0.00    +0.120 A 
ATOM     26  C   UNL     1      -0.593   3.496   9.501  0.00  0.00    +0.047 A 
ATOM     27  C   UNL     1      -0.770   3.894   8.190  0.00  0.00    +0.032 A 
BRANCH  25  28
ATOM     28  O   UNL     1      -0.720   1.800  11.165  0.00  0.00    -0.495 OA
ATOM     29  C   UNL     1      -0.214   2.776  12.079  0.00  0.00    +0.277 C 
ENDBRANCH  25  28
ENDBRANCH  19  22
ENDBRANCH  18  19
ENDBRANCH  12  14
BRANCH  11  30
ATOM     30  C   UNL     1       0.103  -1.470   5.196  0.00  0.00    +0.114 C 
BRANCH  30  31
ATOM     31  C   UNL     1       1.502  -2.068   5.358  0.00  0.00    +0.001 C 
BRANCH  31  32
ATOM     32  C   UNL     1       1.427  -3.306   6.254  0.00  0.00    -0.078 C 
BRANCH  32  33
ATOM     33  N   UNL     1       2.770  -3.879   6.410  0.00  0.00    +0.376 N 
ATOM     34  C   UNL     1       3.628  -2.929   7.131  0.00  0.00    -0.097 C 
ATOM     35  C   UNL     1       2.682  -5.133   7.170  0.00  0.00    -0.097 C 
ATOM     36  H   UNL     1       3.165  -4.064   5.500  0.00  0.00    -0.083 HD
ENDBRANCH  32  33
ENDBRANCH  31  32
ENDBRANCH  30  31
ENDBRANCH  11  30
TORSDOF 8
