REMARK  Name = ZINC12523672
REMARK  15 active torsions:
REMARK  status: ('A' for Active; 'I' for Inactive)
REMARK    1  A    between atoms: C_1  and  C_2
REMARK    2  A    between atoms: C_3  and  N_9
REMARK    3  A    between atoms: C_5  and  C_8
REMARK    4  A    between atoms: N_6  and  N_7
REMARK    5  A    between atoms: N_9  and  C_10
REMARK    6  A    between atoms: N_9  and  S_27
REMARK    7  A    between atoms: C_10  and  C_11
REMARK    8  A    between atoms: C_11  and  O_13
REMARK    9  A    between atoms: O_13  and  C_14
REMARK   10  A    between atoms: C_17  and  C_26
REMARK   11  A    between atoms: C_21  and  C_23
REMARK   12  A    between atoms: C_23  and  C_24
REMARK   13  A    between atoms: C_23  and  C_25
REMARK   14  A    between atoms: S_27  and  C_30
REMARK   15  A    between atoms: C_33  and  N_36
REMARK                            x       y       z     vdW  Elec       q    Type
REMARK                         _______ _______ _______ _____ _____    ______ ____
ROOT
ATOM      1  N   UNL     1       4.369  -1.172  -1.786  0.00  0.00    -0.173 N 
ENDROOT
BRANCH   1   4
ATOM      2  C   UNL     1       7.410  -0.992  -1.341  0.00  0.00    +0.069 C 
ATOM      3  C   UNL     1       6.529  -0.050  -2.119  0.00  0.00    +0.078 A 
ATOM      4  C   UNL     1       5.192  -0.156  -2.296  0.00  0.00    +0.164 A 
ATOM      5  N   UNL     1       4.793   0.880  -3.053  0.00  0.00    -0.215 NA
ATOM      6  C   UNL     1       5.824   1.627  -3.344  0.00  0.00    +0.126 A 
ATOM      7  N   UNL     1       6.926   1.084  -2.786  0.00  0.00    -0.256 N 
ATOM      8  C   UNL     1       5.790   2.885  -4.172  0.00  0.00    +0.088 C 
BRANCH   7   9
ATOM      9  N   UNL     1       8.200   1.571  -2.869  0.00  0.00    -0.297 N 
ATOM     10  H   UNL     1       8.681   1.191  -3.670  0.00  0.00    +0.163 HD
ATOM     11  H   UNL     1       8.201   2.580  -2.892  0.00  0.00    +0.163 HD
ENDBRANCH   7   9
ENDBRANCH   1   4
BRANCH   1  12
ATOM     12  S   UNL     1       3.552  -0.940  -0.364  0.00  0.00    +0.076 S 
ATOM     13  O   UNL     1       4.268   0.052   0.358  0.00  0.00    -0.150 OA
ATOM     14  O   UNL     1       3.291  -2.231   0.170  0.00  0.00    -0.150 OA
BRANCH  12  15
ATOM     15  C   UNL     1       1.988  -0.237  -0.771  0.00  0.00    +0.109 A 
ATOM     16  C   UNL     1       0.906  -1.061  -1.021  0.00  0.00    +0.030 A 
ATOM     17  C   UNL     1      -0.321  -0.513  -1.339  0.00  0.00    +0.024 A 
ATOM     18  C   UNL     1      -0.468   0.866  -1.408  0.00  0.00    +0.025 A 
ATOM     19  C   UNL     1       0.622   1.691  -1.157  0.00  0.00    +0.024 A 
ATOM     20  C   UNL     1       1.846   1.137  -0.839  0.00  0.00    +0.030 A 
BRANCH  18  21
ATOM     21  N   UNL     1      -1.706   1.423  -1.736  0.00  0.00    -0.358 N 
ATOM     22  H   UNL     1      -2.465   0.847  -1.915  0.00  0.00    +0.142 HD
ATOM     23  H   UNL     1      -1.807   2.387  -1.784  0.00  0.00    +0.142 HD
ENDBRANCH  18  21
ENDBRANCH  12  15
ENDBRANCH   1  12
BRANCH   1  24
ATOM     24  C   UNL     1       4.233  -2.438  -2.511  0.00  0.00    +0.253 C 
BRANCH  24  25
ATOM     25  C   UNL     1       3.189  -2.290  -3.588  0.00  0.00    +0.327 C 
ATOM     26  O   UNL     1       2.618  -1.236  -3.735  0.00  0.00    -0.249 OA
BRANCH  25  27
ATOM     27  O   UNL     1       2.894  -3.330  -4.384  0.00  0.00    -0.460 OA
BRANCH  27  28
ATOM     28  C   UNL     1       1.879  -3.115  -5.399  0.00  0.00    +0.180 C 
ATOM     29  C   UNL     1       2.541  -2.617  -6.686  0.00  0.00    +0.048 C 
ATOM     30  C   UNL     1       3.544  -3.662  -7.180  0.00  0.00    -0.011 C 
ATOM     31  C   UNL     1       2.815  -4.978  -7.458  0.00  0.00    +0.004 C 
ATOM     32  C   UNL     1       2.153  -5.476  -6.172  0.00  0.00    +0.007 C 
ATOM     33  C   UNL     1       1.150  -4.431  -5.678  0.00  0.00    +0.032 C 
ATOM     34  C   UNL     1       4.207  -3.164  -8.466  0.00  0.00    +0.007 C 
BRANCH  33  35
ATOM     35  C   UNL     1       0.487  -4.929  -4.391  0.00  0.00    -0.011 C 
ATOM     36  C   UNL     1      -0.516  -3.885  -3.897  0.00  0.00    +0.007 C 
ATOM     37  C   UNL     1      -0.242  -6.245  -4.670  0.00  0.00    +0.007 C 
ENDBRANCH  33  35
ENDBRANCH  27  28
ENDBRANCH  25  27
ENDBRANCH  24  25
ENDBRANCH   1  24
TORSDOF 10
