REMARK  Name = ZINC01897121
REMARK  8 active torsions:
REMARK  status: ('A' for Active; 'I' for Inactive)
REMARK    1  A    between atoms: C_4  and  C_7
REMARK    2  A    between atoms: C_7  and  C_9
REMARK    3  A    between atoms: C_11  and  C_16
REMARK    4  A    between atoms: C_14  and  N_15
REMARK    5  A    between atoms: C_19  and  C_21
REMARK    6  A    between atoms: C_24  and  N_35
REMARK    7  A    between atoms: C_25  and  C_27
REMARK    8  A    between atoms: C_27  and  C_29
REMARK                            x       y       z     vdW  Elec       q    Type
REMARK                         _______ _______ _______ _____ _____    ______ ____
ROOT
ATOM      1  C   UNL     1      -0.245   2.953  -0.232  0.00  0.00    +0.249 A 
ATOM      2  N   UNL     1       0.614   1.960  -0.282  0.00  0.00    -0.107 NA
ATOM      3  N   UNL     1      -0.020   0.842  -0.227  0.00  0.00    -0.107 NA
ATOM      4  C   UNL     1      -1.310   1.075  -0.139  0.00  0.00    +0.249 A 
ATOM      5  O   UNL     1      -1.479   2.414  -0.141  0.00  0.00    -0.416 OA
ENDROOT
BRANCH   1   8
ATOM      6  C   UNL     1       1.706   6.166  -0.401  0.00  0.00    +0.044 A 
ATOM      7  C   UNL     1       1.405   4.804  -0.366  0.00  0.00    +0.026 A 
ATOM      8  C   UNL     1       0.079   4.393  -0.269  0.00  0.00    +0.039 A 
ATOM      9  C   UNL     1      -0.948   5.343  -0.213  0.00  0.00    +0.015 A 
ATOM     10  C   UNL     1      -0.653   6.686  -0.242  0.00  0.00    +0.024 A 
ATOM     11  C   UNL     1       0.667   7.112  -0.338  0.00  0.00    +0.036 A 
BRANCH  11  12
ATOM     12  N   UNL     1       0.959   8.466  -0.373  0.00  0.00    -0.357 N 
ATOM     13  H   UNL     1       1.874   8.762  -0.501  0.00  0.00    +0.142 HD
ATOM     14  H   UNL     1       0.249   9.118  -0.269  0.00  0.00    +0.142 HD
ENDBRANCH  11  12
BRANCH   6  15
ATOM     15  C   UNL     1       3.107   6.612  -0.502  0.00  0.00    +0.195 C 
ATOM     16  O   UNL     1       3.834   6.559   0.471  0.00  0.00    -0.287 OA
BRANCH  15  20
ATOM     17  C   UNL     1       4.606   8.081  -4.195  0.00  0.00    +0.000 A 
ATOM     18  C   UNL     1       5.400   8.127  -3.062  0.00  0.00    +0.001 A 
ATOM     19  C   UNL     1       4.920   7.651  -1.860  0.00  0.00    +0.012 A 
ATOM     20  C   UNL     1       3.629   7.123  -1.787  0.00  0.00    +0.022 A 
ATOM     21  C   UNL     1       2.835   7.074  -2.935  0.00  0.00    +0.012 A 
ATOM     22  C   UNL     1       3.326   7.559  -4.130  0.00  0.00    +0.001 A 
ENDBRANCH  15  20
ENDBRANCH   6  15
ENDBRANCH   1   8
BRANCH   4  23
ATOM     23  C   UNL     1      -2.378   0.059  -0.056  0.00  0.00    +0.039 A 
ATOM     24  C   UNL     1      -3.717   0.458   0.039  0.00  0.00    +0.015 A 
ATOM     25  C   UNL     1      -4.718  -0.483   0.111  0.00  0.00    +0.024 A 
ATOM     26  C   UNL     1      -4.407  -1.839   0.103  0.00  0.00    +0.036 A 
ATOM     27  C   UNL     1      -3.066  -2.250   0.015  0.00  0.00    +0.044 A 
ATOM     28  C   UNL     1      -2.053  -1.294  -0.065  0.00  0.00    +0.026 A 
BRANCH  26  29
ATOM     29  N   UNL     1      -5.419  -2.783   0.183  0.00  0.00    -0.357 N 
ATOM     30  H   UNL     1      -5.199  -3.726   0.239  0.00  0.00    +0.142 HD
ATOM     31  H   UNL     1      -6.347  -2.501   0.183  0.00  0.00    +0.142 HD
ENDBRANCH  26  29
BRANCH  27  32
ATOM     32  C   UNL     1      -2.731  -3.685   0.005  0.00  0.00    +0.195 C 
ATOM     33  O   UNL     1      -2.411  -4.228  -1.035  0.00  0.00    -0.287 OA
BRANCH  32  34
ATOM     34  C   UNL     1      -2.783  -4.465   1.260  0.00  0.00    +0.022 A 
ATOM     35  C   UNL     1      -3.033  -3.822   2.474  0.00  0.00    +0.012 A 
ATOM     36  C   UNL     1      -3.087  -4.557   3.641  0.00  0.00    +0.001 A 
ATOM     37  C   UNL     1      -2.882  -5.925   3.611  0.00  0.00    +0.000 A 
ATOM     38  C   UNL     1      -2.628  -6.567   2.411  0.00  0.00    +0.001 A 
ATOM     39  C   UNL     1      -2.578  -5.846   1.236  0.00  0.00    +0.012 A 
ENDBRANCH  32  34
ENDBRANCH  27  32
ENDBRANCH   4  23
TORSDOF 8
