REMARK  Name = ZINC36591667
REMARK  20 active torsions:
REMARK  status: ('A' for Active; 'I' for Inactive)
REMARK    1  A    between atoms: C_1  and  C_2
REMARK    2  A    between atoms: C_2  and  C_3
REMARK    3  A    between atoms: C_2  and  C_4
REMARK    4  A    between atoms: C_2  and  C_5
REMARK    5  A    between atoms: C_5  and  C_6
REMARK    6  A    between atoms: C_6  and  C_7
REMARK    7  A    between atoms: C_6  and  C_8
REMARK    8  A    between atoms: C_6  and  N_9
REMARK    9  A    between atoms: C_10  and  C_12
REMARK   10  A    between atoms: C_12  and  C_14
REMARK   11  A    between atoms: C_12  and  N_23
REMARK   12  A    between atoms: C_15  and  O_22
REMARK   13  A    between atoms: C_17  and  O_21
REMARK   14  A    between atoms: C_19  and  O_20
REMARK   15  A    between atoms: N_23  and  C_35
REMARK   16  A    between atoms: C_24  and  C_26
REMARK   17  A    between atoms: C_30  and  N_32
REMARK   18  A    between atoms: C_35  and  C_36
REMARK   19  A    between atoms: C_35  and  C_37
REMARK   20  A    between atoms: C_35  and  C_38
REMARK                            x       y       z     vdW  Elec       q    Type
REMARK                         _______ _______ _______ _____ _____    ______ ____
ROOT
ATOM      1  C   UNL     1       7.614  -3.857  -5.338  0.00  0.00    +0.200 C 
ENDROOT
BRANCH   1   2
ATOM      2  C   UNL     1       7.114  -5.162  -5.902  0.00  0.00    +0.065 A 
ATOM      3  C   UNL     1       7.260  -5.434  -7.254  0.00  0.00    +0.129 A 
ATOM      4  C   UNL     1       6.800  -6.635  -7.772  0.00  0.00    +0.091 A 
ATOM      5  C   UNL     1       6.194  -7.563  -6.939  0.00  0.00    +0.124 A 
ATOM      6  C   UNL     1       6.048  -7.291  -5.588  0.00  0.00    +0.091 A 
ATOM      7  C   UNL     1       6.512  -6.092  -5.068  0.00  0.00    +0.129 A 
BRANCH   7   8
ATOM      8  O   UNL     1       6.374  -5.827  -3.743  0.00  0.00    -0.506 OA
ATOM      9  H   UNL     1       5.546  -5.381  -3.515  0.00  0.00    +0.292 HD
ENDBRANCH   7   8
BRANCH   5  10
ATOM     10  O   UNL     1       5.742  -8.740  -7.448  0.00  0.00    -0.507 OA
ATOM     11  H   UNL     1       6.397  -9.451  -7.436  0.00  0.00    +0.292 HD
ENDBRANCH   5  10
BRANCH   3  12
ATOM     12  O   UNL     1       7.854  -4.525  -8.070  0.00  0.00    -0.506 OA
ATOM     13  H   UNL     1       8.799  -4.679  -8.208  0.00  0.00    +0.292 HD
ENDBRANCH   3  12
ENDBRANCH   1   2
BRANCH   1  15
ATOM     14  N   UNL     1       9.880  -3.812  -6.330  0.00  0.00    -0.308 N 
ATOM     15  C   UNL     1       8.647  -3.272  -6.267  0.00  0.00    +0.239 C 
ATOM     16  O   UNL     1       8.369  -2.314  -6.957  0.00  0.00    -0.273 OA
ATOM     17  H   UNL     1      10.102  -4.578  -5.777  0.00  0.00    +0.149 HD
BRANCH  14  18
ATOM     18  C   UNL     1      10.884  -3.244  -7.232  0.00  0.00    +0.030 C 
ATOM     19  C   UNL     1      11.112  -1.772  -6.879  0.00  0.00    +0.031 C 
ATOM     20  C   UNL     1      10.391  -3.351  -8.676  0.00  0.00    +0.031 C 
BRANCH  18  21
ATOM     21  C   UNL     1      12.198  -4.013  -7.083  0.00  0.00    +0.031 C 
BRANCH  21  23
ATOM     22  C   UNL     1      11.987  -5.641  -5.199  0.00  0.00    +0.010 C 
ATOM     23  C   UNL     1      12.485  -4.251  -5.599  0.00  0.00    -0.036 C 
ATOM     24  C   UNL     1      11.763  -3.191  -4.764  0.00  0.00    +0.010 C 
ATOM     25  C   UNL     1      13.991  -4.157  -5.349  0.00  0.00    +0.010 C 
ENDBRANCH  21  23
ENDBRANCH  18  21
ENDBRANCH  14  18
ENDBRANCH   1  15
BRANCH   1  26
ATOM     26  N   UNL     1       6.494  -2.922  -5.203  0.00  0.00    -0.277 N 
ATOM     27  C   UNL     1       5.233  -3.345  -5.421  0.00  0.00    +0.248 C 
ATOM     28  O   UNL     1       4.971  -4.530  -5.363  0.00  0.00    -0.270 OA
BRANCH  27  29
ATOM     29  C   UNL     1       4.169  -2.367  -5.730  0.00  0.00    +0.039 A 
ATOM     30  C   UNL     1       4.501  -1.067  -6.117  0.00  0.00    +0.013 A 
ATOM     31  C   UNL     1       3.503  -0.160  -6.404  0.00  0.00    +0.003 A 
ATOM     32  C   UNL     1       2.174  -0.535  -6.310  0.00  0.00    +0.033 A 
ATOM     33  C   UNL     1       1.838  -1.821  -5.928  0.00  0.00    +0.127 A 
ATOM     34  C   UNL     1       2.827  -2.740  -5.643  0.00  0.00    +0.045 A 
BRANCH  33  35
ATOM     35  N   UNL     1       0.414  -2.214  -5.829  0.00  0.00    +0.056 N 
ATOM     36  O   UNL     1      -0.453  -1.411  -6.083  0.00  0.00    -0.126 OA
ATOM     37  O   UNL     1       0.119  -3.337  -5.495  0.00  0.00    -0.126 OA
ENDBRANCH  33  35
ENDBRANCH  27  29
BRANCH  26  38
ATOM     38  C   UNL     1       6.745  -1.527  -4.830  0.00  0.00    +0.030 C 
ATOM     39  C   UNL     1       7.872  -1.470  -3.797  0.00  0.00    +0.031 C 
ATOM     40  C   UNL     1       7.152  -0.733  -6.073  0.00  0.00    +0.031 C 
ATOM     41  C   UNL     1       5.473  -0.923  -4.232  0.00  0.00    +0.031 C 
ENDBRANCH  26  38
ENDBRANCH   1  26
TORSDOF 12
