REMARK  Name = ZINC51122860
REMARK  5 active torsions:
REMARK  status: ('A' for Active; 'I' for Inactive)
REMARK    1  A    between atoms: C_3  and  N_8
REMARK    2  A    between atoms: C_9  and  C_11
REMARK    3  A    between atoms: C_13  and  N_19
REMARK    4  A    between atoms: C_16  and  N_17
REMARK    5  A    between atoms: N_17  and  N_18
REMARK                            x       y       z     vdW  Elec       q    Type
REMARK                         _______ _______ _______ _____ _____    ______ ____
ROOT
ATOM      1  C   UNL     1       6.019   2.225   0.155  0.00  0.00    +0.061 A 
ATOM      2  C   UNL     1       5.997   3.618   0.274  0.00  0.00    +0.047 A 
ATOM      3  C   UNL     1       7.178   4.317   0.382  0.00  0.00    +0.127 A 
ATOM      4  C   UNL     1       8.392   3.648   0.375  0.00  0.00    +0.034 A 
ATOM      5  C   UNL     1       8.431   2.274   0.259  0.00  0.00    +0.027 A 
ATOM      6  C   UNL     1       7.250   1.550   0.154  0.00  0.00    +0.053 A 
ENDROOT
BRANCH   1   8
ATOM      7  N   UNL     1       3.587   2.127  -0.071  0.00  0.00    -0.281 N 
ATOM      8  C   UNL     1       4.759   1.470   0.039  0.00  0.00    +0.250 C 
ATOM      9  O   UNL     1       4.776   0.254   0.041  0.00  0.00    -0.270 OA
ATOM     10  H   UNL     1       3.579   3.094  -0.148  0.00  0.00    +0.155 HD
BRANCH   7  13
ATOM     11  C   UNL     1       1.073  -0.450   0.673  0.00  0.00    +0.003 A 
ATOM     12  C   UNL     1       2.263   0.251   0.676  0.00  0.00    +0.023 A 
ATOM     13  C   UNL     1       2.384   1.415  -0.072  0.00  0.00    +0.035 A 
ATOM     14  C   UNL     1       1.307   1.871  -0.822  0.00  0.00    +0.037 A 
ATOM     15  C   UNL     1       0.119   1.165  -0.820  0.00  0.00    +0.015 A 
ATOM     16  C   UNL     1       0.002   0.006  -0.074  0.00  0.00    +0.014 A 
ATOM     17  I   UNL     1      -1.507   1.851  -1.950  0.00  0.00    -0.044 I 
ENDBRANCH   7  13
ENDBRANCH   1   8
BRANCH   3  18
ATOM     18  N   UNL     1       7.151   5.792   0.507  0.00  0.00    +0.056 N 
ATOM     19  O   UNL     1       6.095   6.379   0.514  0.00  0.00    -0.126 OA
ATOM     20  O   UNL     1       8.186   6.410   0.603  0.00  0.00    -0.126 OA
ENDBRANCH   3  18
BRANCH   6  21
ATOM     21  N   UNL     1       7.287   0.166   0.043  0.00  0.00    -0.282 N 
ATOM     22  H   UNL     1       6.461  -0.343   0.048  0.00  0.00    +0.166 HD
BRANCH  21  23
ATOM     23  N   UNL     1       8.486  -0.478  -0.074  0.00  0.00    -0.256 NA
ATOM     24  H   UNL     1       8.354  -1.476  -0.146  0.00  0.00    +0.140 HD
ATOM     25  H   UNL     1       9.011  -0.125  -0.860  0.00  0.00    +0.140 HD
ENDBRANCH  21  23
ENDBRANCH   6  21
TORSDOF 5
