REMARK  Name = ZINC35166982
REMARK  8 active torsions:
REMARK  status: ('A' for Active; 'I' for Inactive)
REMARK    1  A    between atoms: C_1  and  C_2
REMARK    2  A    between atoms: C_3  and  C_19
REMARK    3  A    between atoms: C_4  and  C_10
REMARK    4  A    between atoms: C_13  and  O_18
REMARK    5  A    between atoms: C_14  and  O_16
REMARK    6  A    between atoms: O_16  and  C_17
REMARK    7  A    between atoms: N_21  and  N_22
REMARK    8  A    between atoms: C_23  and  C_24
REMARK                            x       y       z     vdW  Elec       q    Type
REMARK                         _______ _______ _______ _____ _____    ______ ____
ROOT
ATOM      1  C   UNL     1      -0.128   1.449   0.374  0.00  0.00    +0.061 C 
ATOM      2  C   UNL     1      -0.040  -0.043   0.182  0.00  0.00    +0.017 C 
ATOM      3  C   UNL     1      -1.160  -0.744  -0.098  0.00  0.00    +0.057 C 
ATOM      4  C   UNL     1      -1.027  -2.242  -0.284  0.00  0.00    +0.139 C 
ATOM      5  N   UNL     1       0.323  -2.814  -0.144  0.00  0.00    -0.315 N 
ATOM      6  C   UNL     1       1.346  -1.983   0.137  0.00  0.00    +0.135 C 
ATOM      7  S   UNL     1       2.920  -2.635   0.302  0.00  0.00    -0.019 S 
ATOM      8  N   UNL     1       1.172  -0.664   0.287  0.00  0.00    -0.300 N 
ATOM      9  H   UNL     1       0.471  -3.767  -0.252  0.00  0.00    +0.149 HD
ATOM     10  H   UNL     1       1.949  -0.119   0.485  0.00  0.00    +0.154 HD
ENDROOT
BRANCH   4  11
ATOM     11  C   UNL     1      -1.536  -2.586  -1.660  0.00  0.00    -0.019 A 
ATOM     12  C   UNL     1      -2.650  -3.393  -1.802  0.00  0.00    +0.009 A 
ATOM     13  C   UNL     1      -3.121  -3.711  -3.062  0.00  0.00    +0.049 A 
ATOM     14  C   UNL     1      -2.478  -3.221  -4.186  0.00  0.00    +0.158 A 
ATOM     15  C   UNL     1      -1.357  -2.408  -4.044  0.00  0.00    +0.162 A 
ATOM     16  C   UNL     1      -0.893  -2.089  -2.778  0.00  0.00    +0.055 A 
BRANCH  15  17
ATOM     17  O   UNL     1      -0.722  -1.924  -5.145  0.00  0.00    -0.491 OA
ATOM     18  C   UNL     1       0.485  -1.191  -4.928  0.00  0.00    +0.277 C 
ENDBRANCH  15  17
BRANCH  14  19
ATOM     19  O   UNL     1      -2.939  -3.533  -5.427  0.00  0.00    -0.503 OA
ATOM     20  H   UNL     1      -3.593  -2.909  -5.772  0.00  0.00    +0.292 HD
ENDBRANCH  14  19
ENDBRANCH   4  11
BRANCH   3  21
ATOM     21  C   UNL     1      -2.417  -0.101  -0.212  0.00  0.00    +0.263 C 
ATOM     22  O   UNL     1      -2.484   1.115  -0.178  0.00  0.00    -0.269 OA
ATOM     23  N   UNL     1      -3.538  -0.834  -0.359  0.00  0.00    -0.203 N 
ATOM     24  H   UNL     1      -3.495  -1.801  -0.309  0.00  0.00    +0.178 HD
BRANCH  23  25
ATOM     25  N   UNL     1      -4.766  -0.198  -0.585  0.00  0.00    -0.187 NA
ATOM     26  C   UNL     1      -5.859  -0.895  -0.629  0.00  0.00    +0.138 C 
BRANCH  26  27
ATOM     27  C   UNL     1      -7.136  -0.244  -0.976  0.00  0.00    -0.004 A 
ATOM     28  C   UNL     1      -7.171   1.123  -1.264  0.00  0.00    +0.009 A 
ATOM     29  C   UNL     1      -8.368   1.726  -1.588  0.00  0.00    +0.002 A 
ATOM     30  C   UNL     1      -9.534   0.981  -1.629  0.00  0.00    +0.015 A 
ATOM     31  C   UNL     1      -9.507  -0.374  -1.345  0.00  0.00    +0.018 A 
ATOM     32  C   UNL     1      -8.315  -0.992  -1.024  0.00  0.00    +0.024 A 
ATOM     33 BR   UNL     1     -11.106  -1.382  -1.403  0.00  0.00    -0.050 Br
ENDBRANCH  26  27
ENDBRANCH  23  25
ENDBRANCH   3  21
TORSDOF 6
