REMARK  Name = ZINC39793565
REMARK  5 active torsions:
REMARK  status: ('A' for Active; 'I' for Inactive)
REMARK    1  A    between atoms: C_1  and  C_2
REMARK    2  A    between atoms: N_5  and  C_7
REMARK    3  A    between atoms: C_14  and  N_29
REMARK    4  A    between atoms: C_16  and  C_27
REMARK    5  A    between atoms: C_18  and  C_20
REMARK                            x       y       z     vdW  Elec       q    Type
REMARK                         _______ _______ _______ _____ _____    ______ ____
ROOT
ATOM      1  C   UNL     1      -0.682   1.971  -0.521  0.00  0.00    +0.068 C 
ATOM      2  C   UNL     1      -0.628   0.498  -0.209  0.00  0.00    +0.068 A 
ATOM      3  C   UNL     1      -0.333  -0.515  -1.114  0.00  0.00    +0.046 A 
ATOM      4  C   UNL     1      -0.387  -1.706  -0.447  0.00  0.00    +0.224 A 
ATOM      5  N   UNL     1      -0.704  -1.439   0.839  0.00  0.00    -0.200 N 
ATOM      6  N   UNL     1      -0.846  -0.049   0.963  0.00  0.00    -0.168 NA
ATOM      7  O   UNL     1      -0.153  -2.905  -1.043  0.00  0.00    -0.456 OA
ATOM      8  C   UNL     1      -0.205  -2.895  -2.477  0.00  0.00    +0.259 C 
ATOM      9  C   UNL     1       0.636  -1.733  -3.015  0.00  0.00    +0.159 C 
ATOM     10  C   UNL     1      -0.001  -0.404  -2.582  0.00  0.00    +0.078 C 
ENDROOT
BRANCH  10  11
ATOM     11  C   UNL     1       0.972   0.726  -2.802  0.00  0.00    -0.038 A 
ATOM     12  C   UNL     1       0.787   1.601  -3.856  0.00  0.00    +0.007 A 
ATOM     13  C   UNL     1       1.679   2.637  -4.059  0.00  0.00    +0.038 A 
ATOM     14  C   UNL     1       2.757   2.799  -3.205  0.00  0.00    +0.123 A 
ATOM     15  C   UNL     1       2.940   1.923  -2.149  0.00  0.00    +0.038 A 
ATOM     16  C   UNL     1       2.045   0.890  -1.945  0.00  0.00    +0.007 A 
ATOM     17  F   UNL     1       3.629   3.812  -3.402  0.00  0.00    -0.205 F 
ENDBRANCH  10  11
BRANCH   5  18
ATOM     18  C   UNL     1      -0.858  -2.381   1.865  0.00  0.00    +0.069 A 
ATOM     19  C   UNL     1      -1.392  -3.633   1.586  0.00  0.00    +0.028 A 
ATOM     20  C   UNL     1      -1.542  -4.559   2.600  0.00  0.00    +0.002 A 
ATOM     21  C   UNL     1      -1.162  -4.241   3.891  0.00  0.00    +0.000 A 
ATOM     22  C   UNL     1      -0.631  -2.996   4.171  0.00  0.00    +0.002 A 
ATOM     23  C   UNL     1      -0.473  -2.067   3.161  0.00  0.00    +0.028 A 
ENDBRANCH   5  18
BRANCH   8  24
ATOM     24  N   UNL     1       0.327  -4.163  -2.994  0.00  0.00    -0.295 NA
ATOM     25  H   UNL     1      -0.212  -4.946  -2.656  0.00  0.00    +0.122 HD
ATOM     26  H   UNL     1       0.361  -4.157  -4.003  0.00  0.00    +0.122 HD
ENDBRANCH   8  24
BRANCH   9  27
ATOM     27  C   UNL     1       2.002  -1.824  -2.474  0.00  0.00    +0.072 C 
ATOM     28  N   UNL     1       3.057  -1.893  -2.057  0.00  0.00    -0.196 NA
ENDBRANCH   9  27
TORSDOF 4
