REMARK  Name = ZINC39856135
REMARK  14 active torsions:
REMARK  status: ('A' for Active; 'I' for Inactive)
REMARK    1  A    between atoms: C_1  and  C_2
REMARK    2  A    between atoms: C_6  and  C_7
REMARK    3  A    between atoms: N_9  and  C_10
REMARK    4  A    between atoms: C_12  and  C_20
REMARK    5  A    between atoms: C_14  and  C_16
REMARK    6  A    between atoms: C_16  and  O_18
REMARK    7  A    between atoms: O_18  and  C_19
REMARK    8  A    between atoms: C_20  and  O_22
REMARK    9  A    between atoms: O_22  and  C_23
REMARK   10  A    between atoms: C_25  and  C_33
REMARK   11  A    between atoms: C_25  and  C_34
REMARK   12  A    between atoms: N_28  and  N_29
REMARK   13  A    between atoms: N_29  and  C_30
REMARK   14  A    between atoms: C_30  and  N_32
REMARK                            x       y       z     vdW  Elec       q    Type
REMARK                         _______ _______ _______ _____ _____    ______ ____
ROOT
ATOM      1  C   UNL     1      -0.013   1.502   0.010  0.00  0.00    +0.048 C 
ATOM      2  C   UNL     1      -0.003  -0.005   0.002  0.00  0.00    +0.009 A 
ATOM      3  C   UNL     1      -0.007  -0.839  -1.122  0.00  0.00    +0.042 A 
ATOM      4  C   UNL     1       0.004  -2.138  -0.672  0.00  0.00    +0.116 A 
ATOM      5  O   UNL     1       0.017  -2.112   0.658  0.00  0.00    -0.454 OA
ATOM      6  C   UNL     1       0.018  -0.831   1.091  0.00  0.00    +0.193 A 
ATOM      7  C   UNL     1      -0.002  -3.327  -1.599  0.00  0.00    +0.081 C 
ATOM      8  C   UNL     1      -0.529  -2.900  -2.971  0.00  0.00    -0.023 C 
ATOM      9  C   UNL     1       0.248  -1.688  -3.496  0.00  0.00    +0.064 C 
ATOM     10  C   UNL     1      -0.018  -0.513  -2.566  0.00  0.00    +0.070 C 
ATOM     11  N   UNL     1      -0.239   0.687  -3.007  0.00  0.00    -0.185 NA
ATOM     12  C   UNL     1      -0.374  -4.062  -3.955  0.00  0.00    +0.011 C 
ATOM     13  C   UNL     1      -2.010  -2.536  -2.852  0.00  0.00    +0.011 C 
ENDROOT
BRANCH   6  14
ATOM     14  C   UNL     1       0.034  -0.400   2.493  0.00  0.00    +0.284 C 
ATOM     15  O   UNL     1       0.029   0.786   2.765  0.00  0.00    -0.266 OA
ATOM     16  N   UNL     1       0.054  -1.318   3.480  0.00  0.00    -0.279 N 
ATOM     17  H   UNL     1      -0.010  -2.262   3.266  0.00  0.00    +0.155 HD
BRANCH  16  18
ATOM     18  C   UNL     1       0.167  -0.909   4.813  0.00  0.00    +0.035 A 
ATOM     19  C   UNL     1      -0.442   0.266   5.231  0.00  0.00    +0.038 A 
ATOM     20  C   UNL     1      -0.332   0.676   6.561  0.00  0.00    +0.062 A 
ATOM     21  C   UNL     1       0.391  -0.095   7.469  0.00  0.00    +0.030 A 
ATOM     22  C   UNL     1       1.001  -1.274   7.046  0.00  0.00    +0.062 A 
ATOM     23  C   UNL     1       0.883  -1.682   5.716  0.00  0.00    +0.038 A 
BRANCH  22  24
ATOM     24  C   UNL     1       1.769  -2.095   8.005  0.00  0.00    +0.339 C 
ATOM     25  O   UNL     1       2.301  -3.123   7.636  0.00  0.00    -0.245 OA
BRANCH  24  26
ATOM     26  O   UNL     1       1.879  -1.704   9.290  0.00  0.00    -0.464 OA
ATOM     27  C   UNL     1       2.636  -2.545  10.162  0.00  0.00    +0.280 C 
ENDBRANCH  24  26
ENDBRANCH  22  24
BRANCH  20  28
ATOM     28  C   UNL     1      -0.981   1.927   7.005  0.00  0.00    +0.339 C 
ATOM     29  O   UNL     1      -1.611   2.599   6.212  0.00  0.00    -0.245 OA
BRANCH  28  30
ATOM     30  O   UNL     1      -0.874   2.323   8.288  0.00  0.00    -0.464 OA
ATOM     31  C   UNL     1      -1.526   3.543   8.647  0.00  0.00    +0.280 C 
ENDBRANCH  28  30
ENDBRANCH  20  28
ENDBRANCH  16  18
ENDBRANCH   6  14
BRANCH  11  32
ATOM     32  N   UNL     1      -0.238   0.938  -4.385  0.00  0.00    -0.218 N 
ATOM     33  H   UNL     1      -0.072   0.215  -5.010  0.00  0.00    +0.176 HD
BRANCH  32  34
ATOM     34  C   UNL     1      -0.468   2.185  -4.843  0.00  0.00    +0.147 C 
ATOM     35  S   UNL     1      -0.466   2.492  -6.527  0.00  0.00    -0.017 S 
BRANCH  34  36
ATOM     36  N   UNL     1      -0.698   3.190  -3.975  0.00  0.00    -0.339 N 
ATOM     37  H   UNL     1      -0.699   3.016  -3.021  0.00  0.00    +0.144 HD
ATOM     38  H   UNL     1      -0.863   4.087  -4.305  0.00  0.00    +0.144 HD
ENDBRANCH  34  36
ENDBRANCH  32  34
ENDBRANCH  11  32
TORSDOF 9
