REMARK  Name = ZINC33471070
REMARK  6 active torsions:
REMARK  status: ('A' for Active; 'I' for Inactive)
REMARK    1  A    between atoms: C_3  and  C_6
REMARK    2  A    between atoms: C_9  and  C_24
REMARK    3  A    between atoms: C_12  and  C_14
REMARK    4  A    between atoms: C_14  and  S_15
REMARK    5  A    between atoms: S_15  and  C_16
REMARK    6  A    between atoms: C_20  and  N_22
REMARK                            x       y       z     vdW  Elec       q    Type
REMARK                         _______ _______ _______ _____ _____    ______ ____
ROOT
ATOM      1  C   UNL     1       3.599   0.625  -0.029  0.00  0.00    +0.173 C 
ATOM      2  C   UNL     1       4.120   0.316  -1.447  0.00  0.00    +0.090 C 
ATOM      3  C   UNL     1       4.876  -0.983  -1.282  0.00  0.00    +0.069 C 
ATOM      4  N   UNL     1       4.819  -1.361  -0.052  0.00  0.00    -0.181 NA
ATOM      5  N   UNL     1       4.099  -0.499   0.778  0.00  0.00    -0.181 N 
ATOM      6  C   UNL     1       3.894  -0.667   2.100  0.00  0.00    +0.246 C 
ATOM      7  O   UNL     1       3.249   0.150   2.722  0.00  0.00    -0.273 OA
ENDROOT
BRANCH   3   8
ATOM      8  C   UNL     1       5.571  -1.706  -2.363  0.00  0.00    -0.002 A 
ATOM      9  C   UNL     1       5.569  -1.195  -3.663  0.00  0.00    +0.011 A 
ATOM     10  C   UNL     1       6.222  -1.876  -4.669  0.00  0.00    +0.020 A 
ATOM     11  C   UNL     1       6.877  -3.064  -4.393  0.00  0.00    +0.041 A 
ATOM     12  C   UNL     1       6.882  -3.577  -3.107  0.00  0.00    +0.020 A 
ATOM     13  C   UNL     1       6.239  -2.903  -2.090  0.00  0.00    +0.011 A 
ATOM     14 CL   UNL     1       7.696  -3.915  -5.666  0.00  0.00    -0.084 Cl
ENDBRANCH   3   8
BRANCH   1  17
ATOM     15  C   UNL     1      -0.016   1.341   0.009  0.00  0.00    +0.041 A 
ATOM     16  C   UNL     1       1.331   1.769  -0.001  0.00  0.00    +0.046 A 
ATOM     17  C   UNL     1       2.092   0.660  -0.014  0.00  0.00    +0.128 A 
ATOM     18  O   UNL     1       1.282  -0.411  -0.012  0.00  0.00    -0.466 OA
ATOM     19  C   UNL     1       0.002  -0.004   0.002  0.00  0.00    +0.195 A 
ENDBRANCH   1  17
BRANCH   6  20
ATOM     20  C   UNL     1       4.467  -1.870   2.804  0.00  0.00    +0.175 C 
BRANCH  20  21
ATOM     21  S   UNL     1       4.021  -1.810   4.562  0.00  0.00    -0.077 S 
BRANCH  21  22
ATOM     22  C   UNL     1       4.754  -3.264   5.237  0.00  0.00    +0.192 A 
ATOM     23  N   UNL     1       5.440  -4.070   4.440  0.00  0.00    -0.207 NA
ATOM     24  C   UNL     1       6.007  -5.176   4.915  0.00  0.00    +0.122 A 
ATOM     25  C   UNL     1       5.872  -5.480   6.267  0.00  0.00    +0.086 A 
ATOM     26  C   UNL     1       5.144  -4.609   7.072  0.00  0.00    +0.122 A 
ATOM     27  N   UNL     1       4.609  -3.519   6.529  0.00  0.00    -0.207 NA
ATOM     28  N   UNL     1       6.723  -6.015   4.075  0.00  0.00    -0.343 N 
ATOM     29  H   UNL     1       6.812  -5.797   3.134  0.00  0.00    +0.144 HD
ATOM     30  H   UNL     1       7.134  -6.820   4.428  0.00  0.00    +0.144 HD
BRANCH  26  31
ATOM     31  N   UNL     1       4.984  -4.872   8.424  0.00  0.00    -0.343 N 
ATOM     32  H   UNL     1       5.380  -5.667   8.814  0.00  0.00    +0.144 HD
ATOM     33  H   UNL     1       4.475  -4.260   8.979  0.00  0.00    +0.144 HD
ENDBRANCH  26  31
ENDBRANCH  21  22
ENDBRANCH  20  21
ENDBRANCH   6  20
TORSDOF 6
