REMARK  Name = ZINC02549964
REMARK  4 active torsions:
REMARK  status: ('A' for Active; 'I' for Inactive)
REMARK    1  A    between atoms: C_1  and  C_2
REMARK    2  A    between atoms: C_2  and  C_15
REMARK    3  A    between atoms: CA_3  and  C_13
REMARK    4  A    between atoms: C_5  and  C_8
REMARK                            x       y       z     vdW  Elec       q    Type
REMARK                         _______ _______ _______ _____ _____    ______ ____
ROOT
ATOM      1  C   UNL     1       2.291   2.479  -1.404  0.00  0.00    +0.021 C 
ATOM      2  C   UNL     1       1.803   2.101  -0.004  0.00  0.00    +0.008 C 
ATOM      3  CA  UNL     1       2.321   0.704   0.404  0.00  0.00    +0.061 C 
ATOM      4  C   UNL     1       0.002  -0.004   0.002  0.00  0.00    +0.027 C 
ATOM      5  S   UNL     1      -0.023   1.844   0.012  0.00  0.00    -0.166 S 
ATOM      6  C   UNL     1       2.216   3.159   1.022  0.00  0.00    +0.021 C 
ATOM      7  N   UNL     1       1.263  -0.252   0.785  0.00  0.00    +0.400 N 
ATOM      8  H1  UNL     1       1.062  -0.148   1.786  0.00  0.00    -0.083 HD
ATOM      9  H2  UNL     1       1.591  -1.208   0.599  0.00  0.00    -0.083 HD
ENDROOT
BRANCH   4  10
ATOM     10  C   UNL     1      -1.194  -0.574   0.720  0.00  0.00    -0.015 A 
ATOM     11  C   UNL     1      -2.404  -0.924   0.218  0.00  0.00    +0.010 A 
ATOM     12  C   UNL     1      -3.363  -1.433   1.073  0.00  0.00    +0.008 A 
ATOM     13  C   UNL     1      -3.065  -1.568   2.389  0.00  0.00    +0.045 A 
ATOM     14  S   UNL     1      -1.384  -0.971   2.450  0.00  0.00    -0.102 S 
ENDBRANCH   4  10
BRANCH   3  15
ATOM     15  C   UNL     1       3.097   0.126  -0.752  0.00  0.00    +0.344 C 
ATOM     16  O   UNL     1       2.616  -0.756  -1.423  0.00  0.00    -0.248 OA
ATOM     17  OXT UNL     1       4.324   0.593  -1.036  0.00  0.00    -0.248 OA
ENDBRANCH   3  15
TORSDOF 2
