REMARK  Name = ZINC17192570
REMARK  8 active torsions:
REMARK  status: ('A' for Active; 'I' for Inactive)
REMARK    1  A    between atoms: C_4  and  N_7
REMARK    2  A    between atoms: C_8  and  C_25
REMARK    3  A    between atoms: C_11  and  S_12
REMARK    4  A    between atoms: S_12  and  C_13
REMARK    5  A    between atoms: C_13  and  C_14
REMARK    6  A    between atoms: N_16  and  C_17
REMARK    7  A    between atoms: C_17  and  C_18
REMARK    8  A    between atoms: C_25  and  C_26
REMARK                            x       y       z     vdW  Elec       q    Type
REMARK                         _______ _______ _______ _____ _____    ______ ____
ROOT
ATOM      1  N   UNL     1       0.015   1.071   4.089  0.00  0.00    -0.274 N 
ATOM      2  C   UNL     1       1.049   0.362   4.642  0.00  0.00    +0.144 A 
ATOM      3  N   UNL     1       1.754  -0.123   3.659  0.00  0.00    -0.133 NA
ATOM      4  N   UNL     1       1.240   0.221   2.533  0.00  0.00    -0.122 NA
ATOM      5  C   UNL     1       0.174   0.961   2.735  0.00  0.00    +0.197 A 
ENDROOT
BRANCH   1   9
ATOM      6  C   UNL     1      -2.989   3.135   6.114  0.00  0.00    +0.000 A 
ATOM      7  C   UNL     1      -3.309   2.037   5.337  0.00  0.00    +0.002 A 
ATOM      8  C   UNL     1      -2.316   1.351   4.665  0.00  0.00    +0.026 A 
ATOM      9  C   UNL     1      -0.995   1.766   4.770  0.00  0.00    +0.050 A 
ATOM     10  C   UNL     1      -0.676   2.865   5.556  0.00  0.00    +0.026 A 
ATOM     11  C   UNL     1      -1.674   3.550   6.221  0.00  0.00    +0.002 A 
ENDBRANCH   1   9
BRANCH   5  12
ATOM     12  S   UNL     1      -0.860   1.669   1.497  0.00  0.00    -0.076 S 
BRANCH  12  13
ATOM     13  C   UNL     1      -0.013   1.086   0.008  0.00  0.00    +0.173 C 
BRANCH  13  14
ATOM     14  C   UNL     1      -0.742   1.585  -1.213  0.00  0.00    +0.224 C 
ATOM     15  O   UNL     1      -1.736   2.268  -1.088  0.00  0.00    -0.275 OA
ATOM     16  N   UNL     1      -0.288   1.272  -2.443  0.00  0.00    -0.310 N 
ATOM     17  H   UNL     1       0.507   0.726  -2.543  0.00  0.00    +0.149 HD
BRANCH  16  18
ATOM     18  C   UNL     1      -0.997   1.758  -3.630  0.00  0.00    +0.141 C 
BRANCH  18  19
ATOM     19  C   UNL     1      -0.292   1.272  -4.870  0.00  0.00    -0.012 A 
ATOM     20  C   UNL     1       0.554   2.119  -5.561  0.00  0.00    +0.006 A 
ATOM     21  C   UNL     1       1.204   1.672  -6.696  0.00  0.00    +0.000 A 
ATOM     22  C   UNL     1       1.002   0.380  -7.146  0.00  0.00    +0.001 A 
ATOM     23  C   UNL     1       0.153  -0.466  -6.458  0.00  0.00    +0.020 A 
ATOM     24  C   UNL     1      -0.495  -0.021  -5.320  0.00  0.00    +0.046 A 
ATOM     25 CL   UNL     1      -1.562  -1.083  -4.456  0.00  0.00    -0.083 Cl
ENDBRANCH  18  19
ENDBRANCH  16  18
ENDBRANCH  13  14
ENDBRANCH  12  13
ENDBRANCH   5  12
BRANCH   2  26
ATOM     26  C   UNL     1       1.321   0.178   6.113  0.00  0.00    +0.130 C 
BRANCH  26  27
ATOM     27  C   UNL     1       0.606  -1.054   6.605  0.00  0.00    +0.033 A 
ATOM     28  C   UNL     1       1.257  -2.236   6.667  0.00  0.00    +0.091 A 
ATOM     29  C   UNL     1       0.564  -3.379   7.133  0.00  0.00    +0.254 A 
ATOM     30  O   UNL     1       1.130  -4.456   7.199  0.00  0.00    -0.268 OA
ATOM     31  N   UNL     1      -0.727  -3.265   7.505  0.00  0.00    -0.275 N 
ATOM     32  H   UNL     1      -1.223  -4.069   7.835  0.00  0.00    +0.173 HD
ATOM     33  C   UNL     1      -1.351  -2.075   7.433  0.00  0.00    +0.327 A 
ATOM     34  O   UNL     1      -2.515  -1.987   7.771  0.00  0.00    -0.247 OA
ATOM     35  N   UNL     1      -0.703  -0.980   6.997  0.00  0.00    -0.311 N 
ATOM     36  H   UNL     1      -1.182  -0.103   6.959  0.00  0.00    +0.170 HD
ENDBRANCH  26  27
ENDBRANCH   2  26
TORSDOF 8
