REMARK  Name = ZINC14275228
REMARK  8 active torsions:
REMARK  status: ('A' for Active; 'I' for Inactive)
REMARK    1  A    between atoms: C_1  and  O_2
REMARK    2  A    between atoms: O_2  and  C_3
REMARK    3  A    between atoms: C_6  and  C_9
REMARK    4  A    between atoms: C_10  and  C_11
REMARK    5  A    between atoms: N_13  and  C_14
REMARK    6  A    between atoms: C_14  and  N_16
REMARK    7  A    between atoms: N_16  and  C_17
REMARK    8  A    between atoms: C_20  and  O_24
REMARK                            x       y       z     vdW  Elec       q    Type
REMARK                         _______ _______ _______ _____ _____    ______ ____
ROOT
ATOM      1  C   UNL     1      -3.508   1.297  -0.608  0.00  0.00    +0.242 C 
ATOM      2  O   UNL     1      -3.557   2.429  -1.054  0.00  0.00    -0.270 OA
ATOM      3  N   UNL     1      -2.324   0.769  -0.239  0.00  0.00    -0.264 N 
ATOM      4  H   UNL     1      -2.285  -0.133   0.117  0.00  0.00    +0.157 HD
ENDROOT
BRANCH   1   6
ATOM      5  C   UNL     1      -5.918   1.041  -0.845  0.00  0.00    +0.013 C 
ATOM      6  C   UNL     1      -4.732   0.511  -0.474  0.00  0.00    +0.068 C 
BRANCH   5  10
ATOM      7  C   UNL     1      -9.473  -1.240  -0.455  0.00  0.00    +0.120 A 
ATOM      8  C   UNL     1      -9.531   0.052  -0.964  0.00  0.00    +0.046 A 
ATOM      9  C   UNL     1      -8.381   0.796  -1.093  0.00  0.00    +0.011 A 
ATOM     10  C   UNL     1      -7.150   0.250  -0.710  0.00  0.00    -0.025 A 
ATOM     11  C   UNL     1      -7.096  -1.054  -0.203  0.00  0.00    +0.011 A 
ATOM     12  C   UNL     1      -8.253  -1.787  -0.072  0.00  0.00    +0.046 A 
BRANCH   7  14
ATOM     13  C   UNL     1     -10.479  -3.290   0.201  0.00  0.00    +0.277 C 
ATOM     14  O   UNL     1     -10.610  -1.970  -0.330  0.00  0.00    -0.495 OA
ENDBRANCH   7  14
ENDBRANCH   5  10
ENDBRANCH   1   6
BRANCH   3  15
ATOM     15  C   UNL     1      -1.195   1.494  -0.362  0.00  0.00    +0.141 C 
ATOM     16  S   UNL     1      -1.263   3.086  -0.989  0.00  0.00    -0.018 S 
BRANCH  15  17
ATOM     17  N   UNL     1      -0.011   0.966   0.007  0.00  0.00    -0.297 N 
ATOM     18  H   UNL     1       0.037   0.044   0.304  0.00  0.00    +0.154 HD
BRANCH  17  19
ATOM     19  C   UNL     1       1.151   1.747  -0.043  0.00  0.00    +0.035 A 
ATOM     20  C   UNL     1       1.413   2.531  -1.159  0.00  0.00    +0.042 A 
ATOM     21  C   UNL     1       2.556   3.306  -1.205  0.00  0.00    +0.062 A 
ATOM     22  C   UNL     1       3.448   3.291  -0.143  0.00  0.00    +0.145 A 
ATOM     23  C   UNL     1       3.189   2.503   0.970  0.00  0.00    +0.062 A 
ATOM     24  C   UNL     1       2.043   1.733   1.020  0.00  0.00    +0.042 A 
ATOM     25 BR   UNL     1       4.405   2.485   2.418  0.00  0.00    -0.046 Br
ATOM     26 BR   UNL     1       2.908   4.380  -2.721  0.00  0.00    -0.046 Br
BRANCH  22  27
ATOM     27  O   UNL     1       4.575   4.050  -0.191  0.00  0.00    -0.505 OA
ATOM     28  H   UNL     1       5.337   3.599  -0.579  0.00  0.00    +0.292 HD
ENDBRANCH  22  27
ENDBRANCH  17  19
ENDBRANCH  15  17
ENDBRANCH   3  15
TORSDOF 7
