REMARK  Name = ZINC66951956
REMARK  6 active torsions:
REMARK  status: ('A' for Active; 'I' for Inactive)
REMARK    1  A    between atoms: C_10  and  C_11
REMARK    2  A    between atoms: C_10  and  O_28
REMARK    3  A    between atoms: C_11  and  N_12
REMARK    4  A    between atoms: N_15  and  C_16
REMARK    5  A    between atoms: C_19  and  N_22
REMARK    6  A    between atoms: C_23  and  C_25
REMARK                            x       y       z     vdW  Elec       q    Type
REMARK                         _______ _______ _______ _____ _____    ______ ____
ROOT
ATOM      1  N   UNL     1       4.756   1.488   0.543  0.00  0.00    -0.296 N 
ATOM      2  C   UNL     1       5.623   2.303   1.177  0.00  0.00    +0.304 C 
ATOM      3  O   UNL     1       6.203   1.916   2.173  0.00  0.00    -0.253 OA
ATOM      4  N   UNL     1       5.848   3.545   0.706  0.00  0.00    -0.269 N 
ATOM      5  H   UNL     1       4.293   1.796  -0.252  0.00  0.00    +0.150 HD
ATOM      6  H   UNL     1       5.331   3.881  -0.044  0.00  0.00    +0.156 HD
ENDROOT
BRANCH   4   7
ATOM      7  C   UNL     1       6.828   4.353   1.298  0.00  0.00    +0.035 A 
ATOM      8  C   UNL     1       6.649   5.728   1.361  0.00  0.00    +0.025 A 
ATOM      9  C   UNL     1       7.615   6.524   1.944  0.00  0.00    +0.025 A 
ATOM     10  C   UNL     1       8.764   5.949   2.468  0.00  0.00    +0.034 A 
ATOM     11  C   UNL     1       8.943   4.573   2.406  0.00  0.00    +0.025 A 
ATOM     12  C   UNL     1       7.975   3.777   1.827  0.00  0.00    +0.025 A 
BRANCH  10  13
ATOM     13  N   UNL     1       9.745   6.756   3.060  0.00  0.00    -0.285 N 
ATOM     14  C   UNL     1       9.387   7.875   3.720  0.00  0.00    +0.220 C 
ATOM     15  O   UNL     1       8.214   8.134   3.884  0.00  0.00    -0.275 OA
ATOM     16  H   UNL     1      10.681   6.510   2.994  0.00  0.00    +0.155 HD
BRANCH  14  17
ATOM     17  C   UNL     1      10.446   8.805   4.254  0.00  0.00    +0.075 C 
ATOM     18  C   UNL     1      10.602   8.900   5.773  0.00  0.00    +0.013 C 
ATOM     19  C   UNL     1       9.976  10.059   4.995  0.00  0.00    +0.013 C 
ENDBRANCH  14  17
ENDBRANCH  10  13
ENDBRANCH   4   7
BRANCH   1  20
ATOM     20  C   UNL     1       4.512   0.138   1.055  0.00  0.00    +0.145 C 
BRANCH  20  30
ATOM     21  C   UNL     1       3.109  -4.603   1.560  0.00  0.00    +0.000 A 
ATOM     22  C   UNL     1       3.094  -3.523   2.423  0.00  0.00    +0.000 A 
ATOM     23  C   UNL     1       3.256  -2.247   1.925  0.00  0.00    +0.007 A 
ATOM     24  C   UNL     1       3.435  -2.037   0.564  0.00  0.00    -0.011 A 
ATOM     25  C   UNL     1       3.456  -3.113  -0.294  0.00  0.00    -0.041 A 
ATOM     26  C   UNL     1       3.289  -4.397   0.208  0.00  0.00    +0.004 A 
ATOM     27  C   UNL     1       3.662  -2.962  -1.779  0.00  0.00    +0.035 C 
ATOM     28  C   UNL     1       3.397  -1.522  -2.214  0.00  0.00    +0.008 C 
ATOM     29  C   UNL     1       4.209  -0.586  -1.311  0.00  0.00    +0.041 C 
ATOM     30  C   UNL     1       3.598  -0.617   0.088  0.00  0.00    +0.107 C 
BRANCH  30  31
ATOM     31  O   UNL     1       2.318   0.019   0.057  0.00  0.00    -0.382 OA
ATOM     32  H   UNL     1       1.875   0.052   0.916  0.00  0.00    +0.211 HD
ENDBRANCH  30  31
ENDBRANCH  20  30
ENDBRANCH   1  20
TORSDOF 6
