REMARK  Name = ZINC09296912
REMARK  11 active torsions:
REMARK  status: ('A' for Active; 'I' for Inactive)
REMARK    1  A    between atoms: C_1  and  C_2
REMARK    2  A    between atoms: C_2  and  O_3
REMARK    3  A    between atoms: O_3  and  C_4
REMARK    4  A    between atoms: C_8  and  C_11
REMARK    5  A    between atoms: C_9  and  O_10
REMARK    6  A    between atoms: C_13  and  C_32
REMARK    7  A    between atoms: N_17  and  C_22
REMARK    8  A    between atoms: C_25  and  O_30
REMARK    9  A    between atoms: C_26  and  O_28
REMARK   10  A    between atoms: O_28  and  C_29
REMARK   11  A    between atoms: O_30  and  C_31
REMARK                            x       y       z     vdW  Elec       q    Type
REMARK                         _______ _______ _______ _____ _____    ______ ____
ROOT
ATOM      1  C   UNL     1      -0.749   5.605   0.036  0.00  0.00    +0.166 A 
ATOM      2  N   UNL     1       0.573   5.666   0.024  0.00  0.00    -0.220 NA
ATOM      3  C   UNL     1       1.311   4.555   0.012  0.00  0.00    +0.154 A 
ATOM      4  C   UNL     1       0.659   3.321   0.013  0.00  0.00    +0.117 A 
ATOM      5  C   UNL     1      -0.748   3.303   0.026  0.00  0.00    +0.170 A 
ATOM      6  N   UNL     1      -1.405   4.449   0.037  0.00  0.00    -0.207 NA
ATOM      7  N   UNL     1      -1.127   1.972   0.018  0.00  0.00    -0.245 N 
ATOM      8  C   UNL     1      -0.014   1.212   0.009  0.00  0.00    +0.333 A 
ATOM      9  O   UNL     1       0.002  -0.004   0.002  0.00  0.00    -0.246 OA
ATOM     10  N   UNL     1       1.077   2.002   0.003  0.00  0.00    -0.303 N 
ATOM     11  H   UNL     1       1.998   1.698  -0.007  0.00  0.00    +0.171 HD
ENDROOT
BRANCH   1  16
ATOM     12  C   UNL     1      -1.597   9.278   0.063  0.00  0.00    +0.162 A 
ATOM     13  C   UNL     1      -2.981   9.230   0.075  0.00  0.00    +0.049 A 
ATOM     14  C   UNL     1      -3.637   8.011   0.075  0.00  0.00    +0.004 A 
ATOM     15  C   UNL     1      -2.918   6.834   0.062  0.00  0.00    +0.015 A 
ATOM     16  C   UNL     1      -1.524   6.868   0.049  0.00  0.00    +0.064 A 
ATOM     17  C   UNL     1      -0.861   8.098   0.055  0.00  0.00    +0.169 A 
BRANCH  17  18
ATOM     18  O   UNL     1       0.497   8.141   0.048  0.00  0.00    -0.503 OA
ATOM     19  H   UNL     1       0.886   8.160  -0.838  0.00  0.00    +0.292 HD
ENDBRANCH  17  18
BRANCH  12  20
ATOM     20  O   UNL     1      -0.957  10.478   0.063  0.00  0.00    -0.489 OA
BRANCH  20  22
ATOM     21  C   UNL     1      -0.886  12.894   0.075  0.00  0.00    +0.048 C 
ATOM     22  C   UNL     1      -1.776  11.649   0.077  0.00  0.00    +0.226 C 
ENDBRANCH  20  22
ENDBRANCH  12  20
ENDBRANCH   1  16
BRANCH   7  23
ATOM     23  C   UNL     1      -2.446   1.495   0.021  0.00  0.00    +0.057 A 
ATOM     24  C   UNL     1      -3.507   2.389   0.030  0.00  0.00    +0.030 A 
ATOM     25  C   UNL     1      -4.808   1.921   0.034  0.00  0.00    +0.051 A 
ATOM     26  C   UNL     1      -5.054   0.558   0.028  0.00  0.00    +0.162 A 
ATOM     27  C   UNL     1      -3.992  -0.342   0.019  0.00  0.00    +0.163 A 
ATOM     28  C   UNL     1      -2.689   0.128   0.010  0.00  0.00    +0.075 A 
BRANCH  27  29
ATOM     29  O   UNL     1      -4.233  -1.680   0.014  0.00  0.00    -0.491 OA
ATOM     30  C   UNL     1      -3.095  -2.544   0.005  0.00  0.00    +0.277 C 
ENDBRANCH  27  29
BRANCH  26  31
ATOM     31  O   UNL     1      -6.335   0.098   0.031  0.00  0.00    -0.491 OA
ATOM     32  C   UNL     1      -7.376   1.077   0.039  0.00  0.00    +0.277 C 
ENDBRANCH  26  31
ENDBRANCH   7  23
BRANCH   3  33
ATOM     33  C   UNL     1       2.790   4.629  -0.001  0.00  0.00    +0.262 C 
ATOM     34  O   UNL     1       3.449   3.608  -0.011  0.00  0.00    -0.269 OA
ATOM     35  N   UNL     1       3.405   5.828  -0.001  0.00  0.00    -0.324 N 
ATOM     36  H   UNL     1       2.878   6.643   0.008  0.00  0.00    +0.145 HD
ATOM     37  H   UNL     1       4.373   5.877  -0.009  0.00  0.00    +0.145 HD
ENDBRANCH   3  33
TORSDOF 8
