REMARK  Name = ZINC57351924
REMARK  9 active torsions:
REMARK  status: ('A' for Active; 'I' for Inactive)
REMARK    1  A    between atoms: C_1  and  C_2
REMARK    2  A    between atoms: C_2  and  N_3
REMARK    3  A    between atoms: C_14  and  N_16
REMARK    4  A    between atoms: C_17  and  C_19
REMARK    5  A    between atoms: C_19  and  C_21
REMARK    6  A    between atoms: C_19  and  N_25
REMARK    7  A    between atoms: C_21  and  C_22
REMARK    8  A    between atoms: C_22  and  S_23
REMARK    9  A    between atoms: S_23  and  C_24
REMARK                            x       y       z     vdW  Elec       q    Type
REMARK                         _______ _______ _______ _____ _____    ______ ____
ROOT
ATOM      1  N   UNL     1      -0.881  -1.816   6.335  0.00  0.00    -0.284 N 
ATOM      2  C   UNL     1       0.045  -1.748   7.312  0.00  0.00    +0.238 C 
ATOM      3  O   UNL     1       1.147  -1.300   7.073  0.00  0.00    -0.273 OA
ATOM      4  H   UNL     1      -1.784  -2.103   6.542  0.00  0.00    +0.155 HD
ENDROOT
BRANCH   1  16
ATOM      5  N   UNL     1       0.709  -0.546   1.174  0.00  0.00    -0.340 N 
ATOM      6  C   UNL     1       2.024  -0.973   1.182  0.00  0.00    +0.050 A 
ATOM      7  C   UNL     1       3.021  -0.954   0.210  0.00  0.00    +0.026 A 
ATOM      8  C   UNL     1       4.272  -1.457   0.496  0.00  0.00    +0.002 A 
ATOM      9  C   UNL     1       4.551  -1.985   1.747  0.00  0.00    +0.001 A 
ATOM     10  C   UNL     1       3.578  -2.012   2.722  0.00  0.00    +0.010 A 
ATOM     11  C   UNL     1       2.309  -1.507   2.447  0.00  0.00    +0.008 A 
ATOM     12  C   UNL     1       1.072  -1.386   3.241  0.00  0.00    +0.009 A 
ATOM     13  C   UNL     1       0.120  -0.781   2.406  0.00  0.00    +0.050 A 
ATOM     14  C   UNL     1      -1.158  -0.533   2.895  0.00  0.00    +0.028 A 
ATOM     15  C   UNL     1      -1.483  -0.876   4.189  0.00  0.00    +0.025 A 
ATOM     16  C   UNL     1      -0.539  -1.473   5.020  0.00  0.00    +0.034 A 
ATOM     17  C   UNL     1       0.736  -1.734   4.546  0.00  0.00    +0.034 A 
BRANCH   5  19
ATOM     18  C   UNL     1       0.227   1.590   0.083  0.00  0.00    +0.027 C 
ATOM     19  C   UNL     1       0.035   0.073   0.029  0.00  0.00    +0.119 C 
ENDBRANCH   5  19
ENDBRANCH   1  16
BRANCH   2  20
ATOM     20  C   UNL     1      -0.287  -2.229   8.700  0.00  0.00    +0.161 C 
BRANCH  20  21
ATOM     21  N   UNL     1       0.952  -2.504   9.432  0.00  0.00    -0.288 N 
ATOM     22  C   UNL     1       1.847  -1.516   9.636  0.00  0.00    +0.298 C 
ATOM     23  O   UNL     1       1.625  -0.399   9.212  0.00  0.00    -0.253 OA
ATOM     24  N   UNL     1       2.986  -1.769  10.309  0.00  0.00    -0.313 N 
ATOM     25  H   UNL     1       1.128  -3.395   9.771  0.00  0.00    +0.151 HD
ATOM     26  H   UNL     1       3.163  -2.660  10.648  0.00  0.00    +0.146 HD
ATOM     27  H   UNL     1       3.631  -1.058  10.456  0.00  0.00    +0.146 HD
ENDBRANCH  20  21
BRANCH  20  28
ATOM     28  C   UNL     1      -1.087  -1.152   9.436  0.00  0.00    +0.042 C 
BRANCH  28  29
ATOM     29  C   UNL     1      -1.531  -1.687  10.798  0.00  0.00    +0.071 C 
BRANCH  29  30
ATOM     30  S   UNL     1      -2.479  -0.409  11.670  0.00  0.00    -0.164 S 
ATOM     31  C   UNL     1      -2.926  -1.192  13.245  0.00  0.00    +0.084 C 
ENDBRANCH  29  30
ENDBRANCH  28  29
ENDBRANCH  20  28
ENDBRANCH   2  20
TORSDOF 7
