REMARK  Name = ZINC09659739
REMARK  14 active torsions:
REMARK  status: ('A' for Active; 'I' for Inactive)
REMARK    1  A    between atoms: C_1  and  C_2
REMARK    2  A    between atoms: C_5  and  N_8
REMARK    3  A    between atoms: C_12  and  C_13
REMARK    4  A    between atoms: C_16  and  O_21
REMARK    5  A    between atoms: C_17  and  O_19
REMARK    6  A    between atoms: O_19  and  C_20
REMARK    7  A    between atoms: O_21  and  C_22
REMARK    8  A    between atoms: C_22  and  C_23
REMARK    9  A    between atoms: C_23  and  O_24
REMARK   10  A    between atoms: O_24  and  C_25
REMARK   11  A    between atoms: C_28  and  C_31
REMARK   12  A    between atoms: C_31  and  C_32
REMARK   13  A    between atoms: C_31  and  C_33
REMARK   14  A    between atoms: C_31  and  C_34
REMARK                            x       y       z     vdW  Elec       q    Type
REMARK                         _______ _______ _______ _____ _____    ______ ____
ROOT
ATOM      1  C   UNL     1       1.096  -1.288  -4.158  0.00  0.00    -0.020 A 
ATOM      2  C   UNL     1       0.844   0.009  -4.633  0.00  0.00    +0.012 A 
ATOM      3  C   UNL     1      -0.043   0.823  -3.967  0.00  0.00    +0.050 A 
ATOM      4  C   UNL     1      -0.692   0.366  -2.826  0.00  0.00    +0.162 A 
ATOM      5  C   UNL     1      -0.443  -0.920  -2.344  0.00  0.00    +0.162 A 
ATOM      6  C   UNL     1       0.441  -1.747  -3.006  0.00  0.00    +0.057 A 
ENDROOT
BRANCH   1  11
ATOM      7  N   UNL     1       4.904   0.114  -5.386  0.00  0.00    -0.190 N 
ATOM      8  C   UNL     1       3.722  -0.318  -4.899  0.00  0.00    +0.263 C 
ATOM      9  O   UNL     1       3.072   0.371  -4.135  0.00  0.00    -0.269 OA
ATOM     10  C   UNL     1       3.239  -1.648  -5.319  0.00  0.00    +0.100 C 
ATOM     11  C   UNL     1       2.038  -2.157  -4.863  0.00  0.00    +0.026 C 
ATOM     12  C   UNL     1       4.099  -2.413  -6.244  0.00  0.00    +0.257 C 
ATOM     13  O   UNL     1       3.772  -3.518  -6.631  0.00  0.00    -0.270 OA
ATOM     14  N   UNL     1       5.255  -1.849  -6.652  0.00  0.00    -0.235 N 
ATOM     15  C   UNL     1       5.630  -0.634  -6.229  0.00  0.00    +0.320 C 
ATOM     16  O   UNL     1       6.686  -0.186  -6.631  0.00  0.00    -0.251 OA
ATOM     17  H   UNL     1       5.830  -2.336  -7.263  0.00  0.00    +0.159 HD
BRANCH   7  22
ATOM     18  C   UNL     1       6.848   5.214  -3.832  0.00  0.00    +0.044 C 
ATOM     19  C   UNL     1       6.331   3.860  -4.244  0.00  0.00    -0.050 A 
ATOM     20  C   UNL     1       5.639   3.718  -5.433  0.00  0.00    +0.005 A 
ATOM     21  C   UNL     1       5.165   2.478  -5.814  0.00  0.00    +0.024 A 
ATOM     22  C   UNL     1       5.384   1.373  -5.002  0.00  0.00    +0.046 A 
ATOM     23  C   UNL     1       6.073   1.520  -3.806  0.00  0.00    +0.024 A 
ATOM     24  C   UNL     1       6.550   2.761  -3.433  0.00  0.00    +0.005 A 
ENDBRANCH   7  22
ENDBRANCH   1  11
BRANCH   5  25
ATOM     25  O   UNL     1      -1.076  -1.360  -1.223  0.00  0.00    -0.491 OA
ATOM     26  C   UNL     1      -0.774  -2.686  -0.786  0.00  0.00    +0.277 C 
ENDBRANCH   5  25
BRANCH   4  27
ATOM     27  O   UNL     1      -1.566   1.175  -2.175  0.00  0.00    -0.485 OA
BRANCH  27  28
ATOM     28  C   UNL     1      -1.770   2.480  -2.719  0.00  0.00    +0.270 C 
BRANCH  28  29
ATOM     29  C   UNL     1      -2.780   3.239  -1.857  0.00  0.00    +0.270 C 
BRANCH  29  30
ATOM     30  O   UNL     1      -2.231   3.454  -0.555  0.00  0.00    -0.489 OA
BRANCH  30  31
ATOM     31  C   UNL     1      -3.006   4.119   0.340  0.00  0.00    +0.121 A 
ATOM     32  C   UNL     1      -4.269   4.562  -0.028  0.00  0.00    +0.046 A 
ATOM     33  C   UNL     1      -5.058   5.233   0.886  0.00  0.00    +0.008 A 
ATOM     34  C   UNL     1      -4.586   5.474   2.163  0.00  0.00    -0.042 A 
ATOM     35  C   UNL     1      -3.326   5.038   2.531  0.00  0.00    +0.008 A 
ATOM     36  C   UNL     1      -2.535   4.362   1.622  0.00  0.00    +0.046 A 
BRANCH  34  37
ATOM     37  C   UNL     1      -5.446   6.212   3.156  0.00  0.00    -0.013 C 
ATOM     38  C   UNL     1      -4.729   7.487   3.603  0.00  0.00    +0.015 C 
ATOM     39  C   UNL     1      -6.779   6.579   2.502  0.00  0.00    +0.015 C 
ATOM     40  C   UNL     1      -5.703   5.319   4.372  0.00  0.00    +0.015 C 
ENDBRANCH  34  37
ENDBRANCH  30  31
ENDBRANCH  29  30
ENDBRANCH  28  29
ENDBRANCH  27  28
ENDBRANCH   4  27
TORSDOF 9
