REMARK  Name = ZINC39021243
REMARK  10 active torsions:
REMARK  status: ('A' for Active; 'I' for Inactive)
REMARK    1  A    between atoms: C_1  and  C_2
REMARK    2  A    between atoms: C_2  and  C_3
REMARK    3  A    between atoms: C_3  and  C_4
REMARK    4  A    between atoms: C_4  and  C_5
REMARK    5  A    between atoms: C_5  and  O_6
REMARK    6  A    between atoms: O_6  and  C_7
REMARK    7  A    between atoms: C_10  and  C_13
REMARK    8  A    between atoms: C_15  and  C_19
REMARK    9  A    between atoms: N_21  and  N_22
REMARK   10  A    between atoms: C_23  and  C_24
REMARK                            x       y       z     vdW  Elec       q    Type
REMARK                         _______ _______ _______ _____ _____    ______ ____
ROOT
ATOM      1  C   UNL     1      -7.792  -6.636   0.042  0.00  0.00    +0.046 C 
ATOM      2  C   UNL     1      -7.944  -7.960   0.047  0.00  0.00    +0.027 C 
ATOM      3  C   UNL     1      -9.434  -8.226   0.057  0.00  0.00    +0.184 C 
ATOM      4  N   UNL     1     -10.047  -6.884   0.056  0.00  0.00    -0.227 NA
ATOM      5  N   UNL     1      -9.018  -5.988   0.053  0.00  0.00    -0.279 N 
ATOM      6  H   UNL     1     -10.633  -6.754   0.868  0.00  0.00    +0.145 HD
ATOM      7  H   UNL     1      -9.129  -5.024   0.056  0.00  0.00    +0.166 HD
ENDROOT
BRANCH   1  11
ATOM      8  C   UNL     1      -4.030  -4.655   0.015  0.00  0.00    +0.121 A 
ATOM      9  C   UNL     1      -5.204  -3.913   0.025  0.00  0.00    +0.046 A 
ATOM     10  C   UNL     1      -6.426  -4.553   0.034  0.00  0.00    +0.013 A 
ATOM     11  C   UNL     1      -6.482  -5.946   0.033  0.00  0.00    -0.003 A 
ATOM     12  C   UNL     1      -5.301  -6.689   0.022  0.00  0.00    +0.013 A 
ATOM     13  C   UNL     1      -4.083  -6.043   0.009  0.00  0.00    +0.046 A 
BRANCH   8  14
ATOM     14  O   UNL     1      -2.829  -4.022   0.007  0.00  0.00    -0.492 OA
BRANCH  14  15
ATOM     15  C   UNL     1      -2.848  -2.593   0.015  0.00  0.00    +0.229 C 
BRANCH  15  16
ATOM     16  C   UNL     1      -1.413  -2.063   0.004  0.00  0.00    +0.041 C 
BRANCH  16  17
ATOM     17  C   UNL     1      -1.433  -0.534   0.013  0.00  0.00    +0.003 C 
BRANCH  17  19
ATOM     18  C   UNL     1      -0.019   1.526   0.010  0.00  0.00    +0.004 C 
ATOM     19  C   UNL     1       0.002  -0.004   0.002  0.00  0.00    -0.003 C 
ENDBRANCH  17  19
ENDBRANCH  16  17
ENDBRANCH  15  16
ENDBRANCH  14  15
ENDBRANCH   8  14
ENDBRANCH   1  11
BRANCH   3  20
ATOM     20  C   UNL     1      -9.839  -8.993  -1.175  0.00  0.00    +0.255 C 
ATOM     21  O   UNL     1     -10.338  -8.412  -2.115  0.00  0.00    -0.272 OA
ATOM     22  N   UNL     1      -9.647 -10.326  -1.232  0.00  0.00    -0.205 N 
ATOM     23  H   UNL     1      -9.249 -10.791  -0.480  0.00  0.00    +0.177 HD
BRANCH  22  24
ATOM     24  N   UNL     1     -10.024 -11.040  -2.378  0.00  0.00    -0.188 NA
ATOM     25  C   UNL     1      -9.838 -12.334  -2.433  0.00  0.00    +0.136 C 
BRANCH  25  26
ATOM     26  C   UNL     1     -10.216 -13.048  -3.579  0.00  0.00    +0.000 C 
ATOM     27  C   UNL     1     -10.093 -14.419  -3.796  0.00  0.00    +0.004 A 
ATOM     28  C   UNL     1      -9.587 -15.470  -2.999  0.00  0.00    +0.010 A 
ATOM     29  C   UNL     1      -9.591 -16.739  -3.478  0.00  0.00    +0.001 A 
ATOM     30  C   UNL     1     -10.087 -17.041  -4.750  0.00  0.00    +0.002 A 
ATOM     31  C   UNL     1     -10.587 -16.084  -5.569  0.00  0.00    +0.026 A 
ATOM     32  C   UNL     1     -10.616 -14.731  -5.138  0.00  0.00    +0.043 A 
ATOM     33  N   UNL     1     -11.042 -13.637  -5.732  0.00  0.00    -0.380 N 
ATOM     34  C   UNL     1     -10.847 -12.492  -4.837  0.00  0.00    +0.150 C 
ATOM     35  H   UNL     1     -11.428 -13.595  -6.621  0.00  0.00    +0.160 HD
ENDBRANCH  25  26
ENDBRANCH  22  24
ENDBRANCH   3  20
TORSDOF 9
