REMARK  Name = ZINC16026695
REMARK  8 active torsions:
REMARK  status: ('A' for Active; 'I' for Inactive)
REMARK    1  A    between atoms: C_1  and  C_2
REMARK    2  A    between atoms: C_2  and  O_3
REMARK    3  A    between atoms: O_3  and  C_4
REMARK    4  A    between atoms: C_4  and  C_6
REMARK    5  A    between atoms: C_9  and  N_12
REMARK    6  A    between atoms: C_13  and  C_15
REMARK    7  A    between atoms: C_18  and  C_30
REMARK    8  A    between atoms: C_30  and  C_31
REMARK                            x       y       z     vdW  Elec       q    Type
REMARK                         _______ _______ _______ _____ _____    ______ ____
ROOT
ATOM      1  C   UNL     1      -1.056   7.799   0.075  0.00  0.00    +0.076 C 
ATOM      2  C   UNL     1      -0.433   8.316  -1.244  0.00  0.00    -0.003 C 
ATOM      3  C   UNL     1      -1.680   8.696  -2.088  0.00  0.00    -0.065 C 
ATOM      4  C   UNL     1      -2.457   8.419   0.120  0.00  0.00    +0.049 C 
ATOM      5  C   UNL     1      -2.651   9.226   1.375  0.00  0.00    -0.028 A 
ATOM      6  C   UNL     1      -2.009  10.325   1.902  0.00  0.00    +0.004 A 
ATOM      7  C   UNL     1      -2.427  10.859   3.107  0.00  0.00    +0.000 A 
ATOM      8  C   UNL     1      -3.491  10.288   3.781  0.00  0.00    +0.002 A 
ATOM      9  C   UNL     1      -4.137   9.187   3.258  0.00  0.00    +0.023 A 
ATOM     10  C   UNL     1      -3.721   8.642   2.045  0.00  0.00    +0.036 A 
ATOM     11  N   UNL     1      -4.205   7.550   1.322  0.00  0.00    -0.286 N 
ATOM     12  C   UNL     1      -3.518   7.351   0.182  0.00  0.00    +0.211 C 
ATOM     13  O   UNL     1      -3.715   6.479  -0.638  0.00  0.00    -0.277 OA
ATOM     14  H   UNL     1      -4.950   6.999   1.609  0.00  0.00    +0.155 HD
ATOM     15  N   UNL     1      -2.603   9.235  -1.077  0.00  0.00    +0.394 N 
ATOM     16  H   UNL     1      -3.569   9.185  -1.421  0.00  0.00    -0.083 HD
ATOM     17  H   UNL     1      -2.364  10.211  -0.868  0.00  0.00    -0.083 HD
ENDROOT
BRANCH   1  19
ATOM     18  N   UNL     1      -1.261   5.612   1.213  0.00  0.00    -0.285 N 
ATOM     19  C   UNL     1      -1.149   6.295   0.056  0.00  0.00    +0.220 C 
ATOM     20  O   UNL     1      -1.123   5.699  -1.000  0.00  0.00    -0.275 OA
ATOM     21  H   UNL     1      -1.349   6.090   2.052  0.00  0.00    +0.155 HD
BRANCH  18  25
ATOM     22  C   UNL     1      -1.227   1.447   1.184  0.00  0.00    +0.059 A 
ATOM     23  C   UNL     1      -0.645   2.145   2.246  0.00  0.00    +0.017 A 
ATOM     24  C   UNL     1      -0.653   3.521   2.249  0.00  0.00    +0.024 A 
ATOM     25  C   UNL     1      -1.250   4.218   1.203  0.00  0.00    +0.033 A 
ATOM     26  C   UNL     1      -1.836   3.526   0.147  0.00  0.00    +0.024 A 
ATOM     27  C   UNL     1      -1.827   2.150   0.134  0.00  0.00    +0.017 A 
BRANCH  22  28
ATOM     28  C   UNL     1      -1.215  -0.028   1.173  0.00  0.00    +0.339 C 
ATOM     29  O   UNL     1      -1.726  -0.633   0.252  0.00  0.00    -0.245 OA
BRANCH  28  30
ATOM     30  O   UNL     1      -0.637  -0.704   2.185  0.00  0.00    -0.461 OA
BRANCH  30  32
ATOM     31  C   UNL     1       0.036  -2.741   3.336  0.00  0.00    +0.048 C 
ATOM     32  C   UNL     1      -0.662  -2.154   2.108  0.00  0.00    +0.229 C 
ENDBRANCH  30  32
ENDBRANCH  28  30
ENDBRANCH  22  28
ENDBRANCH  18  25
ENDBRANCH   1  19
BRANCH   3  33
ATOM     33  C   UNL     1      -1.321   9.752  -3.135  0.00  0.00    +0.019 C 
BRANCH  33  34
ATOM     34  C   UNL     1      -2.545  10.095  -3.944  0.00  0.00    -0.049 A 
ATOM     35  C   UNL     1      -2.831   9.390  -5.098  0.00  0.00    +0.003 A 
ATOM     36  C   UNL     1      -3.956   9.701  -5.837  0.00  0.00    +0.000 A 
ATOM     37  C   UNL     1      -4.791  10.724  -5.428  0.00  0.00    +0.000 A 
ATOM     38  C   UNL     1      -4.503  11.432  -4.276  0.00  0.00    +0.000 A 
ATOM     39  C   UNL     1      -3.380  11.118  -3.534  0.00  0.00    +0.003 A 
ENDBRANCH  33  34
ENDBRANCH   3  33
TORSDOF 7
