REMARK  Name = ZINC20290553
REMARK  9 active torsions:
REMARK  status: ('A' for Active; 'I' for Inactive)
REMARK    1  A    between atoms: C_4  and  O_30
REMARK    2  A    between atoms: C_5  and  C_7
REMARK    3  A    between atoms: C_10  and  S_13
REMARK    4  A    between atoms: N_11  and  N_12
REMARK    5  A    between atoms: S_13  and  C_14
REMARK    6  A    between atoms: C_14  and  C_15
REMARK    7  A    between atoms: C_15  and  C_16
REMARK    8  A    between atoms: N_18  and  C_19
REMARK    9  A    between atoms: C_20  and  C_28
REMARK                            x       y       z     vdW  Elec       q    Type
REMARK                         _______ _______ _______ _____ _____    ______ ____
ROOT
ATOM      1  S   UNL     1      -0.262  -5.765  -0.037  0.00  0.00    -0.084 S 
ENDROOT
BRANCH   1   5
ATOM      2  C   UNL     1       1.248  -2.161  -0.022  0.00  0.00    +0.185 A 
ATOM      3  N   UNL     1       2.318  -2.922  -0.031  0.00  0.00    -0.127 NA
ATOM      4  N   UNL     1       1.975  -4.160  -0.037  0.00  0.00    -0.121 NA
ATOM      5  C   UNL     1       0.665  -4.266  -0.032  0.00  0.00    +0.209 A 
ATOM      6  N   UNL     1       0.157  -2.999  -0.016  0.00  0.00    -0.224 N 
BRANCH   2  11
ATOM      7  C   UNL     1      -0.017   1.375   0.010  0.00  0.00    +0.001 A 
ATOM      8  C   UNL     1       1.169   2.089   0.002  0.00  0.00    +0.004 A 
ATOM      9  C   UNL     1       2.383   1.427  -0.013  0.00  0.00    +0.046 A 
ATOM     10  C   UNL     1       2.418   0.042  -0.021  0.00  0.00    +0.128 A 
ATOM     11  C   UNL     1       1.221  -0.683  -0.013  0.00  0.00    +0.062 A 
ATOM     12  C   UNL     1       0.002  -0.004   0.002  0.00  0.00    +0.015 A 
BRANCH  10  13
ATOM     13  O   UNL     1       3.610  -0.609  -0.036  0.00  0.00    -0.506 OA
ATOM     14  H   UNL     1       3.964  -0.802   0.843  0.00  0.00    +0.292 HD
ENDBRANCH  10  13
ENDBRANCH   2  11
BRANCH   6  15
ATOM     15  N   UNL     1      -1.161  -2.638  -0.001  0.00  0.00    -0.295 N 
ATOM     16  H   UNL     1      -1.519  -2.537  -0.939  0.00  0.00    +0.163 HD
ATOM     17  H   UNL     1      -1.711  -3.299   0.526  0.00  0.00    +0.163 HD
ENDBRANCH   6  15
ENDBRANCH   1   5
BRANCH   1  18
ATOM     18  C   UNL     1       1.004  -7.064  -0.050  0.00  0.00    +0.086 C 
BRANCH  18  19
ATOM     19  C   UNL     1       0.327  -8.436  -0.056  0.00  0.00    +0.107 C 
BRANCH  19  20
ATOM     20  C   UNL     1       1.378  -9.515  -0.067  0.00  0.00    +0.218 C 
ATOM     21  O   UNL     1       2.554  -9.217  -0.070  0.00  0.00    -0.275 OA
ATOM     22  N   UNL     1       1.013 -10.813  -0.074  0.00  0.00    -0.279 N 
ATOM     23  H   UNL     1       0.072 -11.051  -0.071  0.00  0.00    +0.155 HD
BRANCH  22  24
ATOM     24  C   UNL     1       1.981 -11.807  -0.084  0.00  0.00    +0.090 A 
ATOM     25  C   UNL     1       1.793 -13.179  -0.097  0.00  0.00    +0.084 A 
ATOM     26  C   UNL     1       2.981 -14.013  -0.106  0.00  0.00    -0.018 A 
ATOM     27  C   UNL     1       4.142 -13.321  -0.100  0.00  0.00    -0.004 A 
ATOM     28  S   UNL     1       3.650 -11.622  -0.090  0.00  0.00    -0.077 S 
ATOM     29  C   UNL     1       5.527 -13.888  -0.105  0.00  0.00    +0.043 C 
ATOM     30  C   UNL     1       5.440 -15.377   0.263  0.00  0.00    +0.005 C 
ATOM     31  C   UNL     1       4.341 -16.032  -0.580  0.00  0.00    +0.005 C 
ATOM     32  C   UNL     1       2.968 -15.534  -0.122  0.00  0.00    +0.037 C 
BRANCH  25  33
ATOM     33  C   UNL     1       0.480 -13.751  -0.101  0.00  0.00    +0.102 C 
ATOM     34  N   UNL     1      -0.561 -14.205  -0.104  0.00  0.00    -0.191 NA
ENDBRANCH  25  33
ENDBRANCH  22  24
ENDBRANCH  19  20
ENDBRANCH  18  19
ENDBRANCH   1  18
TORSDOF 9
