REMARK  Name = ZINC27254229
REMARK  11 active torsions:
REMARK  status: ('A' for Active; 'I' for Inactive)
REMARK    1  A    between atoms: C_1  and  C_2
REMARK    2  A    between atoms: C_5  and  C_9
REMARK    3  A    between atoms: C_7  and  C_8
REMARK    4  A    between atoms: N_11  and  C_12
REMARK    5  A    between atoms: C_12  and  C_13
REMARK    6  A    between atoms: N_15  and  N_16
REMARK    7  A    between atoms: N_16  and  C_17
REMARK    8  A    between atoms: C_17  and  N_19
REMARK    9  A    between atoms: N_19  and  C_20
REMARK   10  A    between atoms: C_25  and  C_30
REMARK   11  A    between atoms: C_27  and  C_29
REMARK                            x       y       z     vdW  Elec       q    Type
REMARK                         _______ _______ _______ _____ _____    ______ ____
ROOT
ATOM      1  C   UNL     1       6.016   3.079  -0.040  0.00  0.00    +0.246 C 
ATOM      2  O   UNL     1       5.816   1.883  -0.044  0.00  0.00    -0.273 OA
ATOM      3  N   UNL     1       7.279   3.551  -0.050  0.00  0.00    -0.234 N 
ATOM      4  H   UNL     1       7.461   4.635  -0.046  0.00  0.00    +0.173 HD
ENDROOT
BRANCH   3   5
ATOM      5  N   UNL     1       8.360   2.659  -0.065  0.00  0.00    -0.246 N 
ATOM      6  H   UNL     1       8.178   1.574  -0.069  0.00  0.00    +0.172 HD
BRANCH   5   7
ATOM      7  C   UNL     1       9.622   3.130  -0.075  0.00  0.00    +0.147 C 
ATOM      8  S   UNL     1      10.943   2.041  -0.093  0.00  0.00    -0.017 S 
BRANCH   7   9
ATOM      9  N   UNL     1       9.845   4.459  -0.070  0.00  0.00    -0.322 N 
ATOM     10  H   UNL     1       8.997   5.160  -0.059  0.00  0.00    +0.148 HD
BRANCH   9  11
ATOM     11  C   UNL     1      11.218   4.972  -0.081  0.00  0.00    +0.075 C 
ATOM     12  C   UNL     1      11.726   5.040  -1.523  0.00  0.00    +0.022 C 
ATOM     13  C   UNL     1      10.827   5.972  -2.337  0.00  0.00    +0.002 C 
ATOM     14  C   UNL     1      10.853   7.372  -1.720  0.00  0.00    +0.003 C 
ATOM     15  C   UNL     1      10.345   7.305  -0.279  0.00  0.00    -0.009 C 
ATOM     16  C   UNL     1      11.245   6.372   0.535  0.00  0.00    +0.009 C 
ATOM     17  C   UNL     1      10.737   6.304   1.977  0.00  0.00    +0.009 C 
ATOM     18  C   UNL     1      10.372   8.705   0.338  0.00  0.00    +0.008 C 
ENDBRANCH   9  11
ENDBRANCH   7   9
ENDBRANCH   5   7
ENDBRANCH   3   5
BRANCH   1  19
ATOM     19  C   UNL     1       4.854   4.038  -0.024  0.00  0.00    +0.202 C 
BRANCH  19  22
ATOM     20  C   UNL     1       2.420   3.937  -0.001  0.00  0.00    +0.244 C 
ATOM     21  O   UNL     1       2.399   5.153   0.005  0.00  0.00    -0.270 OA
ATOM     22  N   UNL     1       3.599   3.284  -0.016  0.00  0.00    -0.303 N 
ATOM     23  H   UNL     1       3.618   2.184  -0.021  0.00  0.00    +0.150 HD
BRANCH  20  28
ATOM     24  C   UNL     1      -2.513   0.974   0.019  0.00  0.00    +0.044 C 
ATOM     25  C   UNL     1      -1.221   1.750   0.017  0.00  0.00    -0.047 A 
ATOM     26  C   UNL     1      -0.013   1.076   0.008  0.00  0.00    +0.004 A 
ATOM     27  C   UNL     1       1.173   1.780   0.000  0.00  0.00    +0.013 A 
ATOM     28  C   UNL     1       1.153   3.176   0.008  0.00  0.00    +0.037 A 
ATOM     29  C   UNL     1      -0.070   3.849   0.022  0.00  0.00    +0.016 A 
ATOM     30  C   UNL     1      -1.249   3.133   0.030  0.00  0.00    -0.047 A 
ATOM     31  C   UNL     1      -2.569   3.858   0.046  0.00  0.00    +0.044 C 
ENDBRANCH  20  28
ENDBRANCH  19  22
ENDBRANCH   1  19
TORSDOF 7
