REMARK  Name = ZINC36497365
REMARK  10 active torsions:
REMARK  status: ('A' for Active; 'I' for Inactive)
REMARK    1  A    between atoms: C_3  and  C_6
REMARK    2  A    between atoms: C_6  and  N_7
REMARK    3  A    between atoms: N_7  and  C_8
REMARK    4  A    between atoms: C_8  and  C_10
REMARK    5  A    between atoms: C_8  and  C_19
REMARK    6  A    between atoms: C_11  and  O_18
REMARK    7  A    between atoms: C_13  and  O_17
REMARK    8  A    between atoms: C_15  and  O_16
REMARK    9  A    between atoms: N_21  and  C_22
REMARK   10  A    between atoms: C_28  and  C_30
REMARK                            x       y       z     vdW  Elec       q    Type
REMARK                         _______ _______ _______ _____ _____    ______ ____
ROOT
ATOM      1  C   UNL     1       4.559  -0.623   2.400  0.00  0.00    +0.200 C 
ENDROOT
BRANCH   1   2
ATOM      2  C   UNL     1       3.397  -1.459   2.870  0.00  0.00    +0.065 A 
ATOM      3  C   UNL     1       2.395  -1.817   1.980  0.00  0.00    +0.129 A 
ATOM      4  C   UNL     1       1.325  -2.586   2.413  0.00  0.00    +0.091 A 
ATOM      5  C   UNL     1       1.257  -2.997   3.736  0.00  0.00    +0.124 A 
ATOM      6  C   UNL     1       2.259  -2.639   4.626  0.00  0.00    +0.091 A 
ATOM      7  C   UNL     1       3.331  -1.874   4.192  0.00  0.00    +0.129 A 
BRANCH   7   8
ATOM      8  O   UNL     1       4.315  -1.528   5.063  0.00  0.00    -0.506 OA
ATOM      9  H   UNL     1       4.156  -0.693   5.524  0.00  0.00    +0.292 HD
ENDBRANCH   7   8
BRANCH   5  10
ATOM     10  O   UNL     1       0.208  -3.750   4.160  0.00  0.00    -0.507 OA
ATOM     11  H   UNL     1       0.349  -4.703   4.078  0.00  0.00    +0.292 HD
ENDBRANCH   5  10
BRANCH   3  12
ATOM     12  O   UNL     1       2.462  -1.414   0.684  0.00  0.00    -0.506 OA
ATOM     13  H   UNL     1       2.852  -2.069   0.089  0.00  0.00    +0.292 HD
ENDBRANCH   3  12
ENDBRANCH   1   2
BRANCH   1  14
ATOM     14  C   UNL     1       5.136  -1.226   1.145  0.00  0.00    +0.239 C 
ATOM     15  O   UNL     1       5.160  -0.581   0.118  0.00  0.00    -0.273 OA
ATOM     16  N   UNL     1       5.624  -2.482   1.163  0.00  0.00    -0.311 N 
ATOM     17  H   UNL     1       5.604  -2.998   1.985  0.00  0.00    +0.149 HD
BRANCH  16  18
ATOM     18  C   UNL     1       6.185  -3.068  -0.057  0.00  0.00    +0.073 C 
ATOM     19  C   UNL     1       5.058  -3.675  -0.895  0.00  0.00    +0.022 C 
ATOM     20  C   UNL     1       5.643  -4.287  -2.169  0.00  0.00    +0.002 C 
ATOM     21  C   UNL     1       6.647  -5.380  -1.796  0.00  0.00    +0.000 C 
ATOM     22  C   UNL     1       7.774  -4.773  -0.957  0.00  0.00    +0.002 C 
ATOM     23  C   UNL     1       7.188  -4.161   0.317  0.00  0.00    +0.022 C 
ENDBRANCH  16  18
ENDBRANCH   1  14
BRANCH   1  24
ATOM     24  N   UNL     1       4.100   0.740   2.121  0.00  0.00    -0.274 N 
ATOM     25  C   UNL     1       4.995   1.714   1.867  0.00  0.00    +0.248 C 
ATOM     26  O   UNL     1       4.635   2.749   1.341  0.00  0.00    -0.270 OA
BRANCH  25  27
ATOM     27  C   UNL     1       6.415   1.525   2.230  0.00  0.00    +0.037 A 
ATOM     28  C   UNL     1       6.939   0.238   2.366  0.00  0.00    +0.014 A 
ATOM     29  C   UNL     1       8.265   0.068   2.704  0.00  0.00    +0.021 A 
ATOM     30  C   UNL     1       9.077   1.171   2.910  0.00  0.00    +0.041 A 
ATOM     31  C   UNL     1       8.563   2.450   2.777  0.00  0.00    +0.021 A 
ATOM     32  C   UNL     1       7.241   2.633   2.433  0.00  0.00    +0.014 A 
ATOM     33 CL   UNL     1      10.745   0.948   3.337  0.00  0.00    -0.084 Cl
ENDBRANCH  25  27
BRANCH  24  34
ATOM     34  C   UNL     1       2.666   1.043   2.117  0.00  0.00    +0.183 C 
BRANCH  34  37
ATOM     35  C   UNL     1       1.496   1.812   5.526  0.00  0.00    +0.041 A 
ATOM     36  C   UNL     1       1.979   2.219   4.261  0.00  0.00    +0.046 A 
ATOM     37  C   UNL     1       2.161   1.101   3.535  0.00  0.00    +0.122 A 
ATOM     38  O   UNL     1       1.816   0.045   4.290  0.00  0.00    -0.466 OA
ATOM     39  C   UNL     1       1.412   0.470   5.498  0.00  0.00    +0.195 A 
ENDBRANCH  34  37
ENDBRANCH  24  34
ENDBRANCH   1  24
TORSDOF 10
