REMARK  Name = ZINC18405420
REMARK  11 active torsions:
REMARK  status: ('A' for Active; 'I' for Inactive)
REMARK    1  A    between atoms: C_1  and  C_2
REMARK    2  A    between atoms: C_3  and  C_30
REMARK    3  A    between atoms: N_4  and  C_24
REMARK    4  A    between atoms: C_5  and  N_9
REMARK    5  A    between atoms: C_6  and  C_7
REMARK    6  A    between atoms: C_10  and  C_12
REMARK    7  A    between atoms: C_12  and  O_13
REMARK    8  A    between atoms: O_13  and  C_14
REMARK    9  A    between atoms: C_14  and  C_16
REMARK   10  A    between atoms: C_21  and  N_22
REMARK   11  A    between atoms: C_24  and  C_25
REMARK                            x       y       z     vdW  Elec       q    Type
REMARK                         _______ _______ _______ _____ _____    ______ ____
ROOT
ATOM      1  N   UNL     1       0.966   1.983  -0.512  0.00  0.00    -0.268 N 
ATOM      2  C   UNL     1       0.575   2.960  -1.353  0.00  0.00    +0.256 C 
ATOM      3  O   UNL     1       1.268   3.256  -2.303  0.00  0.00    -0.272 OA
ATOM      4  H   UNL     1       0.395   1.722   0.228  0.00  0.00    +0.156 HD
ENDROOT
BRANCH   1   9
ATOM      5  C   UNL     1       5.890   1.050  -1.165  0.00  0.00    +0.047 C 
ATOM      6  C   UNL     1       4.400   0.893  -1.000  0.00  0.00    -0.011 A 
ATOM      7  C   UNL     1       3.709  -0.259  -1.004  0.00  0.00    +0.022 A 
ATOM      8  N   UNL     1       2.379   0.010  -0.821  0.00  0.00    -0.324 N 
ATOM      9  C   UNL     1       2.185   1.349  -0.704  0.00  0.00    +0.124 A 
ATOM     10  C   UNL     1       3.422   1.970  -0.803  0.00  0.00    +0.095 A 
ATOM     11  C   UNL     1       4.306  -1.632  -1.177  0.00  0.00    +0.064 C 
BRANCH  10  12
ATOM     12  C   UNL     1       3.689   3.375  -0.731  0.00  0.00    +0.103 C 
ATOM     13  N   UNL     1       3.901   4.489  -0.672  0.00  0.00    -0.191 NA
ENDBRANCH  10  12
BRANCH   8  14
ATOM     14  C   UNL     1       1.320  -1.000  -0.765  0.00  0.00    +0.197 C 
BRANCH  14  15
ATOM     15  C   UNL     1       0.808  -1.269  -2.156  0.00  0.00    +0.124 A 
ATOM     16  C   UNL     1       1.288  -2.195  -3.006  0.00  0.00    +0.046 A 
ATOM     17  C   UNL     1       0.518  -2.105  -4.188  0.00  0.00    +0.041 A 
ATOM     18  C   UNL     1      -0.383  -1.125  -3.993  0.00  0.00    +0.195 A 
ATOM     19  O   UNL     1      -0.203  -0.623  -2.760  0.00  0.00    -0.466 OA
ENDBRANCH  14  15
ENDBRANCH   8  14
ENDBRANCH   1   9
BRANCH   2  20
ATOM     20  C   UNL     1      -0.721   3.690  -1.110  0.00  0.00    +0.328 C 
BRANCH  20  21
ATOM     21  O   UNL     1      -0.913   4.692  -2.143  0.00  0.00    -0.452 OA
BRANCH  21  22
ATOM     22  C   UNL     1      -2.033   5.439  -2.071  0.00  0.00    +0.341 C 
ATOM     23  O   UNL     1      -2.827   5.256  -1.169  0.00  0.00    -0.245 OA
BRANCH  22  24
ATOM     24  C   UNL     1      -2.294   6.475  -3.084  0.00  0.00    +0.081 A 
ATOM     25  C   UNL     1      -1.326   6.777  -4.047  0.00  0.00    +0.017 A 
ATOM     26  C   UNL     1      -1.576   7.747  -4.992  0.00  0.00    +0.002 A 
ATOM     27  C   UNL     1      -2.784   8.427  -4.996  0.00  0.00    +0.022 A 
ATOM     28  C   UNL     1      -3.750   8.141  -4.052  0.00  0.00    +0.062 A 
ATOM     29  C   UNL     1      -3.518   7.162  -3.093  0.00  0.00    +0.057 A 
ATOM     30 CL   UNL     1      -5.259   9.000  -4.068  0.00  0.00    -0.082 Cl
BRANCH  29  31
ATOM     31  N   UNL     1      -4.490   6.868  -2.146  0.00  0.00    -0.356 N 
ATOM     32  H   UNL     1      -5.157   7.533  -1.913  0.00  0.00    +0.142 HD
ATOM     33  H   UNL     1      -4.502   5.998  -1.716  0.00  0.00    +0.142 HD
ENDBRANCH  29  31
ENDBRANCH  22  24
ENDBRANCH  21  22
ENDBRANCH  20  21
ENDBRANCH   2  20
TORSDOF 9
