REMARK  Name = ZINC60377142
REMARK  7 active torsions:
REMARK  status: ('A' for Active; 'I' for Inactive)
REMARK    1  A    between atoms: C_6  and  C_7
REMARK    2  A    between atoms: C_7  and  N_12
REMARK    3  A    between atoms: N_12  and  C_13
REMARK    4  A    between atoms: C_13  and  C_14
REMARK    5  A    between atoms: N_16  and  C_17
REMARK    6  A    between atoms: C_20  and  S_23
REMARK    7  A    between atoms: S_23  and  N_26
REMARK                            x       y       z     vdW  Elec       q    Type
REMARK                         _______ _______ _______ _____ _____    ______ ____
ROOT
ATOM      1  C   UNL     1      -3.584   2.002   1.040  0.00  0.00    +0.231 C 
ATOM      2  O   UNL     1      -3.957   1.521   2.090  0.00  0.00    -0.274 OA
ATOM      3  N   UNL     1      -4.024   3.218   0.662  0.00  0.00    -0.284 N 
ATOM      4  H   UNL     1      -3.676   3.631  -0.144  0.00  0.00    +0.155 HD
ENDROOT
BRANCH   3   5
ATOM      5  C   UNL     1      -4.983   3.886   1.432  0.00  0.00    +0.034 A 
ATOM      6  C   UNL     1      -5.948   4.670   0.814  0.00  0.00    +0.025 A 
ATOM      7  C   UNL     1      -6.893   5.328   1.576  0.00  0.00    +0.030 A 
ATOM      8  C   UNL     1      -6.880   5.206   2.954  0.00  0.00    +0.105 A 
ATOM      9  C   UNL     1      -5.920   4.426   3.572  0.00  0.00    +0.030 A 
ATOM     10  C   UNL     1      -4.975   3.761   2.815  0.00  0.00    +0.025 A 
BRANCH   8  11
ATOM     11  S   UNL     1      -8.087   6.047   3.923  0.00  0.00    +0.056 S 
ATOM     12  O   UNL     1      -7.527   6.209   5.219  0.00  0.00    -0.153 OA
ATOM     13  O   UNL     1      -8.539   7.147   3.145  0.00  0.00    -0.153 OA
BRANCH  11  14
ATOM     14  N   UNL     1      -9.379   5.024   4.090  0.00  0.00    -0.204 NA
ATOM     15  H   UNL     1      -9.357   4.144   3.682  0.00  0.00    +0.144 HD
ATOM     16  H   UNL     1     -10.157   5.305   4.597  0.00  0.00    +0.144 HD
ENDBRANCH  11  14
ENDBRANCH   8  11
ENDBRANCH   3   5
BRANCH   1  17
ATOM     17  C   UNL     1      -2.629   1.238   0.160  0.00  0.00    +0.178 C 
BRANCH  17  18
ATOM     18  N   UNL     1      -2.303  -0.048   0.790  0.00  0.00    -0.299 NA
ATOM     19  H   UNL     1      -3.131  -0.612   0.908  0.00  0.00    +0.123 HD
BRANCH  18  20
ATOM     20  C   UNL     1      -1.281  -0.768   0.018  0.00  0.00    +0.045 C 
ATOM     21  C   UNL     1      -1.753  -0.958  -1.438  0.00  0.00    +0.027 C 
ATOM     22  C   UNL     1      -1.232  -2.364  -1.826  0.00  0.00    +0.002 C 
ATOM     23  C   UNL     1      -1.432  -3.174  -0.522  0.00  0.00    +0.002 C 
ATOM     24  C   UNL     1      -1.077  -2.178   0.601  0.00  0.00    +0.027 C 
BRANCH  20  30
ATOM     25  C   UNL     1       0.303   0.837   1.104  0.00  0.00    +0.007 A 
ATOM     26  C   UNL     1       1.495   1.537   1.129  0.00  0.00    +0.020 A 
ATOM     27  C   UNL     1       2.403   1.394   0.095  0.00  0.00    +0.041 A 
ATOM     28  C   UNL     1       2.117   0.551  -0.964  0.00  0.00    +0.020 A 
ATOM     29  C   UNL     1       0.925  -0.148  -0.988  0.00  0.00    +0.007 A 
ATOM     30  C   UNL     1       0.018  -0.005   0.045  0.00  0.00    -0.027 A 
ATOM     31 CL   UNL     1       3.899   2.273   0.126  0.00  0.00    -0.084 Cl
ENDBRANCH  20  30
ENDBRANCH  18  20
ENDBRANCH  17  18
ENDBRANCH   1  17
TORSDOF 7
