REMARK  Name = ZINC48120946
REMARK  11 active torsions:
REMARK  status: ('A' for Active; 'I' for Inactive)
REMARK    1  A    between atoms: C_1  and  C_2
REMARK    2  A    between atoms: C_4  and  O_25
REMARK    3  A    between atoms: C_7  and  N_8
REMARK    4  A    between atoms: N_11  and  C_12
REMARK    5  A    between atoms: C_12  and  C_14
REMARK    6  A    between atoms: C_12  and  C_15
REMARK    7  A    between atoms: C_18  and  S_21
REMARK    8  A    between atoms: S_21  and  N_24
REMARK    9  A    between atoms: O_25  and  C_26
REMARK   10  A    between atoms: C_26  and  C_27
REMARK   11  A    between atoms: C_26  and  C_28
REMARK                            x       y       z     vdW  Elec       q    Type
REMARK                         _______ _______ _______ _____ _____    ______ ____
ROOT
ATOM      1  N   UNL     1       0.033  -0.036   2.414  0.00  0.00    -0.269 N 
ATOM      2  C   UNL     1       0.151  -0.679   3.593  0.00  0.00    +0.304 C 
ATOM      3  O   UNL     1       0.349  -1.878   3.614  0.00  0.00    -0.252 OA
ATOM      4  N   UNL     1       0.049   0.008   4.748  0.00  0.00    -0.293 N 
ATOM      5  H   UNL     1      -0.068   0.928   2.395  0.00  0.00    +0.156 HD
ATOM      6  H   UNL     1      -0.109   0.965   4.731  0.00  0.00    +0.151 HD
ENDROOT
BRANCH   1  13
ATOM      7  C   UNL     1      -1.282   1.073   0.149  0.00  0.00    +0.046 C 
ATOM      8  C   UNL     1      -0.575  -0.256   0.086  0.00  0.00    -0.026 A 
ATOM      9  C   UNL     1      -0.547  -0.969  -1.097  0.00  0.00    +0.050 A 
ATOM     10  C   UNL     1       0.104  -2.192  -1.155  0.00  0.00    +0.121 A 
ATOM     11  C   UNL     1       0.728  -2.701  -0.025  0.00  0.00    +0.047 A 
ATOM     12  C   UNL     1       0.701  -1.990   1.158  0.00  0.00    +0.027 A 
ATOM     13  C   UNL     1       0.055  -0.762   1.215  0.00  0.00    +0.038 A 
BRANCH  10  14
ATOM     14  O   UNL     1       0.130  -2.893  -2.320  0.00  0.00    -0.489 OA
BRANCH  14  15
ATOM     15  C   UNL     1       0.914  -4.088  -2.340  0.00  0.00    +0.167 C 
ATOM     16  C   UNL     1       0.083  -5.252  -1.797  0.00  0.00    +0.051 C 
ATOM     17  C   UNL     1       1.341  -4.393  -3.777  0.00  0.00    +0.051 C 
ENDBRANCH  14  15
ENDBRANCH  10  14
ENDBRANCH   1  13
BRANCH   4  18
ATOM     18  C   UNL     1       0.177  -0.691   6.029  0.00  0.00    +0.102 C 
ATOM     19  C   UNL     1      -1.179  -1.276   6.429  0.00  0.00    +0.033 C 
BRANCH  18  20
ATOM     20  C   UNL     1       0.637   0.280   7.087  0.00  0.00    -0.027 A 
ATOM     21  C   UNL     1       0.124   1.563   7.117  0.00  0.00    +0.007 A 
ATOM     22  C   UNL     1       0.545   2.454   8.087  0.00  0.00    +0.029 A 
ATOM     23  C   UNL     1       1.479   2.060   9.027  0.00  0.00    +0.105 A 
ATOM     24  C   UNL     1       1.991   0.776   8.998  0.00  0.00    +0.029 A 
ATOM     25  C   UNL     1       1.566  -0.115   8.030  0.00  0.00    +0.007 A 
BRANCH  23  26
ATOM     26  S   UNL     1       2.017   3.195  10.263  0.00  0.00    +0.056 S 
ATOM     27  O   UNL     1       3.298   2.753  10.690  0.00  0.00    -0.153 OA
ATOM     28  O   UNL     1       1.795   4.498   9.742  0.00  0.00    -0.153 OA
BRANCH  26  29
ATOM     29  N   UNL     1       1.001   3.025  11.560  0.00  0.00    -0.204 NA
ATOM     30  H   UNL     1       0.276   2.381  11.526  0.00  0.00    +0.144 HD
ATOM     31  H   UNL     1       1.132   3.568  12.352  0.00  0.00    +0.144 HD
ENDBRANCH  26  29
ENDBRANCH  23  26
ENDBRANCH  18  20
ENDBRANCH   4  18
TORSDOF 7
