REMARK  Name = ZINC42080267
REMARK  2 active torsions:
REMARK  status: ('A' for Active; 'I' for Inactive)
REMARK    1  A    between atoms: C_11  and  N_13
REMARK    2  A    between atoms: N_13  and  C_14
REMARK                            x       y       z     vdW  Elec       q    Type
REMARK                         _______ _______ _______ _____ _____    ______ ____
ROOT
ATOM      1  C   UNL     1      -0.017   1.378   0.010  0.00  0.00    +0.002 A 
ATOM      2  C   UNL     1       1.175   2.083   0.002  0.00  0.00    +0.008 A 
ATOM      3  C   UNL     1       2.373   1.407  -0.013  0.00  0.00    +0.004 A 
ATOM      4  C   UNL     1       2.406   0.018  -0.021  0.00  0.00    +0.053 A 
ATOM      5  C   UNL     1       1.203  -0.686  -0.013  0.00  0.00    +0.039 A 
ATOM      6  C   UNL     1       0.002  -0.004   0.002  0.00  0.00    +0.017 A 
ATOM      7 BR   UNL     1       1.214  -2.576  -0.023  0.00  0.00    -0.048 Br
ATOM      8  N   UNL     1       3.727  -0.433  -0.036  0.00  0.00    -0.282 N 
ATOM      9  C   UNL     1       4.610   0.579  -0.039  0.00  0.00    +0.242 C 
ATOM     10  O   UNL     1       5.819   0.480  -0.051  0.00  0.00    -0.273 OA
ATOM     11  C   UNL     1       3.813   1.866  -0.024  0.00  0.00    +0.190 C 
ATOM     12  H   UNL     1       3.978  -1.370  -0.043  0.00  0.00    +0.155 HD
ENDROOT
BRANCH  11  13
ATOM     13  N   UNL     1       4.114   2.642   1.181  0.00  0.00    -0.329 N 
ATOM     14  H   UNL     1       3.593   2.505   1.988  0.00  0.00    +0.147 HD
BRANCH  13  15
ATOM     15  C   UNL     1       5.151   3.581   1.168  0.00  0.00    +0.032 A 
ATOM     16  C   UNL     1       5.892   3.781   0.011  0.00  0.00    +0.027 A 
ATOM     17  C   UNL     1       6.917   4.709  -0.003  0.00  0.00    +0.051 A 
ATOM     18  C   UNL     1       7.207   5.441   1.136  0.00  0.00    +0.166 A 
ATOM     19  C   UNL     1       6.466   5.243   2.298  0.00  0.00    +0.168 A 
ATOM     20  C   UNL     1       5.436   4.317   2.310  0.00  0.00    +0.072 A 
ATOM     21  O   UNL     1       6.944   6.076   3.268  0.00  0.00    -0.453 OA
ATOM     22  C   UNL     1       8.245   6.490   2.813  0.00  0.00    +0.466 C 
ATOM     23  O   UNL     1       8.151   6.399   1.379  0.00  0.00    -0.453 OA
ENDBRANCH  13  15
ENDBRANCH  11  13
TORSDOF 2
