REMARK  Name = ZINC37331151
REMARK  6 active torsions:
REMARK  status: ('A' for Active; 'I' for Inactive)
REMARK    1  A    between atoms: C_1  and  C_2
REMARK    2  A    between atoms: C_6  and  N_20
REMARK    3  A    between atoms: C_7  and  N_8
REMARK    4  A    between atoms: N_8  and  S_9
REMARK    5  A    between atoms: S_9  and  C_12
REMARK    6  A    between atoms: C_16  and  C_18
REMARK                            x       y       z     vdW  Elec       q    Type
REMARK                         _______ _______ _______ _____ _____    ______ ____
ROOT
ATOM      1  N   UNL     1       0.303  -0.847   2.649  0.00  0.00    -0.214 N 
ATOM      2  H   UNL     1       0.448   0.089   2.860  0.00  0.00    +0.174 HD
ENDROOT
BRANCH   1   9
ATOM      3  C   UNL     1       2.591  -0.540   0.988  0.00  0.00    +0.046 C 
ATOM      4  C   UNL     1       1.303  -1.125   0.469  0.00  0.00    -0.026 A 
ATOM      5  C   UNL     1       1.211  -1.536  -0.849  0.00  0.00    +0.005 A 
ATOM      6  C   UNL     1       0.032  -2.073  -1.329  0.00  0.00    +0.002 A 
ATOM      7  C   UNL     1      -1.064  -2.204  -0.495  0.00  0.00    +0.024 A 
ATOM      8  C   UNL     1      -0.981  -1.795   0.827  0.00  0.00    +0.047 A 
ATOM      9  C   UNL     1       0.211  -1.257   1.313  0.00  0.00    +0.072 A 
BRANCH   8  10
ATOM     10  N   UNL     1      -2.089  -1.926   1.673  0.00  0.00    -0.356 N 
ATOM     11  H   UNL     1      -2.822  -2.510   1.425  0.00  0.00    +0.142 HD
ATOM     12  H   UNL     1      -2.123  -1.432   2.507  0.00  0.00    +0.142 HD
ENDBRANCH   8  10
ENDBRANCH   1   9
BRANCH   1  13
ATOM     13  S   UNL     1       0.162  -1.958   3.868  0.00  0.00    +0.072 S 
ATOM     14  O   UNL     1       0.298  -1.242   5.088  0.00  0.00    -0.150 OA
ATOM     15  O   UNL     1      -0.983  -2.745   3.570  0.00  0.00    -0.150 OA
BRANCH  13  16
ATOM     16  C   UNL     1       1.555  -3.032   3.756  0.00  0.00    +0.110 A 
ATOM     17  C   UNL     1       1.464  -4.207   3.032  0.00  0.00    +0.029 A 
ATOM     18  C   UNL     1       2.552  -5.056   2.939  0.00  0.00    +0.003 A 
ATOM     19  C   UNL     1       3.737  -4.736   3.569  0.00  0.00    +0.019 A 
ATOM     20  C   UNL     1       3.836  -3.551   4.302  0.00  0.00    +0.054 A 
ATOM     21  C   UNL     1       2.735  -2.697   4.387  0.00  0.00    +0.047 A 
BRANCH  20  22
ATOM     22  C   UNL     1       5.062  -3.212   4.958  0.00  0.00    +0.099 C 
ATOM     23  N   UNL     1       6.035  -2.943   5.479  0.00  0.00    -0.191 NA
ENDBRANCH  20  22
ENDBRANCH  13  16
ENDBRANCH   1  13
TORSDOF 5
