REMARK  Name = ZINC13800303
REMARK  8 active torsions:
REMARK  status: ('A' for Active; 'I' for Inactive)
REMARK    1  A    between atoms: C_1  and  O_2
REMARK    2  A    between atoms: O_2  and  C_3
REMARK    3  A    between atoms: C_9  and  S_13
REMARK    4  A    between atoms: S_13  and  N_16
REMARK    5  A    between atoms: N_16  and  C_17
REMARK    6  A    between atoms: N_21  and  C_24
REMARK    7  A    between atoms: C_24  and  C_25
REMARK    8  A    between atoms: C_29  and  C_31
REMARK                            x       y       z     vdW  Elec       q    Type
REMARK                         _______ _______ _______ _____ _____    ______ ____
ROOT
ATOM      1  C   UNL     1       0.414   7.653  -3.426  0.00  0.00    +0.164 C 
ATOM      2  C   UNL     1       0.654   8.772  -4.465  0.00  0.00    +0.049 C 
ATOM      3  C   UNL     1       1.486   8.033  -5.537  0.00  0.00    +0.110 C 
ATOM      4  N   UNL     1       1.126   6.617  -5.404  0.00  0.00    -0.296 N 
ATOM      5  C   UNL     1       0.528   6.373  -4.225  0.00  0.00    +0.235 C 
ATOM      6  O   UNL     1       0.136   5.286  -3.856  0.00  0.00    -0.274 OA
ENDROOT
BRANCH   1   7
ATOM      7  N   UNL     1       1.438   7.696  -2.379  0.00  0.00    -0.178 NA
ATOM      8  H   UNL     1       2.348   7.951  -2.601  0.00  0.00    +0.149 HD
BRANCH   7   9
ATOM      9  S   UNL     1       1.044   7.310  -0.818  0.00  0.00    +0.059 S 
ATOM     10  O   UNL     1      -0.130   8.046  -0.502  0.00  0.00    -0.153 OA
ATOM     11  O   UNL     1       2.240   7.419  -0.058  0.00  0.00    -0.153 OA
BRANCH   9  18
ATOM     12  C   UNL     1      -2.724   2.175  -1.180  0.00  0.00    +0.121 A 
ATOM     13  C   UNL     1      -1.742   1.205  -0.957  0.00  0.00    +0.046 A 
ATOM     14  C   UNL     1      -0.445   1.558  -0.754  0.00  0.00    +0.012 A 
ATOM     15  C   UNL     1      -0.081   2.916  -0.767  0.00  0.00    -0.018 A 
ATOM     16  C   UNL     1       1.250   3.315  -0.560  0.00  0.00    +0.010 A 
ATOM     17  C   UNL     1       1.567   4.639  -0.579  0.00  0.00    +0.029 A 
ATOM     18  C   UNL     1       0.590   5.607  -0.801  0.00  0.00    +0.106 A 
ATOM     19  C   UNL     1      -0.709   5.258  -1.005  0.00  0.00    +0.037 A 
ATOM     20  C   UNL     1      -1.075   3.901  -0.993  0.00  0.00    -0.013 A 
ATOM     21  C   UNL     1      -2.406   3.503  -1.199  0.00  0.00    +0.054 A 
BRANCH  12  23
ATOM     22  C   UNL     1      -4.284   0.389  -1.347  0.00  0.00    +0.277 C 
ATOM     23  O   UNL     1      -4.013   1.791  -1.379  0.00  0.00    -0.495 OA
ENDBRANCH  12  23
ENDBRANCH   9  18
ENDBRANCH   7   9
ENDBRANCH   1   7
BRANCH   4  24
ATOM     24  C   UNL     1       1.386   5.598  -6.425  0.00  0.00    +0.143 C 
BRANCH  24  25
ATOM     25  C   UNL     1       2.741   4.983  -6.187  0.00  0.00    -0.027 A 
ATOM     26  C   UNL     1       2.880   3.866  -5.376  0.00  0.00    +0.025 A 
ATOM     27  C   UNL     1       4.138   3.324  -5.178  0.00  0.00    +0.112 A 
ATOM     28  N   UNL     1       5.200   3.855  -5.746  0.00  0.00    -0.252 NA
ATOM     29  C   UNL     1       5.110   4.923  -6.528  0.00  0.00    +0.101 A 
ATOM     30  C   UNL     1       3.875   5.516  -6.777  0.00  0.00    +0.036 A 
BRANCH  29  31
ATOM     31  C   UNL     1       6.334   5.486  -7.147  0.00  0.00    +0.113 C 
ATOM     32  N   UNL     1       7.558   4.901  -6.910  0.00  0.00    -0.343 N 
ATOM     33  H   UNL     1       6.996   6.976  -8.366  0.00  0.00    +0.157 HD
ATOM     34  H   UNL     1       7.620   4.120  -6.337  0.00  0.00    +0.144 HD
ATOM     35  H   UNL     1       8.359   5.269  -7.315  0.00  0.00    +0.144 HD
ATOM     36  N   UNL     1       6.184   6.551  -7.917  0.00  0.00    -0.386 N 
ATOM     37  H   UNL     1       5.249   6.951  -8.064  0.00  0.00    +0.157 HD
ENDBRANCH  29  31
ENDBRANCH  24  25
ENDBRANCH   4  24
TORSDOF 7
