REMARK  Name = ZINC17671059
REMARK  10 active torsions:
REMARK  status: ('A' for Active; 'I' for Inactive)
REMARK    1  A    between atoms: C_1  and  C_2
REMARK    2  A    between atoms: C_5  and  N_9
REMARK    3  A    between atoms: C_10  and  C_24
REMARK    4  A    between atoms: C_13  and  S_14
REMARK    5  A    between atoms: S_14  and  C_15
REMARK    6  A    between atoms: C_15  and  C_16
REMARK    7  A    between atoms: C_24  and  O_25
REMARK    8  A    between atoms: O_25  and  C_26
REMARK    9  A    between atoms: C_29  and  O_32
REMARK   10  A    between atoms: O_32  and  C_33
REMARK                            x       y       z     vdW  Elec       q    Type
REMARK                         _______ _______ _______ _____ _____    ______ ____
ROOT
ATOM      1  N   UNL     1      -4.225   3.657   2.409  0.00  0.00    -0.271 N 
ATOM      2  C   UNL     1      -5.261   4.236   1.726  0.00  0.00    +0.176 A 
ATOM      3  N   UNL     1      -5.010   4.100   0.454  0.00  0.00    -0.130 NA
ATOM      4  N   UNL     1      -3.894   3.485   0.286  0.00  0.00    -0.122 NA
ATOM      5  C   UNL     1      -3.371   3.183   1.452  0.00  0.00    +0.197 A 
ENDROOT
BRANCH   1  10
ATOM      6  C   UNL     1      -3.606   3.296   8.041  0.00  0.00    +0.045 C 
ATOM      7  C   UNL     1      -3.771   3.392   6.546  0.00  0.00    -0.032 A 
ATOM      8  C   UNL     1      -2.879   4.140   5.800  0.00  0.00    +0.007 A 
ATOM      9  C   UNL     1      -3.027   4.229   4.429  0.00  0.00    +0.026 A 
ATOM     10  C   UNL     1      -4.073   3.567   3.800  0.00  0.00    +0.052 A 
ATOM     11  C   UNL     1      -4.970   2.822   4.552  0.00  0.00    +0.046 A 
ATOM     12  C   UNL     1      -4.814   2.731   5.922  0.00  0.00    +0.046 A 
ATOM     13 CL   UNL     1      -5.932   1.793   6.863  0.00  0.00    -0.083 Cl
ENDBRANCH   1  10
BRANCH   5  14
ATOM     14  S   UNL     1      -1.851   2.335   1.730  0.00  0.00    -0.078 S 
BRANCH  14  15
ATOM     15  C   UNL     1      -1.332   2.051   0.019  0.00  0.00    +0.153 C 
BRANCH  15  16
ATOM     16  C   UNL     1      -0.016   1.317   0.009  0.00  0.00    +0.146 A 
ATOM     17  N   UNL     1       1.117   1.997   0.002  0.00  0.00    -0.199 NA
ATOM     18  C   UNL     1       2.282   1.353  -0.012  0.00  0.00    +0.217 A 
ATOM     19  N   UNL     1       2.304   0.024  -0.020  0.00  0.00    -0.181 NA
ATOM     20  C   UNL     1       1.163  -0.656  -0.013  0.00  0.00    +0.217 A 
ATOM     21  N   UNL     1       0.002  -0.004   0.002  0.00  0.00    -0.199 NA
ATOM     22  N   UNL     1       1.180  -2.035  -0.021  0.00  0.00    -0.327 N 
ATOM     23  N   UNL     1       3.465   2.063  -0.020  0.00  0.00    -0.327 N 
ATOM     24  H   UNL     1       0.347  -2.531  -0.016  0.00  0.00    +0.145 HD
ATOM     25  H   UNL     1       2.027  -2.510  -0.031  0.00  0.00    +0.145 HD
ATOM     26  H   UNL     1       4.313   1.593  -0.031  0.00  0.00    +0.145 HD
ATOM     27  H   UNL     1       3.448   3.033  -0.015  0.00  0.00    +0.145 HD
ENDBRANCH  15  16
ENDBRANCH  14  15
ENDBRANCH   5  14
BRANCH   2  28
ATOM     28  C   UNL     1      -6.467   4.907   2.331  0.00  0.00    +0.305 C 
BRANCH  28  29
ATOM     29  O   UNL     1      -6.192   6.296   2.526  0.00  0.00    -0.484 OA
BRANCH  29  30
ATOM     30  C   UNL     1      -7.184   7.051   3.068  0.00  0.00    +0.121 A 
ATOM     31  C   UNL     1      -8.398   6.468   3.400  0.00  0.00    +0.049 A 
ATOM     32  C   UNL     1      -9.404   7.235   3.955  0.00  0.00    +0.049 A 
ATOM     33  C   UNL     1      -9.203   8.590   4.171  0.00  0.00    +0.120 A 
ATOM     34  C   UNL     1      -7.991   9.175   3.835  0.00  0.00    +0.049 A 
ATOM     35  C   UNL     1      -6.984   8.407   3.284  0.00  0.00    +0.049 A 
BRANCH  33  36
ATOM     36  O   UNL     1     -10.195   9.346   4.714  0.00  0.00    -0.495 OA
ATOM     37  C   UNL     1     -11.417   8.678   5.036  0.00  0.00    +0.277 C 
ENDBRANCH  33  36
ENDBRANCH  29  30
ENDBRANCH  28  29
ENDBRANCH   2  28
TORSDOF 8
