REMARK  Name = ZINC43225812
REMARK  11 active torsions:
REMARK  status: ('A' for Active; 'I' for Inactive)
REMARK    1  A    between atoms: C_1  and  C_2
REMARK    2  A    between atoms: C_3  and  C_33
REMARK    3  A    between atoms: C_5  and  C_19
REMARK    4  A    between atoms: N_6  and  C_7
REMARK    5  A    between atoms: C_7  and  C_9
REMARK    6  A    between atoms: C_7  and  C_10
REMARK    7  A    between atoms: N_15  and  C_18
REMARK    8  A    between atoms: C_25  and  C_31
REMARK    9  A    between atoms: C_25  and  C_32
REMARK   10  A    between atoms: C_28  and  C_29
REMARK   11  A    between atoms: C_28  and  C_30
REMARK                            x       y       z     vdW  Elec       q    Type
REMARK                         _______ _______ _______ _____ _____    ______ ____
ROOT
ATOM      1  C   UNL     1      -0.029   1.534   0.378  0.00  0.00    +0.064 C 
ATOM      2  C   UNL     1       0.138   0.049   0.191  0.00  0.00    +0.029 A 
ATOM      3  C   UNL     1       0.289  -0.602  -1.015  0.00  0.00    +0.058 A 
ATOM      4  C   UNL     1       0.413  -1.986  -0.726  0.00  0.00    +0.041 A 
ATOM      5  C   UNL     1       0.334  -2.119   0.623  0.00  0.00    +0.051 A 
ATOM      6  N   UNL     1       0.172  -0.872   1.175  0.00  0.00    -0.332 N 
ENDROOT
BRANCH   5   7
ATOM      7  C   UNL     1       0.414  -3.392   1.371  0.00  0.00    -0.001 A 
ATOM      8  C   UNL     1      -0.255  -3.536   2.588  0.00  0.00    +0.010 A 
ATOM      9  C   UNL     1      -0.169  -4.726   3.275  0.00  0.00    +0.005 A 
ATOM     10  C   UNL     1       0.575  -5.787   2.770  0.00  0.00    -0.038 A 
ATOM     11  C   UNL     1       1.233  -5.652   1.566  0.00  0.00    -0.037 A 
ATOM     12  C   UNL     1       1.152  -4.459   0.865  0.00  0.00    +0.014 A 
ATOM     13  C   UNL     1       2.042  -6.768   0.956  0.00  0.00    -0.010 C 
ATOM     14  C   UNL     1       2.382  -7.822   2.007  0.00  0.00    +0.012 C 
ATOM     15  C   UNL     1       1.088  -8.227   2.723  0.00  0.00    +0.012 C 
ATOM     16  C   UNL     1       0.626  -7.053   3.584  0.00  0.00    -0.010 C 
ATOM     17  C   UNL     1       1.603  -6.866   4.747  0.00  0.00    +0.016 C 
ATOM     18  C   UNL     1      -0.767  -7.353   4.139  0.00  0.00    +0.016 C 
ATOM     19  C   UNL     1       3.338  -6.194   0.380  0.00  0.00    +0.016 C 
ATOM     20  C   UNL     1       1.235  -7.419  -0.169  0.00  0.00    +0.016 C 
ENDBRANCH   5   7
BRANCH   3  21
ATOM     21  C   UNL     1       0.316   0.021  -2.350  0.00  0.00    +0.243 C 
ATOM     22  O   UNL     1       0.198   1.226  -2.461  0.00  0.00    -0.270 OA
ATOM     23  N   UNL     1       0.471  -0.745  -3.448  0.00  0.00    -0.325 N 
ATOM     24  H   UNL     1       0.565  -1.706  -3.359  0.00  0.00    +0.145 HD
ATOM     25  H   UNL     1       0.489  -0.335  -4.327  0.00  0.00    +0.145 HD
ENDBRANCH   3  21
BRANCH   6  26
ATOM     26  C   UNL     1       0.051  -0.588   2.607  0.00  0.00    +0.170 C 
ATOM     27  C   UNL     1       1.069   0.484   3.001  0.00  0.00    +0.041 C 
BRANCH  26  28
ATOM     28  C   UNL     1      -1.341  -0.094   2.905  0.00  0.00    +0.238 C 
ATOM     29  O   UNL     1      -2.029   0.355   2.013  0.00  0.00    -0.273 OA
ATOM     30  N   UNL     1      -1.821  -0.152   4.163  0.00  0.00    -0.297 N 
ATOM     31  C   UNL     1      -0.969  -0.594   5.277  0.00  0.00    +0.123 C 
ATOM     32  C   UNL     1      -1.053   0.448   6.398  0.00  0.00    +0.103 C 
ATOM     33  N   UNL     1      -2.462   0.675   6.746  0.00  0.00    -0.302 NA
ATOM     34  C   UNL     1      -3.208   1.235   5.611  0.00  0.00    +0.103 C 
ATOM     35  C   UNL     1      -3.210   0.232   4.459  0.00  0.00    +0.123 C 
ATOM     36  C   UNL     1      -2.580   1.536   7.930  0.00  0.00    +0.105 C 
ENDBRANCH  26  28
ENDBRANCH   6  26
TORSDOF 4
