REMARK  Name = ZINC58723960
REMARK  8 active torsions:
REMARK  status: ('A' for Active; 'I' for Inactive)
REMARK    1  A    between atoms: C_1  and  C_2
REMARK    2  A    between atoms: C_2  and  C_4
REMARK    3  A    between atoms: C_2  and  N_14
REMARK    4  A    between atoms: N_6  and  C_7
REMARK    5  A    between atoms: N_14  and  C_15
REMARK    6  A    between atoms: C_18  and  O_21
REMARK    7  A    between atoms: O_21  and  C_22
REMARK    8  A    between atoms: C_22  and  C_23
REMARK                            x       y       z     vdW  Elec       q    Type
REMARK                         _______ _______ _______ _____ _____    ______ ____
ROOT
ATOM      1  N   UNL     1       0.689  -0.474  -1.203  0.00  0.00    -0.333 N 
ATOM      2  H   UNL     1       1.632  -0.699  -1.169  0.00  0.00    +0.147 HD
ENDROOT
BRANCH   1   3
ATOM      3  C   UNL     1      -0.018  -0.603  -2.404  0.00  0.00    +0.028 A 
ATOM      4  C   UNL     1      -1.367  -0.276  -2.454  0.00  0.00    +0.026 A 
ATOM      5  C   UNL     1      -2.064  -0.403  -3.639  0.00  0.00    +0.047 A 
ATOM      6  C   UNL     1      -1.418  -0.859  -4.779  0.00  0.00    +0.121 A 
ATOM      7  C   UNL     1      -0.071  -1.186  -4.729  0.00  0.00    +0.047 A 
ATOM      8  C   UNL     1       0.629  -1.054  -3.546  0.00  0.00    +0.026 A 
BRANCH   6   9
ATOM      9  O   UNL     1      -2.105  -0.984  -5.946  0.00  0.00    -0.483 OA
BRANCH   9  10
ATOM     10  C   UNL     1      -1.377  -1.459  -7.080  0.00  0.00    +0.324 C 
BRANCH  10  11
ATOM     11  C   UNL     1      -2.296  -1.532  -8.272  0.00  0.00    +0.248 C 
ATOM     12  O   UNL     1      -3.460  -1.210  -8.161  0.00  0.00    -0.272 OA
ATOM     13  N   UNL     1      -1.825  -1.956  -9.461  0.00  0.00    -0.327 N 
ATOM     14  H   UNL     1      -0.894  -2.214  -9.550  0.00  0.00    +0.145 HD
ATOM     15  H   UNL     1      -2.416  -2.003 -10.229  0.00  0.00    +0.145 HD
ENDBRANCH  10  11
ENDBRANCH   9  10
ENDBRANCH   6   9
ENDBRANCH   1   3
BRANCH   1  17
ATOM     16  C   UNL     1      -0.004   1.532   0.013  0.00  0.00    +0.038 C 
ATOM     17  C   UNL     1       0.006   0.002   0.002  0.00  0.00    +0.154 C 
BRANCH  17  18
ATOM     18  C   UNL     1       0.730  -0.505   1.223  0.00  0.00    +0.237 C 
ATOM     19  O   UNL     1       1.719  -1.195   1.098  0.00  0.00    -0.273 OA
ATOM     20  N   UNL     1       0.278  -0.191   2.453  0.00  0.00    -0.284 N 
ATOM     21  H   UNL     1      -0.473   0.415   2.554  0.00  0.00    +0.155 HD
BRANCH  20  22
ATOM     22  C   UNL     1       0.891  -0.739   3.585  0.00  0.00    +0.034 A 
ATOM     23  C   UNL     1       0.130  -1.065   4.700  0.00  0.00    +0.024 A 
ATOM     24  C   UNL     1       0.738  -1.607   5.815  0.00  0.00    +0.017 A 
ATOM     25  C   UNL     1       2.105  -1.824   5.823  0.00  0.00    +0.018 A 
ATOM     26  C   UNL     1       2.865  -1.500   4.714  0.00  0.00    +0.017 A 
ATOM     27  C   UNL     1       2.262  -0.963   3.594  0.00  0.00    +0.024 A 
ATOM     28 BR   UNL     1       2.934  -2.565   7.353  0.00  0.00    -0.050 Br
ENDBRANCH  20  22
ENDBRANCH  17  18
ENDBRANCH   1  17
TORSDOF 7
