REMARK  Name = ZINC22148913
REMARK  6 active torsions:
REMARK  status: ('A' for Active; 'I' for Inactive)
REMARK    1  A    between atoms: C_1  and  C_2
REMARK    2  A    between atoms: C_6  and  C_19
REMARK    3  A    between atoms: C_7  and  N_8
REMARK    4  A    between atoms: N_8  and  S_9
REMARK    5  A    between atoms: S_9  and  C_12
REMARK    6  A    between atoms: C_17  and  N_18
REMARK                            x       y       z     vdW  Elec       q    Type
REMARK                         _______ _______ _______ _____ _____    ______ ____
ROOT
ATOM      1  S   UNL     1       2.473   5.412  -0.383  0.00  0.00    +0.074 S 
ATOM      2  O   UNL     1       1.716   6.082   0.615  0.00  0.00    -0.150 OA
ATOM      3  O   UNL     1       3.849   5.686  -0.608  0.00  0.00    -0.150 OA
ENDROOT
BRANCH   1   4
ATOM      4  C   UNL     1       1.647   5.691  -1.914  0.00  0.00    +0.129 A 
ATOM      5  C   UNL     1       0.504   6.467  -1.952  0.00  0.00    +0.031 A 
ATOM      6  C   UNL     1      -0.142   6.691  -3.153  0.00  0.00    +0.002 A 
ATOM      7  C   UNL     1       0.347   6.131  -4.320  0.00  0.00    +0.002 A 
ATOM      8  C   UNL     1       1.485   5.350  -4.288  0.00  0.00    +0.025 A 
ATOM      9  C   UNL     1       2.140   5.128  -3.083  0.00  0.00    +0.052 A 
BRANCH   9  10
ATOM     10  N   UNL     1       3.292   4.338  -3.048  0.00  0.00    -0.356 N 
ATOM     11  H   UNL     1       3.682   3.892  -3.975  0.00  0.00    +0.142 HD
ATOM     12  H   UNL     1       3.809   4.162  -2.094  0.00  0.00    +0.142 HD
ENDBRANCH   9  10
ENDBRANCH   1   4
BRANCH   1  13
ATOM     13  N   UNL     1       2.360   3.793  -0.054  0.00  0.00    -0.216 N 
ATOM     14  H   UNL     1       3.265   3.167  -0.058  0.00  0.00    +0.174 HD
BRANCH  13  21
ATOM     15  C   UNL     1       1.257   1.979  -1.948  0.00  0.00    +0.046 C 
ATOM     16  C   UNL     1       0.540   2.332  -0.670  0.00  0.00    -0.027 A 
ATOM     17  C   UNL     1      -0.689   1.769  -0.389  0.00  0.00    +0.020 A 
ATOM     18  C   UNL     1      -1.350   2.096   0.782  0.00  0.00    +0.018 A 
ATOM     19  C   UNL     1      -0.776   2.978   1.680  0.00  0.00    +0.020 A 
ATOM     20  C   UNL     1       0.454   3.544   1.405  0.00  0.00    -0.027 A 
ATOM     21  C   UNL     1       1.117   3.222   0.227  0.00  0.00    +0.054 A 
ATOM     22  C   UNL     1       1.075   4.510   2.380  0.00  0.00    +0.046 C 
ATOM     23 BR   UNL     1      -3.037   1.329   1.160  0.00  0.00    -0.050 Br
ENDBRANCH  13  21
ENDBRANCH   1  13
TORSDOF 4
