REMARK  Name = ZINC06647793
REMARK  8 active torsions:
REMARK  status: ('A' for Active; 'I' for Inactive)
REMARK    1  A    between atoms: C_1  and  C_2
REMARK    2  A    between atoms: C_2  and  C_3
REMARK    3  A    between atoms: C_2  and  N_4
REMARK    4  A    between atoms: C_5  and  C_7
REMARK    5  A    between atoms: C_7  and  S_8
REMARK    6  A    between atoms: S_8  and  C_9
REMARK    7  A    between atoms: C_12  and  C_15
REMARK    8  A    between atoms: N_13  and  N_14
REMARK                            x       y       z     vdW  Elec       q    Type
REMARK                         _______ _______ _______ _____ _____    ______ ____
ROOT
ATOM      1  C   UNL     1       2.845   9.146   0.028  0.00  0.00    +0.209 A 
ATOM      2  N   UNL     1       1.558   9.409   0.042  0.00  0.00    -0.121 NA
ATOM      3  N   UNL     1       0.883   8.315   0.042  0.00  0.00    -0.126 NA
ATOM      4  C   UNL     1       1.699   7.284   0.027  0.00  0.00    +0.190 A 
ATOM      5  N   UNL     1       2.982   7.786   0.024  0.00  0.00    -0.223 N 
ENDROOT
BRANCH   4   6
ATOM      6  C   UNL     1       1.315   5.864   0.022  0.00  0.00    +0.077 A 
ATOM      7  C   UNL     1       0.067   5.329   0.031  0.00  0.00    +0.066 A 
ATOM      8  C   UNL     1      -0.080   3.885   0.024  0.00  0.00    +0.008 A 
ATOM      9  C   UNL     1      -1.271   3.117   0.031  0.00  0.00    +0.010 A 
ATOM     10  C   UNL     1      -1.222   1.759   0.017  0.00  0.00    +0.001 A 
ATOM     11  C   UNL     1      -0.013   1.076   0.008  0.00  0.00    +0.001 A 
ATOM     12  C   UNL     1       1.171   1.787   0.001  0.00  0.00    +0.016 A 
ATOM     13  C   UNL     1       1.136   3.165   0.008  0.00  0.00    +0.021 A 
ATOM     14  S   UNL     1       2.378   4.432   0.004  0.00  0.00    -0.084 S 
ATOM     15 CL   UNL     1      -1.332   6.357   0.049  0.00  0.00    -0.082 Cl
ENDBRANCH   4   6
BRANCH   5  16
ATOM     16  N   UNL     1       4.147   7.074   0.015  0.00  0.00    -0.295 N 
ATOM     17  H   UNL     1       4.452   6.889  -0.929  0.00  0.00    +0.163 HD
ATOM     18  H   UNL     1       4.866   7.549   0.540  0.00  0.00    +0.163 HD
ENDBRANCH   5  16
BRANCH   1  19
ATOM     19  S   UNL     1       4.153  10.327   0.023  0.00  0.00    -0.075 S 
BRANCH  19  20
ATOM     20  C   UNL     1       3.191  11.860   0.042  0.00  0.00    +0.173 C 
BRANCH  20  22
ATOM     21  N   UNL     1       3.632  14.294   0.054  0.00  0.00    -0.312 N 
ATOM     22  C   UNL     1       4.128  13.041   0.041  0.00  0.00    +0.224 C 
ATOM     23  O   UNL     1       5.327  12.863   0.029  0.00  0.00    -0.275 OA
ATOM     24  H   UNL     1       2.673  14.436   0.064  0.00  0.00    +0.149 HD
BRANCH  21  26
ATOM     25  C   UNL     1       4.945  15.773  -1.385  0.00  0.00    +0.027 C 
ATOM     26  C   UNL     1       4.543  15.442   0.053  0.00  0.00    +0.067 C 
ATOM     27  C   UNL     1       3.841  16.650   0.677  0.00  0.00    +0.027 C 
ENDBRANCH  21  26
ENDBRANCH  20  22
ENDBRANCH  19  20
ENDBRANCH   1  19
TORSDOF 6
