REMARK  Name = ZINC16671505
REMARK  6 active torsions:
REMARK  status: ('A' for Active; 'I' for Inactive)
REMARK    1  A    between atoms: C_4  and  N_7
REMARK    2  A    between atoms: N_10  and  C_11
REMARK    3  A    between atoms: C_14  and  S_17
REMARK    4  A    between atoms: S_17  and  C_20
REMARK    5  A    between atoms: C_23  and  N_26
REMARK    6  A    between atoms: N_29  and  C_30
REMARK                            x       y       z     vdW  Elec       q    Type
REMARK                         _______ _______ _______ _____ _____    ______ ____
ROOT
ATOM      1  S   UNL     1      -0.769   5.187   2.063  0.00  0.00    +0.025 S 
ATOM      2  O   UNL     1       0.370   5.844   1.525  0.00  0.00    -0.164 OA
ATOM      3  O   UNL     1      -2.089   5.678   1.878  0.00  0.00    -0.164 OA
ENDROOT
BRANCH   1   7
ATOM      4  C   UNL     1      -0.718   0.963   0.429  0.00  0.00    +0.035 A 
ATOM      5  C   UNL     1      -1.913   1.532   0.851  0.00  0.00    +0.025 A 
ATOM      6  C   UNL     1      -1.925   2.820   1.349  0.00  0.00    +0.029 A 
ATOM      7  C   UNL     1      -0.749   3.544   1.427  0.00  0.00    +0.094 A 
ATOM      8  C   UNL     1       0.442   2.980   1.008  0.00  0.00    +0.029 A 
ATOM      9  C   UNL     1       0.461   1.692   0.510  0.00  0.00    +0.025 A 
BRANCH   4  13
ATOM     10  N   UNL     1      -1.789  -2.096  -1.166  0.00  0.00    -0.269 N 
ATOM     11  C   UNL     1      -1.759  -0.808  -0.770  0.00  0.00    +0.308 C 
ATOM     12  O   UNL     1      -2.685  -0.068  -1.038  0.00  0.00    -0.252 OA
ATOM     13  N   UNL     1      -0.702  -0.342  -0.076  0.00  0.00    -0.269 N 
ATOM     14  H   UNL     1      -1.088  -2.705  -0.889  0.00  0.00    +0.156 HD
ATOM     15  H   UNL     1       0.069  -0.910   0.074  0.00  0.00    +0.156 HD
BRANCH  10  19
ATOM     16  C   UNL     1      -4.896  -3.459  -3.584  0.00  0.00    +0.000 A 
ATOM     17  C   UNL     1      -4.441  -2.160  -3.713  0.00  0.00    +0.002 A 
ATOM     18  C   UNL     1      -3.411  -1.705  -2.913  0.00  0.00    +0.023 A 
ATOM     19  C   UNL     1      -2.833  -2.554  -1.978  0.00  0.00    +0.035 A 
ATOM     20  C   UNL     1      -3.290  -3.859  -1.855  0.00  0.00    +0.023 A 
ATOM     21  C   UNL     1      -4.323  -4.307  -2.654  0.00  0.00    +0.002 A 
ENDBRANCH  10  19
ENDBRANCH   4  13
ENDBRANCH   1   7
BRANCH   1  22
ATOM     22  C   UNL     1      -0.511   5.076   3.802  0.00  0.00    +0.094 A 
ATOM     23  C   UNL     1      -1.595   4.958   4.654  0.00  0.00    +0.029 A 
ATOM     24  C   UNL     1      -1.396   4.866   6.018  0.00  0.00    +0.025 A 
ATOM     25  C   UNL     1      -0.107   4.903   6.534  0.00  0.00    +0.035 A 
ATOM     26  C   UNL     1       0.978   5.026   5.677  0.00  0.00    +0.025 A 
ATOM     27  C   UNL     1       0.773   5.113   4.314  0.00  0.00    +0.029 A 
BRANCH  25  28
ATOM     28  N   UNL     1       0.097   4.816   7.916  0.00  0.00    -0.269 N 
ATOM     29  C   UNL     1       1.126   5.472   8.487  0.00  0.00    +0.308 C 
ATOM     30  O   UNL     1       1.819   6.216   7.820  0.00  0.00    -0.252 OA
ATOM     31  N   UNL     1       1.388   5.303   9.799  0.00  0.00    -0.269 N 
ATOM     32  H   UNL     1      -0.502   4.283   8.462  0.00  0.00    +0.156 HD
ATOM     33  H   UNL     1       0.885   4.653  10.314  0.00  0.00    +0.156 HD
BRANCH  31  34
ATOM     34  C   UNL     1       2.384   6.067  10.417  0.00  0.00    +0.035 A 
ATOM     35  C   UNL     1       3.130   5.527  11.457  0.00  0.00    +0.023 A 
ATOM     36  C   UNL     1       4.115   6.282  12.062  0.00  0.00    +0.002 A 
ATOM     37  C   UNL     1       4.353   7.577  11.641  0.00  0.00    +0.000 A 
ATOM     38  C   UNL     1       3.608   8.120  10.610  0.00  0.00    +0.002 A 
ATOM     39  C   UNL     1       2.625   7.368   9.997  0.00  0.00    +0.023 A 
ENDBRANCH  31  34
ENDBRANCH  25  28
ENDBRANCH   1  22
TORSDOF 6
