REMARK  Name = ZINC00804041
REMARK  7 active torsions:
REMARK  status: ('A' for Active; 'I' for Inactive)
REMARK    1  A    between atoms: C_1  and  C_2
REMARK    2  A    between atoms: C_5  and  S_8
REMARK    3  A    between atoms: S_8  and  C_9
REMARK    4  A    between atoms: C_9  and  C_10
REMARK    5  A    between atoms: C_17  and  N_29
REMARK    6  A    between atoms: C_18  and  C_27
REMARK    7  A    between atoms: C_19  and  C_21
REMARK                            x       y       z     vdW  Elec       q    Type
REMARK                         _______ _______ _______ _____ _____    ______ ____
ROOT
ATOM      1  C   UNL     1       0.113  -6.644   1.815  0.00  0.00    +0.054 A 
ATOM      2  C   UNL     1      -0.998  -7.367   2.018  0.00  0.00    +0.046 A 
ATOM      3  C   UNL     1      -0.625  -8.725   2.124  0.00  0.00    +0.244 A 
ATOM      4  N   UNL     1       0.667  -8.799   1.986  0.00  0.00    -0.135 NA
ATOM      5  N   UNL     1       1.160  -7.500   1.784  0.00  0.00    -0.277 N 
ATOM      6  H   UNL     1       2.090  -7.259   1.649  0.00  0.00    +0.189 HD
ATOM      7  O   UNL     1      -1.538  -9.710   2.337  0.00  0.00    -0.422 OA
ATOM      8  C   UNL     1      -2.777  -9.336   2.714  0.00  0.00    +0.200 C 
ATOM      9  C   UNL     1      -3.249  -8.074   2.646  0.00  0.00    +0.094 C 
ATOM     10  C   UNL     1      -2.432  -6.917   2.129  0.00  0.00    +0.075 C 
ENDROOT
BRANCH  10  11
ATOM     11  C   UNL     1      -2.950  -6.496   0.752  0.00  0.00    +0.002 C 
ATOM     12  C   UNL     1      -4.351  -5.899   0.894  0.00  0.00    +0.004 C 
ATOM     13  C   UNL     1      -4.868  -5.478  -0.483  0.00  0.00    +0.000 C 
ATOM     14  C   UNL     1      -4.926  -6.700  -1.402  0.00  0.00    +0.000 C 
ATOM     15  C   UNL     1      -3.525  -7.298  -1.544  0.00  0.00    +0.000 C 
ATOM     16  C   UNL     1      -3.007  -7.718  -0.167  0.00  0.00    +0.004 C 
ENDBRANCH  10  11
BRANCH   8  17
ATOM     17  N   UNL     1      -3.617 -10.307   3.200  0.00  0.00    -0.328 N 
ATOM     18  H   UNL     1      -3.312 -11.226   3.263  0.00  0.00    +0.145 HD
ATOM     19  H   UNL     1      -4.516 -10.075   3.481  0.00  0.00    +0.145 HD
ENDBRANCH   8  17
BRANCH   9  20
ATOM     20  C   UNL     1      -4.588  -7.821   3.087  0.00  0.00    +0.100 C 
ATOM     21  N   UNL     1      -5.650  -7.621   3.436  0.00  0.00    -0.191 NA
ENDBRANCH   9  20
BRANCH   1  22
ATOM     22  C   UNL     1       0.182  -5.148   1.644  0.00  0.00    +0.129 C 
BRANCH  22  23
ATOM     23  S   UNL     1       0.181  -4.740  -0.123  0.00  0.00    -0.119 S 
BRANCH  23  28
ATOM     24  C   UNL     1       0.463   1.288  -0.231  0.00  0.00    +0.044 C 
ATOM     25  C   UNL     1       0.393  -0.217  -0.204  0.00  0.00    -0.050 A 
ATOM     26  C   UNL     1       0.346  -0.926  -1.390  0.00  0.00    +0.004 A 
ATOM     27  C   UNL     1       0.281  -2.306  -1.369  0.00  0.00    +0.015 A 
ATOM     28  C   UNL     1       0.264  -2.981  -0.155  0.00  0.00    +0.008 A 
ATOM     29  C   UNL     1       0.311  -2.264   1.035  0.00  0.00    +0.015 A 
ATOM     30  C   UNL     1       0.381  -0.885   1.007  0.00  0.00    +0.004 A 
ENDBRANCH  23  28
ENDBRANCH  22  23
ENDBRANCH   1  22
TORSDOF 6
