REMARK  Name = ZINC37446515
REMARK  7 active torsions:
REMARK  status: ('A' for Active; 'I' for Inactive)
REMARK    1  A    between atoms: C_1  and  C_2
REMARK    2  A    between atoms: C_2  and  C_3
REMARK    3  A    between atoms: C_2  and  N_4
REMARK    4  A    between atoms: N_4  and  C_5
REMARK    5  A    between atoms: C_5  and  C_6
REMARK    6  A    between atoms: C_5  and  C_7
REMARK    7  A    between atoms: C_5  and  C_17
REMARK                            x       y       z     vdW  Elec       q    Type
REMARK                         _______ _______ _______ _____ _____    ______ ____
ROOT
ATOM      1  C   UNL     1      -1.860  -1.319   0.530  0.00  0.00    +0.066 C 
ATOM      2  C   UNL     1      -1.648  -2.487  -0.435  0.00  0.00    +0.008 C 
ENDROOT
BRANCH   1   3
ATOM      3  C   UNL     1      -3.336  -1.054   0.681  0.00  0.00    +0.104 A 
ATOM      4  C   UNL     1      -4.231  -1.937   1.145  0.00  0.00    +0.052 A 
ATOM      5  C   UNL     1      -5.530  -1.255   1.119  0.00  0.00    +0.021 A 
ATOM      6  C   UNL     1      -6.830  -1.622   1.466  0.00  0.00    +0.027 A 
ATOM      7  C   UNL     1      -7.856  -0.715   1.314  0.00  0.00    +0.019 A 
ATOM      8  C   UNL     1      -7.599   0.556   0.818  0.00  0.00    +0.019 A 
ATOM      9  C   UNL     1      -6.319   0.930   0.471  0.00  0.00    +0.048 A 
ATOM     10  C   UNL     1      -5.270   0.030   0.617  0.00  0.00    +0.135 A 
ATOM     11  O   UNL     1      -3.945   0.105   0.376  0.00  0.00    -0.461 OA
ATOM     12 BR   UNL     1      -9.622  -1.204   1.783  0.00  0.00    -0.050 Br
ENDBRANCH   1   3
BRANCH   1  13
ATOM     13  C   UNL     1      -1.272  -1.664   1.874  0.00  0.00    +0.207 C 
ATOM     14  O   UNL     1      -1.007  -2.817   2.142  0.00  0.00    -0.277 OA
ATOM     15  N   UNL     1      -1.040  -0.692   2.778  0.00  0.00    -0.330 N 
ATOM     16  H   UNL     1      -1.252   0.230   2.564  0.00  0.00    +0.145 HD
ATOM     17  H   UNL     1      -0.661  -0.914   3.643  0.00  0.00    +0.145 HD
ENDBRANCH   1  13
BRANCH   1  18
ATOM     18  N   UNL     1      -1.199  -0.119  -0.000  0.00  0.00    +0.395 N 
ATOM     19  H   UNL     1      -1.240   0.619   0.686  0.00  0.00    -0.083 HD
ATOM     20  H   UNL     1      -1.668   0.178  -0.843  0.00  0.00    -0.083 HD
BRANCH  18  22
ATOM     21  C   UNL     1       0.842   0.759  -1.029  0.00  0.00    -0.014 C 
ATOM     22  C   UNL     1       0.205  -0.428  -0.304  0.00  0.00    -0.076 C 
ATOM     23  C   UNL     1       0.961  -0.696   0.999  0.00  0.00    -0.014 C 
ENDBRANCH  18  22
ENDBRANCH   1  18
TORSDOF 4
