REMARK  Name = ZINC02948768
REMARK  10 active torsions:
REMARK  status: ('A' for Active; 'I' for Inactive)
REMARK    1  A    between atoms: C_1  and  O_2
REMARK    2  A    between atoms: O_2  and  C_3
REMARK    3  A    between atoms: C_6  and  C_11
REMARK    4  A    between atoms: C_8  and  O_9
REMARK    5  A    between atoms: O_9  and  C_10
REMARK    6  A    between atoms: C_11  and  C_12
REMARK    7  A    between atoms: C_12  and  N_13
REMARK    8  A    between atoms: C_22  and  S_24
REMARK    9  A    between atoms: S_24  and  C_25
REMARK   10  A    between atoms: C_25  and  C_26
REMARK                            x       y       z     vdW  Elec       q    Type
REMARK                         _______ _______ _______ _____ _____    ______ ____
ROOT
ATOM      1  N   UNL     1      -7.541  -4.548   3.330  0.00  0.00    -0.328 N 
ATOM      2  C   UNL     1      -6.679  -4.384   2.268  0.00  0.00    +0.131 A 
ATOM      3  C   UNL     1      -6.983  -4.929   0.994  0.00  0.00    +0.040 A 
ATOM      4  C   UNL     1      -8.158  -5.650   0.757  0.00  0.00    +0.013 A 
ATOM      5  C   UNL     1      -8.399  -6.152  -0.488  0.00  0.00    +0.001 A 
ATOM      6  C   UNL     1      -7.493  -5.956  -1.526  0.00  0.00    +0.002 A 
ATOM      7  C   UNL     1      -6.338  -5.258  -1.327  0.00  0.00    +0.028 A 
ATOM      8  C   UNL     1      -6.059  -4.729  -0.060  0.00  0.00    +0.077 A 
ATOM      9  N   UNL     1      -4.941  -4.029   0.186  0.00  0.00    -0.222 NA
ATOM     10  C   UNL     1      -4.705  -3.548   1.392  0.00  0.00    +0.191 A 
ATOM     11  N   UNL     1      -5.546  -3.713   2.410  0.00  0.00    -0.206 NA
ATOM     12  H   UNL     1      -8.368  -5.042   3.212  0.00  0.00    +0.147 HD
ENDROOT
BRANCH   1  13
ATOM     13  C   UNL     1      -7.209  -3.978   4.638  0.00  0.00    +0.107 C 
BRANCH  13  14
ATOM     14  C   UNL     1      -8.324  -4.302   5.634  0.00  0.00    +0.054 C 
BRANCH  14  18
ATOM     15  C   UNL     1      -7.351  -2.641   9.453  0.00  0.00    +0.161 A 
ATOM     16  C   UNL     1      -6.947  -3.927   9.130  0.00  0.00    +0.049 A 
ATOM     17  C   UNL     1      -7.268  -4.463   7.897  0.00  0.00    +0.007 A 
ATOM     18  C   UNL     1      -7.982  -3.715   6.979  0.00  0.00    -0.042 A 
ATOM     19  C   UNL     1      -8.389  -2.432   7.295  0.00  0.00    +0.053 A 
ATOM     20  C   UNL     1      -8.075  -1.891   8.532  0.00  0.00    +0.162 A 
BRANCH  15  22
ATOM     21  C   UNL     1      -6.295  -2.942  11.563  0.00  0.00    +0.277 C 
ATOM     22  O   UNL     1      -7.041  -2.114  10.668  0.00  0.00    -0.491 OA
ENDBRANCH  15  22
BRANCH  20  23
ATOM     23  O   UNL     1      -8.473  -0.628   8.844  0.00  0.00    -0.491 OA
ATOM     24  C   UNL     1      -9.213   0.084   7.849  0.00  0.00    +0.277 C 
ENDBRANCH  20  23
ENDBRANCH  14  18
ENDBRANCH  13  14
ENDBRANCH   1  13
BRANCH  10  25
ATOM     25  S   UNL     1      -3.218  -2.643   1.664  0.00  0.00    -0.080 S 
BRANCH  25  26
ATOM     26  C   UNL     1      -2.490  -2.729   0.008  0.00  0.00    +0.133 C 
BRANCH  26  27
ATOM     27  C   UNL     1      -1.171  -2.000   0.001  0.00  0.00    +0.059 A 
ATOM     28  C   UNL     1       0.011  -2.713  -0.013  0.00  0.00    +0.094 A 
ATOM     29  C   UNL     1       1.224  -2.014  -0.019  0.00  0.00    +0.259 A 
ATOM     30  O   UNL     1       2.286  -2.615  -0.031  0.00  0.00    -0.267 OA
ATOM     31  N   UNL     1       1.199  -0.664  -0.012  0.00  0.00    -0.268 N 
ATOM     32  C   UNL     1       2.371   0.031  -0.018  0.00  0.00    +0.096 A 
ATOM     33  C   UNL     1       2.372   1.383  -0.011  0.00  0.00    +0.018 A 
ATOM     34  C   UNL     1       1.161   2.089   0.002  0.00  0.00    +0.005 A 
ATOM     35  C   UNL     1      -0.017   1.403   0.010  0.00  0.00    +0.047 A 
ATOM     36  C   UNL     1       0.002  -0.004   0.002  0.00  0.00    +0.140 A 
ATOM     37  N   UNL     1      -1.148  -0.676   0.009  0.00  0.00    -0.233 NA
ENDBRANCH  26  27
ENDBRANCH  25  26
ENDBRANCH  10  25
TORSDOF 8
