REMARK  Name = ZINC65382058
REMARK  6 active torsions:
REMARK  status: ('A' for Active; 'I' for Inactive)
REMARK    1  A    between atoms: C_1  and  C_2
REMARK    2  A    between atoms: C_7  and  N_8
REMARK    3  A    between atoms: C_9  and  C_17
REMARK    4  A    between atoms: C_12  and  C_14
REMARK    5  A    between atoms: C_14  and  C_15
REMARK    6  A    between atoms: C_14  and  C_16
REMARK                            x       y       z     vdW  Elec       q    Type
REMARK                         _______ _______ _______ _____ _____    ______ ____
ROOT
ATOM      1  N   UNL     1       0.235  -0.028   2.394  0.00  0.00    -0.180 N 
ATOM      2  C   UNL     1       0.481  -0.608   3.726  0.00  0.00    +0.216 C 
ATOM      3  N   UNL     1       0.498   0.563   4.620  0.00  0.00    -0.308 N 
ATOM      4  C   UNL     1       0.278   1.672   3.822  0.00  0.00    +0.118 C 
ATOM      5  N   UNL     1       0.136   1.355   2.586  0.00  0.00    -0.165 NA
ATOM      6  H   UNL     1       0.637   0.558   5.580  0.00  0.00    +0.149 HD
ENDROOT
BRANCH   2   7
ATOM      7  C   UNL     1       1.809  -1.320   3.756  0.00  0.00    +0.007 A 
ATOM      8  C   UNL     1       2.687  -1.193   2.731  0.00  0.00    +0.077 A 
ATOM      9  C   UNL     1       3.927  -1.865   2.769  0.00  0.00    +0.250 A 
ATOM     10  O   UNL     1       4.701  -1.737   1.836  0.00  0.00    -0.268 OA
ATOM     11  N   UNL     1       4.276  -2.643   3.809  0.00  0.00    -0.322 N 
ATOM     12  H   UNL     1       5.137  -3.090   3.803  0.00  0.00    +0.169 HD
ATOM     13  C   UNL     1       3.429  -2.813   4.884  0.00  0.00    +0.050 A 
ATOM     14  C   UNL     1       2.182  -2.160   4.896  0.00  0.00    +0.008 A 
ATOM     15  C   UNL     1       1.319  -2.324   5.985  0.00  0.00    +0.048 A 
ATOM     16  C   UNL     1       1.702  -3.122   7.042  0.00  0.00    +0.124 A 
ATOM     17  C   UNL     1       2.937  -3.761   7.029  0.00  0.00    +0.040 A 
ATOM     18  C   UNL     1       3.792  -3.617   5.959  0.00  0.00    +0.029 A 
ATOM     19  F   UNL     1       0.873  -3.284   8.096  0.00  0.00    -0.205 F 
ENDBRANCH   2   7
BRANCH   1  26
ATOM     20  C   UNL     1      -0.502   1.454   0.080  0.00  0.00    +0.047 C 
ATOM     21  C   UNL     1      -0.230  -0.027   0.035  0.00  0.00    -0.009 A 
ATOM     22  C   UNL     1      -0.328  -0.722  -1.156  0.00  0.00    +0.008 A 
ATOM     23  C   UNL     1      -0.069  -2.087  -1.151  0.00  0.00    +0.020 A 
ATOM     24  C   UNL     1       0.276  -2.706   0.034  0.00  0.00    +0.113 A 
ATOM     25  N   UNL     1       0.361  -2.018   1.157  0.00  0.00    -0.238 NA
ATOM     26  C   UNL     1       0.128  -0.714   1.192  0.00  0.00    +0.146 A 
ENDBRANCH   1  26
BRANCH   4  27
ATOM     27  C   UNL     1       0.218   3.085   4.341  0.00  0.00    +0.048 C 
ATOM     28  C   UNL     1       0.583   4.058   3.218  0.00  0.00    +0.015 C 
ATOM     29  C   UNL     1      -1.198   3.386   4.837  0.00  0.00    +0.015 C 
ENDBRANCH   4  27
TORSDOF 3
