REMARK  Name = ZINC60861534
REMARK  7 active torsions:
REMARK  status: ('A' for Active; 'I' for Inactive)
REMARK    1  A    between atoms: C_1  and  C_2
REMARK    2  A    between atoms: C_2  and  C_3
REMARK    3  A    between atoms: C_2  and  C_4
REMARK    4  A    between atoms: C_4  and  N_5
REMARK    5  A    between atoms: C_9  and  N_10
REMARK    6  A    between atoms: N_10  and  C_11
REMARK    7  A    between atoms: C_16  and  C_17
REMARK                            x       y       z     vdW  Elec       q    Type
REMARK                         _______ _______ _______ _____ _____    ______ ____
ROOT
ATOM      1  N   UNL     1       2.121  -0.045  -1.118  0.00  0.00    -0.249 N 
ATOM      2  C   UNL     1       2.479   1.140  -1.654  0.00  0.00    +0.258 C 
ATOM      3  O   UNL     1       1.653   1.866  -2.174  0.00  0.00    -0.269 OA
ATOM      4  C   UNL     1       3.899   1.532  -1.591  0.00  0.00    +0.113 C 
ATOM      5  C   UNL     1       4.340   2.731  -2.118  0.00  0.00    +0.090 C 
ATOM      6  C   UNL     1       4.828   0.589  -0.942  0.00  0.00    +0.256 C 
ATOM      7  O   UNL     1       6.014   0.843  -0.851  0.00  0.00    -0.270 OA
ATOM      8  N   UNL     1       4.326  -0.562  -0.450  0.00  0.00    -0.263 N 
ATOM      9  C   UNL     1       3.020  -0.852  -0.537  0.00  0.00    +0.146 C 
ATOM     10  S   UNL     1       2.473  -2.334   0.122  0.00  0.00    -0.018 S 
ATOM     11  H   UNL     1       4.924  -1.194  -0.019  0.00  0.00    +0.157 HD
ENDROOT
BRANCH   5  12
ATOM     12  N   UNL     1       3.489   3.517  -2.812  0.00  0.00    -0.319 N 
ATOM     13  H   UNL     1       2.551   3.279  -2.875  0.00  0.00    +0.152 HD
BRANCH  12  14
ATOM     14  C   UNL     1       3.958   4.668  -3.437  0.00  0.00    +0.043 A 
ATOM     15  C   UNL     1       5.319   4.945  -3.459  0.00  0.00    +0.024 A 
ATOM     16  C   UNL     1       5.782   6.088  -4.080  0.00  0.00    +0.002 A 
ATOM     17  C   UNL     1       4.897   6.966  -4.684  0.00  0.00    +0.001 A 
ATOM     18  C   UNL     1       3.543   6.707  -4.673  0.00  0.00    +0.015 A 
ATOM     19  C   UNL     1       3.060   5.552  -4.054  0.00  0.00    +0.058 A 
BRANCH  19  20
ATOM     20  C   UNL     1       1.613   5.266  -4.043  0.00  0.00    +0.243 C 
ATOM     21  O   UNL     1       1.205   4.210  -3.601  0.00  0.00    -0.270 OA
ATOM     22  N   UNL     1       0.743   6.176  -4.524  0.00  0.00    -0.325 N 
ATOM     23  H   UNL     1       1.068   7.019  -4.878  0.00  0.00    +0.145 HD
ATOM     24  H   UNL     1      -0.209   5.988  -4.518  0.00  0.00    +0.145 HD
ENDBRANCH  19  20
ENDBRANCH  12  14
ENDBRANCH   5  12
BRANCH   1  25
ATOM     25  C   UNL     1       0.716  -0.458  -1.168  0.00  0.00    +0.118 C 
BRANCH  25  27
ATOM     26  C   UNL     1      -0.035   1.578   0.070  0.00  0.00    +0.009 C 
ATOM     27  C   UNL     1      -0.008   0.048   0.081  0.00  0.00    +0.001 C 
ATOM     28  C   UNL     1      -1.442  -0.487   0.091  0.00  0.00    +0.009 C 
ENDBRANCH  25  27
ENDBRANCH   1  25
TORSDOF 5
