REMARK  Name = ZINC02050154
REMARK  9 active torsions:
REMARK  status: ('A' for Active; 'I' for Inactive)
REMARK    1  A    between atoms: C_1  and  O_2
REMARK    2  A    between atoms: O_2  and  C_3
REMARK    3  A    between atoms: C_3  and  C_5
REMARK    4  A    between atoms: C_5  and  C_6
REMARK    5  A    between atoms: C_5  and  N_10
REMARK    6  A    between atoms: C_5  and  N_23
REMARK    7  A    between atoms: N_10  and  C_11
REMARK    8  A    between atoms: C_12  and  C_20
REMARK    9  A    between atoms: C_24  and  C_26
REMARK                            x       y       z     vdW  Elec       q    Type
REMARK                         _______ _______ _______ _____ _____    ______ ____
ROOT
ATOM      1  C   UNL     1       0.760  -2.102  -1.136  0.00  0.00    +0.296 C 
ENDROOT
BRANCH   1   2
ATOM      2  C   UNL     1      -0.688  -2.543  -1.357  0.00  0.00    +0.438 C 
ATOM      3  F   UNL     1      -1.162  -2.003  -2.558  0.00  0.00    -0.166 F 
ATOM      4  F   UNL     1      -0.747  -3.939  -1.417  0.00  0.00    -0.166 F 
ATOM      5  F   UNL     1      -1.481  -2.088  -0.297  0.00  0.00    -0.166 F 
ENDBRANCH   1   2
BRANCH   1   6
ATOM      6  N   UNL     1       1.575  -2.511  -2.283  0.00  0.00    -0.274 N 
ATOM      7  C   UNL     1       1.313  -2.012  -3.507  0.00  0.00    +0.246 C 
ATOM      8  O   UNL     1       0.470  -1.147  -3.644  0.00  0.00    -0.270 OA
ATOM      9  H   UNL     1       2.303  -3.140  -2.161  0.00  0.00    +0.152 HD
BRANCH   7  10
ATOM     10  C   UNL     1       2.051  -2.517  -4.684  0.00  0.00    +0.037 A 
ATOM     11  C   UNL     1       3.025  -3.506  -4.529  0.00  0.00    +0.014 A 
ATOM     12  C   UNL     1       3.705  -3.978  -5.632  0.00  0.00    +0.021 A 
ATOM     13  C   UNL     1       3.435  -3.463  -6.889  0.00  0.00    +0.041 A 
ATOM     14  C   UNL     1       2.474  -2.478  -7.048  0.00  0.00    +0.021 A 
ATOM     15  C   UNL     1       1.782  -2.003  -5.954  0.00  0.00    +0.014 A 
ATOM     16 CL   UNL     1       4.301  -4.057  -8.271  0.00  0.00    -0.084 Cl
ENDBRANCH   7  10
ENDBRANCH   1   6
BRANCH   1  17
ATOM     17  C   UNL     1       0.812  -0.603  -0.991  0.00  0.00    +0.359 C 
ATOM     18  O   UNL     1       1.226   0.078  -1.900  0.00  0.00    -0.246 OA
BRANCH  17  20
ATOM     19  C   UNL     1       0.478   1.425   0.216  0.00  0.00    +0.280 C 
ATOM     20  O   UNL     1       0.400  -0.024   0.147  0.00  0.00    -0.465 OA
ENDBRANCH  17  20
ENDBRANCH   1  17
BRANCH   1  21
ATOM     21  N   UNL     1       1.281  -2.728   0.081  0.00  0.00    -0.301 N 
ATOM     22  H   UNL     1       0.766  -3.417   0.531  0.00  0.00    +0.149 HD
BRANCH  21  23
ATOM     23  C   UNL     1       2.506  -2.339   0.589  0.00  0.00    +0.080 A 
ATOM     24  C   UNL     1       3.114  -2.733   1.774  0.00  0.00    +0.068 A 
ATOM     25  C   UNL     1       4.419  -2.168   2.079  0.00  0.00    -0.023 A 
ATOM     26  C   UNL     1       4.902  -1.308   1.159  0.00  0.00    -0.005 A 
ATOM     27  S   UNL     1       3.659  -1.245  -0.101  0.00  0.00    -0.078 S 
ATOM     28  C   UNL     1       6.208  -0.577   1.203  0.00  0.00    +0.043 C 
ATOM     29  C   UNL     1       6.761  -0.660   2.634  0.00  0.00    +0.005 C 
ATOM     30  C   UNL     1       6.676  -2.113   3.111  0.00  0.00    +0.005 C 
ATOM     31  C   UNL     1       5.213  -2.501   3.336  0.00  0.00    +0.037 C 
BRANCH  24  32
ATOM     32  C   UNL     1       2.466  -3.682   2.682  0.00  0.00    +0.244 C 
ATOM     33  O   UNL     1       2.660  -4.877   2.554  0.00  0.00    -0.270 OA
ATOM     34  N   UNL     1       1.653  -3.232   3.659  0.00  0.00    -0.325 N 
ATOM     35  H   UNL     1       1.498  -2.280   3.761  0.00  0.00    +0.145 HD
ATOM     36  H   UNL     1       1.224  -3.861   4.260  0.00  0.00    +0.145 HD
ENDBRANCH  24  32
ENDBRANCH  21  23
ENDBRANCH   1  21
TORSDOF 8
