REMARK  Name = ZINC36571004
REMARK  11 active torsions:
REMARK  status: ('A' for Active; 'I' for Inactive)
REMARK    1  A    between atoms: C_1  and  C_2
REMARK    2  A    between atoms: C_2  and  C_3
REMARK    3  A    between atoms: C_3  and  N_4
REMARK    4  A    between atoms: N_4  and  C_5
REMARK    5  A    between atoms: C_5  and  C_7
REMARK    6  A    between atoms: C_5  and  C_14
REMARK    7  A    between atoms: C_12  and  O_13
REMARK    8  A    between atoms: N_16  and  C_17
REMARK    9  A    between atoms: C_23  and  C_25
REMARK   10  A    between atoms: C_26  and  O_32
REMARK   11  A    between atoms: C_30  and  O_31
REMARK                            x       y       z     vdW  Elec       q    Type
REMARK                         _______ _______ _______ _____ _____    ______ ____
ROOT
ATOM      1  C   UNL     1      -1.320  -2.525   1.263  0.00  0.00    +0.196 C 
ENDROOT
BRANCH   1   2
ATOM      2  C   UNL     1      -0.165  -1.934   2.030  0.00  0.00    +0.023 A 
ATOM      3  C   UNL     1       0.216  -0.625   1.807  0.00  0.00    +0.009 A 
ATOM      4  C   UNL     1       1.275  -0.082   2.510  0.00  0.00    +0.001 A 
ATOM      5  C   UNL     1       1.956  -0.848   3.439  0.00  0.00    +0.004 A 
ATOM      6  C   UNL     1       1.579  -2.157   3.666  0.00  0.00    +0.046 A 
ATOM      7  C   UNL     1       0.512  -2.702   2.966  0.00  0.00    +0.122 A 
BRANCH   7   8
ATOM      8  O   UNL     1       0.136  -3.989   3.191  0.00  0.00    -0.506 OA
ATOM      9  H   UNL     1       0.584  -4.634   2.628  0.00  0.00    +0.292 HD
ENDBRANCH   7   8
ENDBRANCH   1   2
BRANCH   1  10
ATOM     10  C   UNL     1      -2.574  -2.433   2.093  0.00  0.00    +0.238 C 
ATOM     11  O   UNL     1      -3.530  -1.810   1.682  0.00  0.00    -0.273 OA
ATOM     12  N   UNL     1      -2.634  -3.044   3.293  0.00  0.00    -0.311 N 
ATOM     13  H   UNL     1      -1.870  -3.543   3.623  0.00  0.00    +0.149 HD
BRANCH  12  14
ATOM     14  C   UNL     1      -3.853  -2.955   4.100  0.00  0.00    +0.073 C 
ATOM     15  C   UNL     1      -3.828  -1.665   4.923  0.00  0.00    +0.022 C 
ATOM     16  C   UNL     1      -5.101  -1.572   5.765  0.00  0.00    +0.002 C 
ATOM     17  C   UNL     1      -5.179  -2.775   6.707  0.00  0.00    +0.000 C 
ATOM     18  C   UNL     1      -5.204  -4.065   5.885  0.00  0.00    +0.002 C 
ATOM     19  C   UNL     1      -3.931  -4.158   5.042  0.00  0.00    +0.022 C 
ENDBRANCH  12  14
ENDBRANCH   1  10
BRANCH   1  20
ATOM     20  N   UNL     1      -1.506  -1.783   0.013  0.00  0.00    -0.282 N 
ATOM     21  C   UNL     1      -1.907  -0.497   0.046  0.00  0.00    +0.255 C 
ATOM     22  O   UNL     1      -2.191   0.024   1.108  0.00  0.00    -0.270 OA
BRANCH  21  23
ATOM     23  C   UNL     1      -1.999   0.278  -1.202  0.00  0.00    +0.119 A 
ATOM     24  C   UNL     1      -3.196   0.299  -1.933  0.00  0.00    +0.133 A 
ATOM     25  C   UNL     1      -3.273   1.032  -3.106  0.00  0.00    +0.046 A 
ATOM     26  C   UNL     1      -2.175   1.740  -3.558  0.00  0.00    +0.007 A 
ATOM     27  C   UNL     1      -0.990   1.725  -2.846  0.00  0.00    +0.046 A 
ATOM     28  C   UNL     1      -0.893   1.004  -1.667  0.00  0.00    +0.133 A 
BRANCH  28  29
ATOM     29  O   UNL     1       0.269   0.996  -0.967  0.00  0.00    -0.506 OA
ATOM     30  H   UNL     1       0.877   0.289  -1.221  0.00  0.00    +0.292 HD
ENDBRANCH  28  29
BRANCH  24  31
ATOM     31  O   UNL     1      -4.275  -0.395  -1.492  0.00  0.00    -0.506 OA
ATOM     32  H   UNL     1      -4.855   0.110  -0.906  0.00  0.00    +0.292 HD
ENDBRANCH  24  31
ENDBRANCH  21  23
BRANCH  20  33
ATOM     33  C   UNL     1      -1.257  -2.440  -1.272  0.00  0.00    +0.109 C 
BRANCH  33  35
ATOM     34  C   UNL     1      -2.297  -3.783  -3.105  0.00  0.00    +0.005 C 
ATOM     35  C   UNL     1      -2.506  -3.213  -1.700  0.00  0.00    +0.016 C 
ENDBRANCH  33  35
ENDBRANCH  20  33
ENDBRANCH   1  20
TORSDOF 10
