REMARK  Name = ZINC36586851
REMARK  21 active torsions:
REMARK  status: ('A' for Active; 'I' for Inactive)
REMARK    1  A    between atoms: C_1  and  C_2
REMARK    2  A    between atoms: C_2  and  C_3
REMARK    3  A    between atoms: C_2  and  C_4
REMARK    4  A    between atoms: C_2  and  C_5
REMARK    5  A    between atoms: C_5  and  C_6
REMARK    6  A    between atoms: C_6  and  C_7
REMARK    7  A    between atoms: C_6  and  C_8
REMARK    8  A    between atoms: C_6  and  N_9
REMARK    9  A    between atoms: C_10  and  C_12
REMARK   10  A    between atoms: C_12  and  C_14
REMARK   11  A    between atoms: C_12  and  N_23
REMARK   12  A    between atoms: C_17  and  O_22
REMARK   13  A    between atoms: C_18  and  O_20
REMARK   14  A    between atoms: O_20  and  C_21
REMARK   15  A    between atoms: N_23  and  C_34
REMARK   16  A    between atoms: C_24  and  C_26
REMARK   17  A    between atoms: C_27  and  O_33
REMARK   18  A    between atoms: C_31  and  O_32
REMARK   19  A    between atoms: C_34  and  C_35
REMARK   20  A    between atoms: C_34  and  C_36
REMARK   21  A    between atoms: C_34  and  C_37
REMARK                            x       y       z     vdW  Elec       q    Type
REMARK                         _______ _______ _______ _____ _____    ______ ____
ROOT
ATOM      1  C   UNL     1       4.742  -0.396  -4.991  0.00  0.00    +0.193 C 
ENDROOT
BRANCH   1   2
ATOM      2  C   UNL     1       4.208   0.274  -6.231  0.00  0.00    -0.014 A 
ATOM      3  C   UNL     1       4.609   1.558  -6.548  0.00  0.00    +0.010 A 
ATOM      4  C   UNL     1       4.122   2.177  -7.684  0.00  0.00    +0.049 A 
ATOM      5  C   UNL     1       3.230   1.510  -8.508  0.00  0.00    +0.158 A 
ATOM      6  C   UNL     1       2.827   0.217  -8.190  0.00  0.00    +0.162 A 
ATOM      7  C   UNL     1       3.322  -0.399  -7.051  0.00  0.00    +0.055 A 
BRANCH   6   8
ATOM      8  O   UNL     1       1.952  -0.443  -8.995  0.00  0.00    -0.491 OA
ATOM      9  C   UNL     1       1.582  -1.767  -8.605  0.00  0.00    +0.277 C 
ENDBRANCH   6   8
BRANCH   5  10
ATOM     10  O   UNL     1       2.750   2.117  -9.627  0.00  0.00    -0.503 OA
ATOM     11  H   UNL     1       3.287   1.967 -10.417  0.00  0.00    +0.292 HD
ENDBRANCH   5  10
ENDBRANCH   1   2
BRANCH   1  13
ATOM     12  N   UNL     1       2.561  -0.521  -3.830  0.00  0.00    -0.308 N 
ATOM     13  C   UNL     1       3.837  -0.089  -3.825  0.00  0.00    +0.239 C 
ATOM     14  O   UNL     1       4.258   0.547  -2.882  0.00  0.00    -0.273 OA
ATOM     15  H   UNL     1       2.224  -1.030  -4.585  0.00  0.00    +0.149 HD
BRANCH  12  16
ATOM     16  C   UNL     1       1.681  -0.223  -2.697  0.00  0.00    +0.030 C 
ATOM     17  C   UNL     1       1.828   1.250  -2.312  0.00  0.00    +0.031 C 
ATOM     18  C   UNL     1       2.068  -1.102  -1.506  0.00  0.00    +0.031 C 
BRANCH  16  19
ATOM     19  C   UNL     1       0.230  -0.506  -3.090  0.00  0.00    +0.031 C 
BRANCH  19  21
ATOM     20  C   UNL     1       0.466  -0.875  -5.550  0.00  0.00    +0.010 C 
ATOM     21  C   UNL     1      -0.048   0.084  -4.474  0.00  0.00    -0.036 C 
ATOM     22  C   UNL     1       0.666   1.430  -4.608  0.00  0.00    +0.010 C 
ATOM     23  C   UNL     1      -1.554   0.286  -4.649  0.00  0.00    +0.010 C 
ENDBRANCH  19  21
ENDBRANCH  16  19
ENDBRANCH  12  16
ENDBRANCH   1  13
BRANCH   1  24
ATOM     24  N   UNL     1       6.089   0.104  -4.708  0.00  0.00    -0.277 N 
ATOM     25  C   UNL     1       6.258   1.348  -4.219  0.00  0.00    +0.255 C 
ATOM     26  O   UNL     1       5.291   2.010  -3.893  0.00  0.00    -0.270 OA
BRANCH  25  27
ATOM     27  C   UNL     1       7.613   1.907  -4.079  0.00  0.00    +0.119 A 
ATOM     28  C   UNL     1       8.215   2.577  -5.154  0.00  0.00    +0.133 A 
ATOM     29  C   UNL     1       9.491   3.099  -5.011  0.00  0.00    +0.046 A 
ATOM     30  C   UNL     1      10.169   2.962  -3.814  0.00  0.00    +0.007 A 
ATOM     31  C   UNL     1       9.585   2.303  -2.748  0.00  0.00    +0.046 A 
ATOM     32  C   UNL     1       8.308   1.778  -2.868  0.00  0.00    +0.133 A 
BRANCH  32  33
ATOM     33  O   UNL     1       7.735   1.138  -1.818  0.00  0.00    -0.506 OA
ATOM     34  H   UNL     1       7.913   0.188  -1.793  0.00  0.00    +0.292 HD
ENDBRANCH  32  33
BRANCH  28  35
ATOM     35  O   UNL     1       7.552   2.713  -6.329  0.00  0.00    -0.506 OA
ATOM     36  H   UNL     1       7.015   3.515  -6.388  0.00  0.00    +0.292 HD
ENDBRANCH  28  35
ENDBRANCH  25  27
BRANCH  24  37
ATOM     37  C   UNL     1       7.254  -0.749  -4.956  0.00  0.00    +0.030 C 
ATOM     38  C   UNL     1       6.784  -2.147  -5.365  0.00  0.00    +0.031 C 
ATOM     39  C   UNL     1       8.098  -0.146  -6.081  0.00  0.00    +0.031 C 
ATOM     40  C   UNL     1       8.097  -0.846  -3.683  0.00  0.00    +0.031 C 
ENDBRANCH  24  37
ENDBRANCH   1  24
TORSDOF 12
