REMARK  Name = ZINC09584600
REMARK  13 active torsions:
REMARK  status: ('A' for Active; 'I' for Inactive)
REMARK    1  A    between atoms: C_1  and  C_2
REMARK    2  A    between atoms: C_2  and  C_3
REMARK    3  A    between atoms: C_3  and  N_4
REMARK    4  A    between atoms: C_7  and  O_36
REMARK    5  A    between atoms: C_8  and  O_34
REMARK    6  A    between atoms: N_13  and  C_14
REMARK    7  A    between atoms: C_14  and  C_16
REMARK    8  A    between atoms: C_19  and  S_22
REMARK    9  A    between atoms: S_22  and  N_25
REMARK   10  A    between atoms: C_30  and  C_32
REMARK   11  A    between atoms: C_32  and  C_33
REMARK   12  A    between atoms: O_34  and  C_35
REMARK   13  A    between atoms: O_36  and  C_37
REMARK                            x       y       z     vdW  Elec       q    Type
REMARK                         _______ _______ _______ _____ _____    ______ ____
ROOT
ATOM      1  C   UNL     1      -4.079   1.492   0.541  0.00  0.00    +0.269 C 
ATOM      2  O   UNL     1      -4.493   2.073   1.528  0.00  0.00    -0.268 OA
ENDROOT
BRANCH   1  12
ATOM      3  N   UNL     1      -0.659   1.059   1.606  0.00  0.00    -0.321 N 
ATOM      4  C   UNL     1       0.036   1.404   2.752  0.00  0.00    +0.061 A 
ATOM      5  C   UNL     1       1.391   1.180   3.048  0.00  0.00    +0.076 A 
ATOM      6  C   UNL     1       1.930   1.598   4.244  0.00  0.00    +0.164 A 
ATOM      7  C   UNL     1       1.151   2.260   5.192  0.00  0.00    +0.163 A 
ATOM      8  C   UNL     1      -0.188   2.497   4.918  0.00  0.00    +0.066 A 
ATOM      9  C   UNL     1      -0.721   2.077   3.721  0.00  0.00    +0.043 A 
ATOM     10  S   UNL     1      -2.334   2.171   2.986  0.00  0.00    -0.052 S 
ATOM     11  C   UNL     1      -1.979   1.366   1.491  0.00  0.00    +0.167 A 
ATOM     12  N   UNL     1      -2.799   1.111   0.477  0.00  0.00    -0.152 NA
BRANCH   7  13
ATOM     13  O   UNL     1       1.696   2.667   6.370  0.00  0.00    -0.491 OA
ATOM     14  C   UNL     1       0.830   3.338   7.287  0.00  0.00    +0.277 C 
ENDBRANCH   7  13
BRANCH   6  15
ATOM     15  O   UNL     1       3.244   1.362   4.505  0.00  0.00    -0.491 OA
ATOM     16  C   UNL     1       3.993   0.680   3.498  0.00  0.00    +0.277 C 
ENDBRANCH   6  15
BRANCH   3  17
ATOM     17  C   UNL     1       0.026   0.356   0.518  0.00  0.00    +0.124 C 
BRANCH  17  19
ATOM     18  C   UNL     1       0.321   0.233  -1.960  0.00  0.00    +0.005 C 
ATOM     19  C   UNL     1      -0.461   0.900  -0.827  0.00  0.00    +0.018 C 
ENDBRANCH  17  19
ENDBRANCH   3  17
ENDBRANCH   1  12
BRANCH   1  20
ATOM     20  C   UNL     1      -4.993   1.207  -0.589  0.00  0.00    +0.039 A 
ATOM     21  C   UNL     1      -4.520   0.547  -1.723  0.00  0.00    +0.015 A 
ATOM     22  C   UNL     1      -5.378   0.280  -2.771  0.00  0.00    +0.029 A 
ATOM     23  C   UNL     1      -6.702   0.675  -2.702  0.00  0.00    +0.106 A 
ATOM     24  C   UNL     1      -7.176   1.335  -1.582  0.00  0.00    +0.029 A 
ATOM     25  C   UNL     1      -6.329   1.603  -0.526  0.00  0.00    +0.015 A 
BRANCH  23  26
ATOM     26  S   UNL     1      -7.790   0.337  -4.046  0.00  0.00    +0.061 S 
ATOM     27  O   UNL     1      -7.154  -0.652  -4.844  0.00  0.00    -0.153 OA
ATOM     28  O   UNL     1      -9.082   0.150  -3.486  0.00  0.00    -0.153 OA
BRANCH  26  29
ATOM     29  N   UNL     1      -7.868   1.710  -4.969  0.00  0.00    -0.174 NA
ATOM     30  C   UNL     1      -8.976   2.661  -4.804  0.00  0.00    +0.110 C 
ATOM     31  C   UNL     1      -9.629   2.906  -6.163  0.00  0.00    +0.017 C 
ATOM     32  C   UNL     1      -8.562   3.351  -7.166  0.00  0.00    +0.003 C 
ATOM     33  C   UNL     1      -7.515   2.246  -7.324  0.00  0.00    +0.021 C 
ATOM     34  C   UNL     1      -6.835   1.997  -5.974  0.00  0.00    +0.080 C 
BRANCH  34  35
ATOM     35  C   UNL     1      -5.885   0.803  -6.088  0.00  0.00    +0.017 C 
ATOM     36  C   UNL     1      -4.727   1.160  -7.022  0.00  0.00    +0.005 C 
ENDBRANCH  34  35
ENDBRANCH  26  29
ENDBRANCH  23  26
ENDBRANCH   1  20
TORSDOF 9
