REMARK  Name = ZINC08283303
REMARK  8 active torsions:
REMARK  status: ('A' for Active; 'I' for Inactive)
REMARK    1  A    between atoms: C_1  and  C_2
REMARK    2  A    between atoms: C_2  and  C_3
REMARK    3  A    between atoms: C_2  and  C_4
REMARK    4  A    between atoms: C_4  and  C_6
REMARK    5  A    between atoms: C_4  and  O_12
REMARK    6  A    between atoms: O_12  and  C_13
REMARK    7  A    between atoms: C_13  and  C_15
REMARK    8  A    between atoms: C_24  and  C_27
REMARK                            x       y       z     vdW  Elec       q    Type
REMARK                         _______ _______ _______ _____ _____    ______ ____
ROOT
ATOM      1  C   UNL     1      -1.129   4.132  -2.753  0.00  0.00    +0.314 C 
ATOM      2  O   UNL     1      -0.909   5.093  -3.452  0.00  0.00    -0.250 OA
ENDROOT
BRANCH   1   3
ATOM      3  C   UNL     1      -0.077   3.645  -1.790  0.00  0.00    +0.069 C 
ATOM      4  C   UNL     1       0.301   2.203  -2.134  0.00  0.00    +0.021 C 
ATOM      5  C   UNL     1       1.369   1.708  -1.156  0.00  0.00    -0.009 C 
ATOM      6  C   UNL     1       0.819   1.765   0.271  0.00  0.00    +0.007 C 
ATOM      7  C   UNL     1       0.441   3.207   0.615  0.00  0.00    -0.009 C 
ATOM      8  C   UNL     1      -0.626   3.702  -0.363  0.00  0.00    +0.021 C 
ATOM      9  C   UNL     1       1.681   4.098   0.510  0.00  0.00    +0.015 C 
ATOM     10  C   UNL     1       2.231   4.041  -0.917  0.00  0.00    -0.003 C 
ATOM     11  C   UNL     1       2.608   2.599  -1.261  0.00  0.00    +0.015 C 
ATOM     12  C   UNL     1       1.163   4.535  -1.895  0.00  0.00    +0.029 C 
BRANCH  10  13
ATOM     13  C   UNL     1       3.451   4.918  -1.020  0.00  0.00    -0.041 A 
ATOM     14  C   UNL     1       3.895   5.619   0.086  0.00  0.00    +0.004 A 
ATOM     15  C   UNL     1       5.018   6.420  -0.008  0.00  0.00    +0.000 A 
ATOM     16  C   UNL     1       5.691   6.528  -1.210  0.00  0.00    +0.000 A 
ATOM     17  C   UNL     1       5.245   5.832  -2.318  0.00  0.00    +0.000 A 
ATOM     18  C   UNL     1       4.125   5.027  -2.223  0.00  0.00    +0.004 A 
ENDBRANCH  10  13
ENDBRANCH   1   3
BRANCH   1  19
ATOM     19  O   UNL     1      -2.309   3.498  -2.835  0.00  0.00    -0.451 OA
BRANCH  19  20
ATOM     20  C   UNL     1      -3.274   4.023  -3.784  0.00  0.00    +0.264 C 
BRANCH  20  21
ATOM     21  C   UNL     1      -4.142   2.900  -4.290  0.00  0.00    +0.261 C 
ATOM     22  O   UNL     1      -4.883   3.083  -5.232  0.00  0.00    -0.271 OA
ATOM     23  N   UNL     1      -4.095   1.691  -3.695  0.00  0.00    -0.237 N 
ATOM     24  C   UNL     1      -4.796   0.660  -4.207  0.00  0.00    +0.303 C 
ATOM     25  O   UNL     1      -5.471   0.820  -5.206  0.00  0.00    -0.253 OA
ATOM     26  N   UNL     1      -4.749  -0.548  -3.612  0.00  0.00    -0.313 N 
ATOM     27  H   UNL     1      -3.557   1.563  -2.898  0.00  0.00    +0.159 HD
ATOM     28  H   UNL     1      -4.211  -0.676  -2.816  0.00  0.00    +0.146 HD
ATOM     29  H   UNL     1      -5.254  -1.290  -3.981  0.00  0.00    +0.146 HD
ENDBRANCH  20  21
BRANCH  20  31
ATOM     30  C   UNL     1      -3.266   6.205  -2.568  0.00  0.00    +0.011 C 
ATOM     31  C   UNL     1      -4.149   5.072  -3.095  0.00  0.00    +0.033 C 
ATOM     32  C   UNL     1      -5.155   5.636  -4.100  0.00  0.00    +0.011 C 
ENDBRANCH  20  31
ENDBRANCH  19  20
ENDBRANCH   1  19
TORSDOF 6
