REMARK  Name = ZINC12644390
REMARK  8 active torsions:
REMARK  status: ('A' for Active; 'I' for Inactive)
REMARK    1  A    between atoms: C_1  and  O_2
REMARK    2  A    between atoms: O_2  and  C_3
REMARK    3  A    between atoms: C_6  and  N_12
REMARK    4  A    between atoms: C_7  and  N_9
REMARK    5  A    between atoms: C_13  and  C_15
REMARK    6  A    between atoms: C_15  and  N_70
REMARK    7  A    between atoms: C_18  and  N_21
REMARK    8  A    between atoms: N_24  and  C_25
REMARK                            x       y       z     vdW  Elec       q    Type
REMARK                         _______ _______ _______ _____ _____    ______ ____
ROOT
ATOM      1  C   UNL     1      -3.929   9.774  -2.845  0.00  0.00    -0.076 C 
ATOM      2  C   UNL     1      -3.308   8.999  -1.680  0.00  0.00    +0.004 C 
ATOM      3  C   UNL     1      -2.639   7.731  -2.216  0.00  0.00    +0.071 C 
ATOM      4  C   UNL     1      -1.587   8.120  -3.259  0.00  0.00    +0.004 C 
ATOM      5  C   UNL     1      -2.258   8.920  -4.379  0.00  0.00    -0.076 C 
ATOM      6  N   UNL     1      -2.863  10.139  -3.801  0.00  0.00    +0.386 N 
ATOM      7  H   UNL     1      -2.136  10.668  -3.303  0.00  0.00    -0.081 HD
ENDROOT
BRANCH   3   8
ATOM      8  N   UNL     1      -1.992   7.015  -1.113  0.00  0.00    -0.297 N 
ATOM      9  C   UNL     1      -1.785   5.687  -1.202  0.00  0.00    +0.300 C 
ATOM     10  O   UNL     1      -2.135   5.082  -2.197  0.00  0.00    -0.253 OA
ATOM     11  N   UNL     1      -1.190   5.028  -0.187  0.00  0.00    -0.294 N 
ATOM     12  H   UNL     1      -1.713   7.498  -0.320  0.00  0.00    +0.151 HD
ATOM     13  H   UNL     1      -0.911   5.511   0.607  0.00  0.00    +0.151 HD
BRANCH  11  14
ATOM     14  C   UNL     1      -0.965   3.584  -0.284  0.00  0.00    +0.037 C 
ATOM     15  C   UNL     1      -0.073   3.286  -1.491  0.00  0.00    +0.029 C 
ATOM     16  C   UNL     1       0.162   1.778  -1.591  0.00  0.00    -0.008 C 
ATOM     17  C   UNL     1       0.847   1.282  -0.316  0.00  0.00    +0.007 C 
ATOM     18  C   UNL     1      -0.045   1.580   0.891  0.00  0.00    -0.008 C 
ATOM     19  C   UNL     1      -0.280   3.088   0.992  0.00  0.00    +0.029 C 
ATOM     20  C   UNL     1      -1.387   0.865   0.722  0.00  0.00    +0.007 C 
ATOM     21  C   UNL     1      -2.072   1.360  -0.553  0.00  0.00    -0.008 C 
ATOM     22  C   UNL     1      -1.180   1.062  -1.760  0.00  0.00    +0.007 C 
ATOM     23  C   UNL     1      -2.307   2.869  -0.452  0.00  0.00    +0.029 C 
ENDBRANCH  11  14
ENDBRANCH   3   8
BRANCH   6  24
ATOM     24  C   UNL     1      -3.418  10.986  -4.877  0.00  0.00    +0.019 C 
BRANCH  24  26
ATOM     25  N   UNL     1      -4.435  13.233  -5.059  0.00  0.00    -0.285 N 
ATOM     26  C   UNL     1      -3.803  12.321  -4.294  0.00  0.00    +0.201 C 
ATOM     27  O   UNL     1      -3.543  12.575  -3.137  0.00  0.00    -0.278 OA
ATOM     28  H   UNL     1      -4.697  13.008  -5.966  0.00  0.00    +0.155 HD
BRANCH  25  32
ATOM     29  C   UNL     1      -5.268  17.021  -3.527  0.00  0.00    +0.122 A 
ATOM     30  C   UNL     1      -5.362  15.905  -2.707  0.00  0.00    +0.047 A 
ATOM     31  C   UNL     1      -5.086  14.651  -3.214  0.00  0.00    +0.029 A 
ATOM     32  C   UNL     1      -4.715  14.506  -4.544  0.00  0.00    +0.064 A 
ATOM     33  C   UNL     1      -4.616  15.623  -5.362  0.00  0.00    +0.151 A 
ATOM     34  C   UNL     1      -4.897  16.877  -4.855  0.00  0.00    +0.080 A 
BRANCH  33  35
ATOM     35  N   UNL     1      -4.215  15.470  -6.779  0.00  0.00    +0.058 N 
ATOM     36  O   UNL     1      -4.050  16.456  -7.475  0.00  0.00    -0.126 OA
ATOM     37  O   UNL     1      -4.050  14.358  -7.248  0.00  0.00    -0.126 OA
ENDBRANCH  33  35
BRANCH  29  39
ATOM     38  C   UNL     1      -5.915  18.330  -1.650  0.00  0.00    +0.277 C 
ATOM     39  O   UNL     1      -5.539  18.256  -3.027  0.00  0.00    -0.495 OA
ENDBRANCH  29  39
ENDBRANCH  25  32
ENDBRANCH  24  26
ENDBRANCH   6  24
TORSDOF 7
