REMARK  Name = ZINC20069715
REMARK  9 active torsions:
REMARK  status: ('A' for Active; 'I' for Inactive)
REMARK    1  A    between atoms: C_1  and  C_2
REMARK    2  A    between atoms: C_5  and  N_8
REMARK    3  A    between atoms: C_17  and  C_21
REMARK    4  A    between atoms: C_17  and  N_25
REMARK    5  A    between atoms: C_26  and  C_28
REMARK    6  A    between atoms: C_31  and  O_36
REMARK    7  A    between atoms: C_32  and  O_34
REMARK    8  A    between atoms: O_34  and  C_35
REMARK    9  A    between atoms: O_36  and  C_37
REMARK                            x       y       z     vdW  Elec       q    Type
REMARK                         _______ _______ _______ _____ _____    ______ ____
ROOT
ATOM      1  N   UNL     1       1.205   2.064   0.679  0.00  0.00    -0.249 N 
ATOM      2  C   UNL     1       1.156   3.438   0.546  0.00  0.00    +0.125 A 
ATOM      3  C   UNL     1      -0.047   4.020   0.277  0.00  0.00    +0.097 A 
ATOM      4  C   UNL     1      -1.197   3.232   0.141  0.00  0.00    +0.262 A 
ATOM      5  O   UNL     1      -2.273   3.750  -0.099  0.00  0.00    -0.267 OA
ATOM      6  N   UNL     1      -1.099   1.892   0.274  0.00  0.00    -0.274 N 
ATOM      7  H   UNL     1      -1.993   1.262   0.162  0.00  0.00    +0.173 HD
ATOM      8  C   UNL     1       0.091   1.325   0.545  0.00  0.00    +0.335 A 
ATOM      9  O   UNL     1       0.160   0.117   0.666  0.00  0.00    -0.246 OA
ATOM     10  C   UNL     1       0.203   5.507   0.188  0.00  0.00    +0.240 C 
ATOM     11  C   UNL     1       1.692   5.632   0.445  0.00  0.00    +0.256 C 
ATOM     12  O   UNL     1       2.341   6.655   0.470  0.00  0.00    -0.272 OA
ATOM     13  N   UNL     1       2.149   4.382   0.640  0.00  0.00    -0.269 N 
ATOM     14  H   UNL     1       3.183   4.074   0.854  0.00  0.00    +0.156 HD
ENDROOT
BRANCH   1  19
ATOM     15  C   UNL     1       6.152  -0.480   1.801  0.00  0.00    +0.044 C 
ATOM     16  C   UNL     1       4.838   0.196   1.503  0.00  0.00    -0.050 A 
ATOM     17  C   UNL     1       4.655   0.846   0.297  0.00  0.00    +0.005 A 
ATOM     18  C   UNL     1       3.452   1.467   0.021  0.00  0.00    +0.026 A 
ATOM     19  C   UNL     1       2.426   1.436   0.956  0.00  0.00    +0.053 A 
ATOM     20  C   UNL     1       2.615   0.786   2.168  0.00  0.00    +0.026 A 
ATOM     21  C   UNL     1       3.818   0.163   2.436  0.00  0.00    +0.005 A 
ENDBRANCH   1  19
BRANCH  10  22
ATOM     22  C   UNL     1      -0.149   6.030  -1.206  0.00  0.00    +0.424 C 
ATOM     23  F   UNL     1      -1.524   5.888  -1.424  0.00  0.00    -0.167 F 
ATOM     24  F   UNL     1       0.201   7.381  -1.299  0.00  0.00    -0.167 F 
ATOM     25  F   UNL     1       0.554   5.298  -2.169  0.00  0.00    -0.167 F 
ENDBRANCH  10  22
BRANCH  10  26
ATOM     26  N   UNL     1      -0.559   6.220   1.216  0.00  0.00    -0.287 N 
ATOM     27  C   UNL     1      -0.288   6.016   2.520  0.00  0.00    +0.245 C 
ATOM     28  O   UNL     1       0.520   5.168   2.847  0.00  0.00    -0.270 OA
ATOM     29  H   UNL     1      -1.353   6.923   0.923  0.00  0.00    +0.151 HD
BRANCH  27  30
ATOM     30  C   UNL     1      -0.971   6.821   3.551  0.00  0.00    +0.040 A 
ATOM     31  C   UNL     1      -1.896   7.799   3.177  0.00  0.00    +0.017 A 
ATOM     32  C   UNL     1      -2.537   8.546   4.141  0.00  0.00    +0.050 A 
ATOM     33  C   UNL     1      -2.258   8.337   5.485  0.00  0.00    +0.162 A 
ATOM     34  C   UNL     1      -1.333   7.366   5.865  0.00  0.00    +0.162 A 
ATOM     35  C   UNL     1      -0.691   6.610   4.904  0.00  0.00    +0.062 A 
BRANCH  34  36
ATOM     36  O   UNL     1      -1.062   7.163   7.183  0.00  0.00    -0.491 OA
ATOM     37  C   UNL     1      -0.103   6.153   7.500  0.00  0.00    +0.277 C 
ENDBRANCH  34  36
BRANCH  33  38
ATOM     38  O   UNL     1      -2.888   9.080   6.431  0.00  0.00    -0.491 OA
ATOM     39  C   UNL     1      -3.824  10.057   5.972  0.00  0.00    +0.277 C 
ENDBRANCH  33  38
ENDBRANCH  27  30
ENDBRANCH  10  26
TORSDOF 6
