REMARK  Name = ZINC23050413
REMARK  10 active torsions:
REMARK  status: ('A' for Active; 'I' for Inactive)
REMARK    1  A    between atoms: C_1  and  C_2
REMARK    2  A    between atoms: C_5  and  N_9
REMARK    3  A    between atoms: C_7  and  C_8
REMARK    4  A    between atoms: C_13  and  S_14
REMARK    5  A    between atoms: S_14  and  C_15
REMARK    6  A    between atoms: C_15  and  C_17
REMARK    7  A    between atoms: C_15  and  C_18
REMARK    8  A    between atoms: N_20  and  C_21
REMARK    9  A    between atoms: C_24  and  S_27
REMARK   10  A    between atoms: S_27  and  N_30
REMARK                            x       y       z     vdW  Elec       q    Type
REMARK                         _______ _______ _______ _____ _____    ______ ____
ROOT
ATOM      1  C   UNL     1       4.112  -1.190  -0.037  0.00  0.00    +0.137 C 
ATOM      2  C   UNL     1       3.610  -1.790   1.278  0.00  0.00    +0.029 C 
ENDROOT
BRANCH   1   3
ATOM      3  C   UNL     1       5.586  -1.464  -0.184  0.00  0.00    +0.230 C 
ATOM      4  O   UNL     1       6.396  -0.633   0.170  0.00  0.00    -0.274 OA
ATOM      5  N   UNL     1       6.005  -2.633  -0.708  0.00  0.00    -0.285 N 
ATOM      6  H   UNL     1       5.275  -3.417  -0.958  0.00  0.00    +0.155 HD
BRANCH   5   7
ATOM      7  C   UNL     1       7.369  -2.850  -0.934  0.00  0.00    +0.034 A 
ATOM      8  C   UNL     1       7.782  -3.597  -2.029  0.00  0.00    +0.025 A 
ATOM      9  C   UNL     1       9.129  -3.804  -2.254  0.00  0.00    +0.030 A 
ATOM     10  C   UNL     1      10.065  -3.278  -1.382  0.00  0.00    +0.105 A 
ATOM     11  C   UNL     1       9.657  -2.539  -0.287  0.00  0.00    +0.030 A 
ATOM     12  C   UNL     1       8.311  -2.323  -0.061  0.00  0.00    +0.025 A 
BRANCH  10  13
ATOM     13  S   UNL     1      11.783  -3.550  -1.667  0.00  0.00    +0.056 S 
ATOM     14  O   UNL     1      11.927  -3.811  -3.057  0.00  0.00    -0.153 OA
ATOM     15  O   UNL     1      12.475  -2.496  -1.014  0.00  0.00    -0.153 OA
BRANCH  13  16
ATOM     16  N   UNL     1      12.194  -4.947  -0.879  0.00  0.00    -0.204 NA
ATOM     17  H   UNL     1      13.264  -5.154  -1.033  0.00  0.00    +0.144 HD
ATOM     18  H   UNL     1      11.599  -5.782  -1.277  0.00  0.00    +0.144 HD
ENDBRANCH  13  16
ENDBRANCH  10  13
ENDBRANCH   5   7
ENDBRANCH   1   3
BRANCH   1  19
ATOM     19  S   UNL     1       3.829   0.598  -0.030  0.00  0.00    -0.075 S 
BRANCH  19  24
ATOM     20  N   UNL     1       1.289   1.749   0.012  0.00  0.00    -0.295 N 
ATOM     21  C   UNL     1      -0.023   1.325   0.031  0.00  0.00    +0.113 A 
ATOM     22  C   UNL     1      -0.001  -0.018   0.029  0.00  0.00    +0.131 A 
ATOM     23  N   UNL     1       1.281  -0.422   0.008  0.00  0.00    -0.230 NA
ATOM     24  C   UNL     1       2.067   0.629  -0.002  0.00  0.00    +0.174 A 
BRANCH  20  29
ATOM     25  C   UNL     1       3.103   7.127  -0.006  0.00  0.00    +0.044 C 
ATOM     26  C   UNL     1       2.622   5.699  -0.002  0.00  0.00    -0.047 A 
ATOM     27  C   UNL     1       3.145   4.797   0.907  0.00  0.00    +0.005 A 
ATOM     28  C   UNL     1       2.702   3.489   0.917  0.00  0.00    +0.026 A 
ATOM     29  C   UNL     1       1.737   3.077   0.007  0.00  0.00    +0.049 A 
ATOM     30  C   UNL     1       1.213   3.985  -0.903  0.00  0.00    +0.029 A 
ATOM     31  C   UNL     1       1.657   5.293  -0.905  0.00  0.00    -0.046 A 
ATOM     32  C   UNL     1       1.089   6.279  -1.893  0.00  0.00    +0.044 C 
ENDBRANCH  20  29
ENDBRANCH  19  24
ENDBRANCH   1  19
TORSDOF 7
