REMARK  Name = ZINC33701436
REMARK  14 active torsions:
REMARK  status: ('A' for Active; 'I' for Inactive)
REMARK    1  A    between atoms: C_1  and  C_2
REMARK    2  A    between atoms: C_2  and  C_3
REMARK    3  A    between atoms: C_3  and  C_4
REMARK    4  A    between atoms: C_3  and  C_5
REMARK    5  A    between atoms: C_3  and  C_6
REMARK    6  A    between atoms: C_9  and  O_12
REMARK    7  A    between atoms: O_12  and  C_13
REMARK    8  A    between atoms: C_13  and  C_14
REMARK    9  A    between atoms: C_17  and  C_20
REMARK   10  A    between atoms: N_22  and  C_23
REMARK   11  A    between atoms: C_23  and  C_25
REMARK   12  A    between atoms: C_23  and  C_29
REMARK   13  A    between atoms: C_25  and  C_27
REMARK   14  A    between atoms: C_25  and  O_28
REMARK                            x       y       z     vdW  Elec       q    Type
REMARK                         _______ _______ _______ _____ _____    ______ ____
ROOT
ATOM      1  C   UNL     1       1.019  -4.909  -0.703  0.00  0.00    -0.010 A 
ATOM      2  C   UNL     1       1.986  -4.203  -1.397  0.00  0.00    +0.008 A 
ATOM      3  C   UNL     1       1.972  -2.823  -1.394  0.00  0.00    +0.013 A 
ATOM      4  C   UNL     1       0.981  -2.140  -0.688  0.00  0.00    +0.037 A 
ATOM      5  C   UNL     1       0.012  -2.858   0.014  0.00  0.00    +0.013 A 
ATOM      6  C   UNL     1       0.033  -4.237  -0.002  0.00  0.00    +0.008 A 
ENDROOT
BRANCH   4   7
ATOM      7  C   UNL     1       0.961  -0.661  -0.680  0.00  0.00    +0.245 C 
ATOM      8  O   UNL     1       1.809  -0.039  -1.289  0.00  0.00    -0.270 OA
ATOM      9  N   UNL     1       0.002  -0.004   0.002  0.00  0.00    -0.298 N 
ATOM     10  H   UNL     1      -0.765  -0.568   0.553  0.00  0.00    +0.150 HD
BRANCH   9  11
ATOM     11  C   UNL     1      -0.018   1.461   0.010  0.00  0.00    +0.187 C 
BRANCH  11  12
ATOM     12  C   UNL     1      -0.723   1.947   1.250  0.00  0.00    +0.233 C 
ATOM     13  O   UNL     1      -1.166   1.148   2.048  0.00  0.00    -0.274 OA
ATOM     14  N   UNL     1      -0.862   3.269   1.472  0.00  0.00    -0.328 N 
ATOM     15  H   UNL     1      -1.377   3.624   2.377  0.00  0.00    +0.145 HD
ATOM     16  H   UNL     1      -0.461   3.993   0.748  0.00  0.00    +0.145 HD
ENDBRANCH  11  12
BRANCH  11  17
ATOM     17  C   UNL     1      -0.758   1.968  -1.230  0.00  0.00    +0.141 C 
ATOM     18  C   UNL     1      -0.042   1.474  -2.488  0.00  0.00    +0.040 C 
BRANCH  17  19
ATOM     19  O   UNL     1      -0.777   3.397  -1.222  0.00  0.00    -0.390 OA
ATOM     20  H   UNL     1      -1.269   3.944  -2.039  0.00  0.00    +0.210 HD
ENDBRANCH  17  19
ENDBRANCH  11  17
ENDBRANCH   9  11
ENDBRANCH   4   7
BRANCH   1  21
ATOM     21  C   UNL     1       1.039  -6.415  -0.711  0.00  0.00    +0.264 C 
BRANCH  21  22
ATOM     22  O   UNL     1       1.829  -6.886   0.383  0.00  0.00    -0.487 OA
BRANCH  22  26
ATOM     23  C   UNL     1       2.200 -10.974   0.801  0.00  0.00    -0.042 A 
ATOM     24  C   UNL     1       2.826 -10.129   1.699  0.00  0.00    +0.008 A 
ATOM     25  C   UNL     1       2.703  -8.760   1.561  0.00  0.00    +0.046 A 
ATOM     26  C   UNL     1       1.951  -8.233   0.521  0.00  0.00    +0.121 A 
ATOM     27  C   UNL     1       1.319  -9.083  -0.375  0.00  0.00    +0.046 A 
ATOM     28  C   UNL     1       1.450 -10.451  -0.236  0.00  0.00    +0.008 A 
BRANCH  23  29
ATOM     29  C   UNL     1       2.335 -12.467   0.954  0.00  0.00    -0.010 C 
ATOM     30  C   UNL     1       3.811 -12.857   0.862  0.00  0.00    +0.016 C 
ATOM     31  C   UNL     1       1.778 -12.893   2.314  0.00  0.00    +0.016 C 
BRANCH  29  33
ATOM     32  C   UNL     1       1.690 -14.683  -0.004  0.00  0.00    +0.005 C 
ATOM     33  C   UNL     1       1.552 -13.167  -0.159  0.00  0.00    +0.007 C 
ENDBRANCH  29  33
ENDBRANCH  23  29
ENDBRANCH  22  26
ENDBRANCH  21  22
ENDBRANCH   1  21
TORSDOF 10
