REMARK  Name = ZINC39289603
REMARK  14 active torsions:
REMARK  status: ('A' for Active; 'I' for Inactive)
REMARK    1  A    between atoms: C_1  and  C_2
REMARK    2  A    between atoms: C_2  and  C_3
REMARK    3  A    between atoms: C_8  and  C_9
REMARK    4  A    between atoms: C_9  and  C_10
REMARK    5  A    between atoms: C_11  and  C_27
REMARK    6  A    between atoms: C_16  and  C_18
REMARK    7  A    between atoms: C_22  and  N_24
REMARK    8  A    between atoms: C_27  and  C_28
REMARK    9  A    between atoms: C_30  and  O_38
REMARK   10  A    between atoms: C_31  and  O_36
REMARK   11  A    between atoms: C_32  and  O_34
REMARK   12  A    between atoms: O_34  and  C_35
REMARK   13  A    between atoms: O_36  and  C_37
REMARK   14  A    between atoms: O_38  and  C_39
REMARK                            x       y       z     vdW  Elec       q    Type
REMARK                         _______ _______ _______ _____ _____    ______ ____
ROOT
ATOM      1  C   UNL     1      -0.667  -2.903  -0.668  0.00  0.00    -0.044 A 
ATOM      2  C   UNL     1      -1.251  -3.281  -1.860  0.00  0.00    +0.008 A 
ATOM      3  C   UNL     1      -0.586  -3.088  -3.065  0.00  0.00    -0.041 A 
ATOM      4  C   UNL     1       0.663  -2.509  -3.066  0.00  0.00    -0.023 A 
ATOM      5  C   UNL     1       1.252  -2.136  -1.866  0.00  0.00    +0.009 A 
ATOM      6  C   UNL     1       0.589  -2.326  -0.671  0.00  0.00    -0.044 A 
ATOM      7  C   UNL     1       1.428  -2.244  -4.338  0.00  0.00    +0.111 C 
ATOM      8  N   UNL     1       0.779  -2.934  -5.458  0.00  0.00    -0.290 N 
ATOM      9  C   UNL     1      -0.688  -2.843  -5.549  0.00  0.00    +0.113 C 
ATOM     10  C   UNL     1      -1.279  -3.539  -4.324  0.00  0.00    +0.054 C 
ATOM     11  C   UNL     1       1.496  -3.623  -6.367  0.00  0.00    +0.247 C 
ATOM     12  O   UNL     1       2.700  -3.732  -6.236  0.00  0.00    -0.270 OA
ENDROOT
BRANCH  11  13
ATOM     13  C   UNL     1       0.820  -4.246  -7.524  0.00  0.00    +0.039 A 
ATOM     14  C   UNL     1      -0.422  -3.771  -7.949  0.00  0.00    +0.013 A 
ATOM     15  C   UNL     1      -1.048  -4.357  -9.030  0.00  0.00    +0.003 A 
ATOM     16  C   UNL     1      -0.448  -5.414  -9.692  0.00  0.00    +0.033 A 
ATOM     17  C   UNL     1       0.782  -5.890  -9.275  0.00  0.00    +0.127 A 
ATOM     18  C   UNL     1       1.422  -5.309  -8.200  0.00  0.00    +0.045 A 
BRANCH  17  19
ATOM     19  N   UNL     1       1.417  -7.021  -9.989  0.00  0.00    +0.056 N 
ATOM     20  O   UNL     1       0.821  -7.586 -10.876  0.00  0.00    -0.126 OA
ATOM     21  O   UNL     1       2.531  -7.379  -9.684  0.00  0.00    -0.126 OA
ENDBRANCH  17  19
ENDBRANCH  11  13
BRANCH   1  23
ATOM     22  C   UNL     1      -2.148  -1.834   1.008  0.00  0.00    +0.009 C 
ATOM     23  C   UNL     1      -1.399  -3.114   0.632  0.00  0.00    +0.032 C 
ENDBRANCH   1  23
BRANCH   6  24
ATOM     24  C   UNL     1       1.233  -1.911   0.627  0.00  0.00    +0.032 C 
ATOM     25  C   UNL     1       1.949  -3.112   1.248  0.00  0.00    +0.009 C 
ENDBRANCH   6  24
BRANCH   7  26
ATOM     26  C   UNL     1       2.861  -2.758  -4.186  0.00  0.00    +0.062 C 
BRANCH  26  27
ATOM     27  C   UNL     1       2.835  -4.202  -3.756  0.00  0.00    -0.038 A 
ATOM     28  C   UNL     1       2.721  -4.519  -2.416  0.00  0.00    +0.053 A 
ATOM     29  C   UNL     1       2.696  -5.847  -2.016  0.00  0.00    +0.165 A 
ATOM     30  C   UNL     1       2.786  -6.858  -2.964  0.00  0.00    +0.204 A 
ATOM     31  C   UNL     1       2.900  -6.535  -4.311  0.00  0.00    +0.165 A 
ATOM     32  C   UNL     1       2.918  -5.205  -4.703  0.00  0.00    +0.053 A 
BRANCH  31  33
ATOM     33  O   UNL     1       2.988  -7.521  -5.244  0.00  0.00    -0.491 OA
ATOM     34  C   UNL     1       3.207  -7.117  -6.596  0.00  0.00    +0.277 C 
ENDBRANCH  31  33
BRANCH  30  35
ATOM     35  O   UNL     1       2.762  -8.162  -2.576  0.00  0.00    -0.488 OA
ATOM     36  C   UNL     1       1.483  -8.794  -2.500  0.00  0.00    +0.277 C 
ENDBRANCH  30  35
BRANCH  29  37
ATOM     37  O   UNL     1       2.585  -6.159  -0.697  0.00  0.00    -0.491 OA
ATOM     38  C   UNL     1       2.655  -5.076   0.234  0.00  0.00    +0.277 C 
ENDBRANCH  29  37
ENDBRANCH  26  27
ENDBRANCH   7  26
TORSDOF 9
