REMARK  Name = ZINC09231307
REMARK  6 active torsions:
REMARK  status: ('A' for Active; 'I' for Inactive)
REMARK    1  A    between atoms: C_4  and  C_19
REMARK    2  A    between atoms: C_6  and  N_7
REMARK    3  A    between atoms: N_7  and  C_8
REMARK    4  A    between atoms: C_8  and  N_10
REMARK    5  A    between atoms: C_11  and  C_13
REMARK    6  A    between atoms: N_21  and  C_22
REMARK                            x       y       z     vdW  Elec       q    Type
REMARK                         _______ _______ _______ _____ _____    ______ ____
ROOT
ATOM      1  C   UNL     1      -3.714   2.921  -0.101  0.00  0.00    +0.025 A 
ATOM      2  C   UNL     1      -4.958   3.522  -0.146  0.00  0.00    +0.022 A 
ATOM      3  C   UNL     1      -6.104   2.751  -0.119  0.00  0.00    +0.053 A 
ATOM      4  C   UNL     1      -6.007   1.358  -0.046  0.00  0.00    +0.057 A 
ATOM      5  C   UNL     1      -4.750   0.753  -0.005  0.00  0.00    +0.037 A 
ATOM      6  C   UNL     1      -3.607   1.537  -0.027  0.00  0.00    +0.033 A 
ATOM      7 CL   UNL     1      -7.664   3.511  -0.175  0.00  0.00    -0.083 Cl
ENDROOT
BRANCH   4   8
ATOM      8  C   UNL     1      -7.230   0.530  -0.017  0.00  0.00    +0.246 C 
ATOM      9  O   UNL     1      -8.324   1.060  -0.056  0.00  0.00    -0.270 OA
ATOM     10  N   UNL     1      -7.134  -0.812   0.054  0.00  0.00    -0.308 N 
ATOM     11  H   UNL     1      -6.261  -1.235   0.085  0.00  0.00    +0.149 HD
BRANCH  10  12
ATOM     12  C   UNL     1      -8.347  -1.633   0.083  0.00  0.00    +0.073 C 
ATOM     13  C   UNL     1      -8.855  -1.741   1.522  0.00  0.00    +0.022 C 
ATOM     14  C   UNL     1     -10.122  -2.599   1.552  0.00  0.00    +0.002 C 
ATOM     15  C   UNL     1      -9.805  -3.997   1.017  0.00  0.00    +0.000 C 
ATOM     16  C   UNL     1      -9.296  -3.889  -0.422  0.00  0.00    +0.002 C 
ATOM     17  C   UNL     1      -8.029  -3.031  -0.452  0.00  0.00    +0.022 C 
ENDBRANCH  10  12
ENDBRANCH   4   8
BRANCH   6  18
ATOM     18  N   UNL     1      -2.345   0.934   0.018  0.00  0.00    -0.297 N 
ATOM     19  H   UNL     1      -1.631   1.261  -0.551  0.00  0.00    +0.154 HD
BRANCH  18  20
ATOM     20  C   UNL     1      -2.122  -0.100   0.853  0.00  0.00    +0.141 C 
ATOM     21  S   UNL     1      -3.337  -0.586   1.958  0.00  0.00    -0.018 S 
BRANCH  20  22
ATOM     22  N   UNL     1      -0.943  -0.752   0.818  0.00  0.00    -0.267 N 
ATOM     23  C   UNL     1      -0.718  -1.783   1.656  0.00  0.00    +0.222 C 
ATOM     24  O   UNL     1      -1.578  -2.127   2.439  0.00  0.00    -0.275 OA
ATOM     25  H   UNL     1      -0.255  -0.477   0.192  0.00  0.00    +0.157 HD
BRANCH  23  26
ATOM     26  C   UNL     1       0.603  -2.508   1.621  0.00  0.00    +0.075 C 
ATOM     27  C   UNL     1       0.818  -3.109   0.231  0.00  0.00    +0.013 C 
ATOM     28  C   UNL     1       2.159  -3.845   0.195  0.00  0.00    +0.001 C 
ATOM     29  C   UNL     1       2.154  -4.964   1.239  0.00  0.00    +0.000 C 
ATOM     30  C   UNL     1       1.939  -4.363   2.630  0.00  0.00    +0.001 C 
ATOM     31  C   UNL     1       0.598  -3.627   2.665  0.00  0.00    +0.013 C 
ENDBRANCH  23  26
ENDBRANCH  20  22
ENDBRANCH  18  20
ENDBRANCH   6  18
TORSDOF 6
