REMARK  Name = ZINC55502003
REMARK  6 active torsions:
REMARK  status: ('A' for Active; 'I' for Inactive)
REMARK    1  A    between atoms: C_1  and  C_2
REMARK    2  A    between atoms: C_5  and  N_8
REMARK    3  A    between atoms: C_9  and  C_11
REMARK    4  A    between atoms: C_11  and  C_12
REMARK    5  A    between atoms: C_18  and  C_24
REMARK    6  A    between atoms: C_19  and  C_23
REMARK                            x       y       z     vdW  Elec       q    Type
REMARK                         _______ _______ _______ _____ _____    ______ ____
ROOT
ATOM      1  C   UNL     1       0.423  -6.859   2.535  0.00  0.00    +0.120 A 
ATOM      2  N   UNL     1       0.558  -8.192   2.755  0.00  0.00    -0.310 N 
ATOM      3  H   UNL     1       0.580  -8.799   1.998  0.00  0.00    +0.170 HD
ATOM      4  C   UNL     1       0.664  -8.688   4.002  0.00  0.00    +0.260 A 
ATOM      5  O   UNL     1       0.785  -9.887   4.182  0.00  0.00    -0.267 OA
ATOM      6  C   UNL     1       0.631  -7.785   5.112  0.00  0.00    +0.080 A 
ATOM      7  C   UNL     1       0.726  -8.073   6.538  0.00  0.00    +0.007 A 
ATOM      8  C   UNL     1       0.670  -7.043   7.416  0.00  0.00    -0.003 A 
ATOM      9  S   UNL     1       0.486  -5.615   6.365  0.00  0.00    -0.073 S 
ATOM     10  C   UNL     1       0.488  -6.426   4.788  0.00  0.00    +0.116 A 
ATOM     11  N   UNL     1       0.395  -6.010   3.527  0.00  0.00    -0.226 NA
ATOM     12  C   UNL     1       0.746  -7.092   8.921  0.00  0.00    +0.052 C 
ENDROOT
BRANCH   7  13
ATOM     13  C   UNL     1       0.879  -9.467   7.019  0.00  0.00    -0.016 A 
ATOM     14  C   UNL     1      -0.140 -10.395   6.810  0.00  0.00    +0.008 A 
ATOM     15  C   UNL     1       0.008 -11.692   7.259  0.00  0.00    +0.001 A 
ATOM     16  C   UNL     1       1.166 -12.071   7.915  0.00  0.00    +0.000 A 
ATOM     17  C   UNL     1       2.181 -11.155   8.124  0.00  0.00    +0.001 A 
ATOM     18  C   UNL     1       2.046  -9.857   7.675  0.00  0.00    +0.008 A 
ENDBRANCH   7  13
BRANCH   1  19
ATOM     19  C   UNL     1       0.309  -6.349   1.121  0.00  0.00    +0.170 C 
BRANCH  19  21
ATOM     20  N   UNL     1       0.059  -4.170  -0.021  0.00  0.00    -0.285 N 
ATOM     21  C   UNL     1       0.175  -4.848   1.138  0.00  0.00    +0.225 C 
ATOM     22  O   UNL     1       0.173  -4.251   2.193  0.00  0.00    -0.275 OA
ATOM     23  H   UNL     1      -0.017  -4.651  -0.860  0.00  0.00    +0.155 HD
BRANCH  20  28
ATOM     24  C   UNL     1       0.008   1.503   0.007  0.00  0.00    +0.044 C 
ATOM     25  C   UNL     1       0.022  -0.004  -0.001  0.00  0.00    -0.050 A 
ATOM     26  C   UNL     1       0.777  -0.692   0.931  0.00  0.00    +0.005 A 
ATOM     27  C   UNL     1       0.791  -2.073   0.927  0.00  0.00    +0.023 A 
ATOM     28  C   UNL     1       0.046  -2.771  -0.014  0.00  0.00    +0.033 A 
ATOM     29  C   UNL     1      -0.712  -2.077  -0.948  0.00  0.00    +0.023 A 
ATOM     30  C   UNL     1      -0.726  -0.696  -0.936  0.00  0.00    +0.005 A 
ENDBRANCH  20  28
ENDBRANCH  19  21
ENDBRANCH   1  19
TORSDOF 4
