REMARK  Name = ZINC39747570
REMARK  4 active torsions:
REMARK  status: ('A' for Active; 'I' for Inactive)
REMARK    1  A    between atoms: C_1  and  C_2
REMARK    2  A    between atoms: C_9  and  C_11
REMARK    3  A    between atoms: C_11  and  N_12
REMARK    4  A    between atoms: C_13  and  C_18
REMARK                            x       y       z     vdW  Elec       q    Type
REMARK                         _______ _______ _______ _____ _____    ______ ____
ROOT
ATOM      1  N   UNL     1      -3.066  -3.999   5.465  0.00  0.00    -0.293 N 
ATOM      2  C   UNL     1      -4.169  -3.264   5.834  0.00  0.00    +0.165 A 
ATOM      3  N   UNL     1      -5.211  -4.057   5.731  0.00  0.00    -0.128 NA
ATOM      4  N   UNL     1      -4.839  -5.220   5.330  0.00  0.00    -0.121 NA
ATOM      5  C   UNL     1      -3.538  -5.240   5.146  0.00  0.00    +0.203 A 
ATOM      6  S   UNL     1      -2.581  -6.612   4.595  0.00  0.00    -0.009 SA
ENDROOT
BRANCH   2   7
ATOM      7  C   UNL     1      -4.180  -1.850   6.264  0.00  0.00    +0.019 A 
ATOM      8  C   UNL     1      -3.100  -1.018   5.964  0.00  0.00    +0.013 A 
ATOM      9  C   UNL     1      -3.116   0.300   6.368  0.00  0.00    +0.021 A 
ATOM     10  C   UNL     1      -4.201   0.800   7.069  0.00  0.00    +0.041 A 
ATOM     11  C   UNL     1      -5.276  -0.021   7.369  0.00  0.00    +0.021 A 
ATOM     12  C   UNL     1      -5.274  -1.340   6.966  0.00  0.00    +0.013 A 
ATOM     13 CL   UNL     1      -4.214   2.460   7.575  0.00  0.00    -0.084 Cl
ENDBRANCH   2   7
BRANCH   1  14
ATOM     14  C   UNL     1      -1.674  -3.542   5.419  0.00  0.00    +0.221 C 
BRANCH  14  22
ATOM     15  C   UNL     1       1.076   0.865   0.301  0.00  0.00    +0.021 C 
ATOM     16  C   UNL     1       1.061  -0.658   0.445  0.00  0.00    +0.068 C 
ATOM     17  C   UNL     1      -0.375  -1.213   0.334  0.00  0.00    +0.117 C 
ATOM     18  N   UNL     1      -0.775  -1.875   1.558  0.00  0.00    -0.326 N 
ATOM     19  C   UNL     1       0.080  -1.940   2.604  0.00  0.00    +0.126 C 
ATOM     20  S   UNL     1       1.498  -1.165   2.153  0.00  0.00    -0.090 S 
ATOM     21  N   UNL     1      -0.160  -2.513   3.777  0.00  0.00    -0.267 N 
ATOM     22  C   UNL     1      -1.372  -2.989   4.050  0.00  0.00    +0.238 C 
ATOM     23  O   UNL     1      -2.236  -2.977   3.195  0.00  0.00    -0.273 OA
ATOM     24  H   UNL     1      -1.658  -2.272   1.629  0.00  0.00    +0.148 HD
ATOM     25  H   UNL     1       0.549  -2.586   4.436  0.00  0.00    +0.157 HD
ENDBRANCH  14  22
ENDBRANCH   1  14
TORSDOF 3
