REMARK  Name = ZINC66088866
REMARK  9 active torsions:
REMARK  status: ('A' for Active; 'I' for Inactive)
REMARK    1  A    between atoms: C_1  and  C_2
REMARK    2  A    between atoms: C_5  and  N_8
REMARK    3  A    between atoms: N_8  and  C_9
REMARK    4  A    between atoms: C_9  and  C_10
REMARK    5  A    between atoms: C_11  and  C_25
REMARK    6  A    between atoms: N_13  and  C_18
REMARK    7  A    between atoms: C_16  and  O_17
REMARK    8  A    between atoms: C_21  and  O_24
REMARK    9  A    between atoms: C_29  and  O_31
REMARK                            x       y       z     vdW  Elec       q    Type
REMARK                         _______ _______ _______ _____ _____    ______ ____
ROOT
ATOM      1  C   UNL     1       0.295  -6.335   1.165  0.00  0.00    +0.045 C 
ATOM      2  C   UNL     1       0.412  -7.243   2.368  0.00  0.00    +0.148 C 
ATOM      3  N   UNL     1       0.500  -8.608   1.834  0.00  0.00    -0.253 N 
ATOM      4  C   UNL     1       0.444  -8.529   0.492  0.00  0.00    +0.287 C 
ATOM      5  O   UNL     1       0.490  -9.482  -0.264  0.00  0.00    -0.266 OA
ATOM      6  C   UNL     1       0.311  -7.133   0.073  0.00  0.00    +0.187 C 
ENDROOT
BRANCH   3   7
ATOM      7  C   UNL     1       0.622  -9.782   2.587  0.00  0.00    +0.038 A 
ATOM      8  C   UNL     1       0.664  -9.716   3.974  0.00  0.00    +0.027 A 
ATOM      9  C   UNL     1       0.784 -10.875   4.716  0.00  0.00    +0.047 A 
ATOM     10  C   UNL     1       0.863 -12.104   4.076  0.00  0.00    +0.117 A 
ATOM     11  C   UNL     1       0.821 -12.170   2.691  0.00  0.00    +0.047 A 
ATOM     12  C   UNL     1       0.696 -11.013   1.948  0.00  0.00    +0.027 A 
BRANCH  10  13
ATOM     13  O   UNL     1       0.981 -13.244   4.808  0.00  0.00    -0.507 OA
ATOM     14  H   UNL     1       0.135 -13.646   5.049  0.00  0.00    +0.292 HD
ENDBRANCH  10  13
ENDBRANCH   3   7
BRANCH   2  15
ATOM     15  C   UNL     1       1.655  -6.909   3.152  0.00  0.00    -0.019 A 
ATOM     16  C   UNL     1       2.890  -7.350   2.710  0.00  0.00    +0.006 A 
ATOM     17  C   UNL     1       4.032  -7.045   3.427  0.00  0.00    +0.004 A 
ATOM     18  C   UNL     1       3.942  -6.300   4.587  0.00  0.00    +0.045 A 
ATOM     19  C   UNL     1       2.705  -5.857   5.032  0.00  0.00    +0.117 A 
ATOM     20  C   UNL     1       1.561  -6.159   4.307  0.00  0.00    +0.051 A 
BRANCH  19  21
ATOM     21  O   UNL     1       2.615  -5.124   6.173  0.00  0.00    -0.507 OA
ATOM     22  H   UNL     1       2.686  -4.170   6.034  0.00  0.00    +0.292 HD
ENDBRANCH  19  21
ENDBRANCH   2  15
BRANCH   1  23
ATOM     23  C   UNL     1       0.180  -4.872   1.181  0.00  0.00    +0.033 C 
ATOM     24  C   UNL     1       0.177  -4.212   2.348  0.00  0.00    +0.034 C 
BRANCH  23  25
ATOM     25  N   UNL     1       0.072  -4.167  -0.021  0.00  0.00    -0.315 N 
ATOM     26  H   UNL     1      -0.024  -4.647  -0.859  0.00  0.00    +0.152 HD
BRANCH  25  31
ATOM     27  C   UNL     1       0.199   1.503  -0.003  0.00  0.00    +0.044 C 
ATOM     28  C   UNL     1       0.166  -0.004  -0.008  0.00  0.00    -0.050 A 
ATOM     29  C   UNL     1      -0.738  -0.671  -0.815  0.00  0.00    +0.005 A 
ATOM     30  C   UNL     1      -0.772  -2.051  -0.822  0.00  0.00    +0.023 A 
ATOM     31  C   UNL     1       0.104  -2.770  -0.017  0.00  0.00    +0.031 A 
ATOM     32  C   UNL     1       1.011  -2.096   0.792  0.00  0.00    +0.023 A 
ATOM     33  C   UNL     1       1.042  -0.716   0.790  0.00  0.00    +0.005 A 
ENDBRANCH  25  31
ENDBRANCH  23  25
ENDBRANCH   1  23
BRANCH   6  34
ATOM     34  O   UNL     1       0.222  -6.704  -1.214  0.00  0.00    -0.502 OA
ATOM     35  H   UNL     1       0.250  -7.416  -1.868  0.00  0.00    +0.292 HD
ENDBRANCH   6  34
TORSDOF 8
