REMARK  Name = ZINC42439471
REMARK  4 active torsions:
REMARK  status: ('A' for Active; 'I' for Inactive)
REMARK    1  A    between atoms: C_1  and  C_2
REMARK    2  A    between atoms: C_6  and  C_17
REMARK    3  A    between atoms: N_12  and  C_13
REMARK    4  A    between atoms: C_13  and  C_14
REMARK                            x       y       z     vdW  Elec       q    Type
REMARK                         _______ _______ _______ _____ _____    ______ ____
ROOT
ATOM      1  C   UNL     1       0.015   1.527  -0.010  0.00  0.00    +0.028 C 
ATOM      2  C   UNL     1       0.016  -0.003  -0.007  0.00  0.00    +0.074 C 
ATOM      3  C   UNL     1       0.633  -0.518  -1.312  0.00  0.00    +0.023 C 
ATOM      4  C   UNL     1       0.759  -2.042  -1.244  0.00  0.00    +0.016 C 
ATOM      5  C   UNL     1       1.684  -2.428  -0.087  0.00  0.00    +0.092 C 
ATOM      6  C   UNL     1       1.079  -1.934   1.231  0.00  0.00    +0.122 C 
ATOM      7  N   UNL     1       0.817  -0.492   1.123  0.00  0.00    -0.282 N 
ATOM      8  C   UNL     1       1.304   0.365   2.042  0.00  0.00    +0.303 C 
ATOM      9  O   UNL     1       0.995   1.540   2.001  0.00  0.00    -0.253 OA
ATOM     10  N   UNL     1       2.134  -0.080   3.006  0.00  0.00    -0.289 N 
ATOM     11  H   UNL     1       2.440  -1.001   2.995  0.00  0.00    +0.151 HD
ENDROOT
BRANCH   5  12
ATOM     12  C   UNL     1       3.035  -1.794  -0.290  0.00  0.00    +0.215 C 
ATOM     13  O   UNL     1       3.240  -1.100  -1.264  0.00  0.00    -0.276 OA
ATOM     14  N   UNL     1       4.017  -1.996   0.611  0.00  0.00    -0.329 N 
ATOM     15  H   UNL     1       3.853  -2.551   1.390  0.00  0.00    +0.145 HD
ATOM     16  H   UNL     1       4.887  -1.588   0.480  0.00  0.00    +0.145 HD
ENDBRANCH   5  12
BRANCH  10  17
ATOM     17  C   UNL     1       2.574   0.826   4.070  0.00  0.00    +0.231 C 
BRANCH  17  18
ATOM     18  C   UNL     1       3.489   0.087   5.012  0.00  0.00    +0.373 C 
ATOM     19  O   UNL     1       3.750  -1.087   4.814  0.00  0.00    -0.245 OA
ATOM     20  O   UNL     1       3.969   0.664   5.973  0.00  0.00    -0.245 OA
ENDBRANCH  17  18
ENDBRANCH  10  17
TORSDOF 3
