REMARK  Name = ZINC04523115
REMARK  6 active torsions:
REMARK  status: ('A' for Active; 'I' for Inactive)
REMARK    1  A    between atoms: C_1  and  C_2
REMARK    2  A    between atoms: C_4  and  N_10
REMARK    3  A    between atoms: C_5  and  N_9
REMARK    4  A    between atoms: C_7  and  N_8
REMARK    5  A    between atoms: N_11  and  C_12
REMARK    6  A    between atoms: C_15  and  S_18
REMARK                            x       y       z     vdW  Elec       q    Type
REMARK                         _______ _______ _______ _____ _____    ______ ____
ROOT
ATOM      1  C   UNL     1       2.483   1.041  -0.016  0.00  0.00    +0.046 C 
ATOM      2  C   UNL     1       1.169   1.780   0.001  0.00  0.00    -0.028 A 
ATOM      3  C   UNL     1      -0.013   1.076   0.008  0.00  0.00    +0.036 A 
ATOM      4  C   UNL     1      -1.234   1.759   0.018  0.00  0.00    +0.107 A 
ATOM      5  C   UNL     1      -1.246   3.166   0.032  0.00  0.00    +0.054 A 
ATOM      6  C   UNL     1      -0.049   3.863   0.024  0.00  0.00    +0.048 A 
ATOM      7  C   UNL     1       1.157   3.173   0.008  0.00  0.00    +0.029 A 
ENDROOT
BRANCH   7   8
ATOM      8  N   UNL     1       2.358   3.877   0.000  0.00  0.00    -0.358 N 
ATOM      9  H   UNL     1       3.201   3.398  -0.010  0.00  0.00    +0.142 HD
ATOM     10  H   UNL     1       2.352   4.847   0.006  0.00  0.00    +0.142 HD
ENDBRANCH   7   8
BRANCH   5  11
ATOM     11  N   UNL     1      -2.454   3.854   0.048  0.00  0.00    -0.356 N 
ATOM     12  H   UNL     1      -2.461   4.824   0.054  0.00  0.00    +0.142 HD
ATOM     13  H   UNL     1      -3.292   3.364   0.054  0.00  0.00    +0.142 HD
ENDBRANCH   5  11
BRANCH   4  14
ATOM     14  N   UNL     1      -2.405   1.066   0.019  0.00  0.00    -0.147 NA
ATOM     15  N   UNL     1      -2.391  -0.224   0.011  0.00  0.00    -0.149 NA
BRANCH  15  16
ATOM     16  C   UNL     1      -3.568  -0.921   0.012  0.00  0.00    +0.086 A 
ATOM     17  C   UNL     1      -4.787  -0.239   0.028  0.00  0.00    +0.031 A 
ATOM     18  C   UNL     1      -5.970  -0.948   0.024  0.00  0.00    +0.032 A 
ATOM     19  C   UNL     1      -5.951  -2.332   0.015  0.00  0.00    +0.120 A 
ATOM     20  C   UNL     1      -4.747  -3.014   0.006  0.00  0.00    +0.032 A 
ATOM     21  C   UNL     1      -3.556  -2.318   0.004  0.00  0.00    +0.031 A 
BRANCH  19  22
ATOM     22  S   UNL     1      -7.467  -3.229   0.017  0.00  0.00    +0.140 S 
ATOM     23  O   UNL     1      -8.453  -2.361  -0.525  0.00  0.00    -0.140 OA
ATOM     24  O   UNL     1      -7.184  -4.505  -0.543  0.00  0.00    -0.140 OA
ATOM     25  O   UNL     1      -7.848  -3.468   1.471  0.00  0.00    -0.043 OA
ENDBRANCH  19  22
ENDBRANCH  15  16
ENDBRANCH   4  14
TORSDOF 5
