REMARK  Name = ZINC21725514
REMARK  2 active torsions:
REMARK  status: ('A' for Active; 'I' for Inactive)
REMARK    1  A    between atoms: C_15  and  C_21
REMARK    2  A    between atoms: C_25  and  O_27
REMARK                            x       y       z     vdW  Elec       q    Type
REMARK                         _______ _______ _______ _____ _____    ______ ____
ROOT
ATOM      1  C   UNL     1       8.760   5.718   5.677  0.00  0.00    +0.002 A 
ATOM      2  C   UNL     1       9.045   6.564   4.615  0.00  0.00    +0.001 A 
ATOM      3  C   UNL     1       8.396   6.380   3.408  0.00  0.00    +0.017 A 
ATOM      4  C   UNL     1       7.482   5.364   3.279  0.00  0.00    +0.041 A 
ATOM      5  C   UNL     1       7.166   4.483   4.338  0.00  0.00    +0.081 A 
ATOM      6  C   UNL     1       7.849   4.702   5.558  0.00  0.00    +0.029 A 
ATOM      7  N   UNL     1       6.247   3.535   4.056  0.00  0.00    -0.221 NA
ATOM      8  C   UNL     1       5.679   3.431   2.878  0.00  0.00    +0.196 A 
ATOM      9  S   UNL     1       6.448   4.762   1.966  0.00  0.00    -0.048 S 
ATOM     10  N   UNL     1       4.727   2.515   2.447  0.00  0.00    -0.194 N 
ATOM     11  C   UNL     1       4.176   2.457   1.215  0.00  0.00    +0.134 A 
ATOM     12  C   UNL     1       3.290   1.412   1.206  0.00  0.00    +0.020 A 
ATOM     13  C   UNL     1       3.306   0.827   2.465  0.00  0.00    +0.141 A 
ATOM     14  N   UNL     1       4.163   1.482   3.213  0.00  0.00    -0.171 NA
ATOM     15  C   UNL     1       2.489   1.048  -0.017  0.00  0.00    +0.063 C 
ATOM     16  C   UNL     1       3.291   1.453  -1.257  0.00  0.00    +0.109 C 
ATOM     17  C   UNL     1       3.903   2.815  -1.094  0.00  0.00    +0.219 C 
ATOM     18  O   UNL     1       3.968   3.546  -2.059  0.00  0.00    -0.275 OA
ATOM     19  N   UNL     1       4.383   3.252   0.089  0.00  0.00    -0.270 N 
ATOM     20  H   UNL     1       4.924   4.206   0.182  0.00  0.00    +0.156 HD
ENDROOT
BRANCH  15  21
ATOM     21  C   UNL     1       1.174   1.783   0.000  0.00  0.00    -0.036 A 
ATOM     22  C   UNL     1       1.156   3.166   0.008  0.00  0.00    +0.004 A 
ATOM     23  C   UNL     1      -0.049   3.844   0.023  0.00  0.00    +0.004 A 
ATOM     24  C   UNL     1      -1.239   3.141   0.031  0.00  0.00    +0.045 A 
ATOM     25  C   UNL     1      -1.223   1.754   0.017  0.00  0.00    +0.117 A 
ATOM     26  C   UNL     1      -0.013   1.076   0.008  0.00  0.00    +0.049 A 
BRANCH  25  27
ATOM     27  O   UNL     1      -2.392   1.060   0.019  0.00  0.00    -0.507 OA
ATOM     28  H   UNL     1      -2.378  -0.040   0.008  0.00  0.00    +0.292 HD
ENDBRANCH  25  27
ENDBRANCH  15  21
TORSDOF 2
