REMARK  Name = ZINC44451665
REMARK  3 active torsions:
REMARK  status: ('A' for Active; 'I' for Inactive)
REMARK    1  A    between atoms: C_6  and  N_7
REMARK    2  A    between atoms: N_10  and  C_11
REMARK    3  A    between atoms: C_17  and  N_19
REMARK                            x       y       z     vdW  Elec       q    Type
REMARK                         _______ _______ _______ _____ _____    ______ ____
ROOT
ATOM      1  N   UNL     1      -1.201  -0.722   0.010  0.00  0.00    -0.269 N 
ATOM      2  C   UNL     1      -1.185  -2.065  -0.099  0.00  0.00    +0.304 C 
ATOM      3  O   UNL     1      -0.125  -2.661  -0.113  0.00  0.00    -0.253 OA
ATOM      4  N   UNL     1      -2.343  -2.747  -0.193  0.00  0.00    -0.295 N 
ATOM      5  H   UNL     1      -2.045  -0.252   0.099  0.00  0.00    +0.156 HD
ATOM      6  H   UNL     1      -3.188  -2.272  -0.182  0.00  0.00    +0.151 HD
ENDROOT
BRANCH   1  12
ATOM      7  C   UNL     1       1.071  -0.454  -0.767  0.00  0.00    +0.026 A 
ATOM      8  C   UNL     1       2.256   0.256  -0.781  0.00  0.00    +0.040 A 
ATOM      9  C   UNL     1       2.377   1.416  -0.034  0.00  0.00    +0.124 A 
ATOM     10  C   UNL     1       1.312   1.867   0.727  0.00  0.00    +0.040 A 
ATOM     11  C   UNL     1       0.126   1.159   0.744  0.00  0.00    +0.026 A 
ATOM     12  C   UNL     1       0.002  -0.004  -0.005  0.00  0.00    +0.035 A 
ATOM     13  F   UNL     1       3.537   2.109  -0.049  0.00  0.00    -0.205 F 
ENDBRANCH   1  12
BRANCH   4  14
ATOM     14  C   UNL     1      -2.326  -4.207  -0.311  0.00  0.00    +0.095 C 
ATOM     15  C   UNL     1      -2.241  -4.831   1.083  0.00  0.00    +0.024 C 
ATOM     16  C   UNL     1      -2.223  -6.356   0.959  0.00  0.00    +0.002 C 
ATOM     17  C   UNL     1      -3.503  -6.827   0.267  0.00  0.00    +0.002 C 
ATOM     18  C   UNL     1      -3.588  -6.203  -1.127  0.00  0.00    +0.025 C 
ATOM     19  C   UNL     1      -3.606  -4.678  -1.004  0.00  0.00    +0.105 C 
BRANCH  19  20
ATOM     20  N   UNL     1      -3.687  -4.081  -2.339  0.00  0.00    -0.228 N 
ATOM     21  C   UNL     1      -4.723  -3.306  -2.617  0.00  0.00    +0.233 C 
ATOM     22  O   UNL     1      -5.597  -3.078  -1.808  0.00  0.00    -0.274 OA
ATOM     23  C   UNL     1      -4.740  -2.720  -4.021  0.00  0.00    +0.175 C 
ATOM     24  S   UNL     1      -3.182  -3.444  -4.683  0.00  0.00    -0.058 S 
ATOM     25  C   UNL     1      -2.702  -4.345  -3.216  0.00  0.00    +0.281 C 
ATOM     26  O   UNL     1      -1.715  -5.036  -3.050  0.00  0.00    -0.262 OA
ENDBRANCH  19  20
ENDBRANCH   4  14
TORSDOF 3
