REMARK  Name = ZINC36556557
REMARK  16 active torsions:
REMARK  status: ('A' for Active; 'I' for Inactive)
REMARK    1  A    between atoms: C_1  and  C_2
REMARK    2  A    between atoms: C_7  and  C_8
REMARK    3  A    between atoms: C_8  and  C_9
REMARK    4  A    between atoms: N_11  and  C_12
REMARK    5  A    between atoms: N_11  and  C_19
REMARK    6  A    between atoms: C_12  and  C_13
REMARK    7  A    between atoms: C_16  and  C_18
REMARK    8  A    between atoms: C_19  and  C_21
REMARK    9  A    between atoms: C_19  and  C_30
REMARK   10  A    between atoms: C_22  and  O_29
REMARK   11  A    between atoms: C_24  and  O_28
REMARK   12  A    between atoms: C_26  and  O_27
REMARK   13  A    between atoms: N_32  and  C_33
REMARK   14  A    between atoms: C_33  and  C_34
REMARK   15  A    between atoms: C_33  and  C_35
REMARK   16  A    between atoms: C_33  and  C_36
REMARK                            x       y       z     vdW  Elec       q    Type
REMARK                         _______ _______ _______ _____ _____    ______ ____
ROOT
ATOM      1  C   UNL     1      -2.589   1.302   4.285  0.00  0.00    +0.200 C 
ENDROOT
BRANCH   1   2
ATOM      2  C   UNL     1      -3.421   0.149   4.785  0.00  0.00    +0.065 A 
ATOM      3  C   UNL     1      -2.833  -0.855   5.540  0.00  0.00    +0.129 A 
ATOM      4  C   UNL     1      -3.599  -1.915   6.000  0.00  0.00    +0.091 A 
ATOM      5  C   UNL     1      -4.953  -1.971   5.707  0.00  0.00    +0.124 A 
ATOM      6  C   UNL     1      -5.542  -0.967   4.953  0.00  0.00    +0.091 A 
ATOM      7  C   UNL     1      -4.777   0.096   4.497  0.00  0.00    +0.129 A 
BRANCH   7   8
ATOM      8  O   UNL     1      -5.354   1.083   3.762  0.00  0.00    -0.506 OA
ATOM      9  H   UNL     1      -5.346   0.920   2.809  0.00  0.00    +0.292 HD
ENDBRANCH   7   8
BRANCH   5  10
ATOM     10  O   UNL     1      -5.704  -3.011   6.158  0.00  0.00    -0.507 OA
ATOM     11  H   UNL     1      -6.100  -2.862   7.027  0.00  0.00    +0.292 HD
ENDBRANCH   5  10
BRANCH   3  12
ATOM     12  O   UNL     1      -1.506  -0.800   5.828  0.00  0.00    -0.506 OA
ATOM     13  H   UNL     1      -1.306  -0.404   6.687  0.00  0.00    +0.292 HD
ENDBRANCH   3  12
ENDBRANCH   1   2
BRANCH   1  14
ATOM     14  C   UNL     1      -2.263   2.222   5.433  0.00  0.00    +0.239 C 
ATOM     15  O   UNL     1      -1.133   2.638   5.575  0.00  0.00    -0.273 OA
ATOM     16  N   UNL     1      -3.227   2.582   6.303  0.00  0.00    -0.309 N 
ATOM     17  H   UNL     1      -4.110   2.185   6.240  0.00  0.00    +0.149 HD
BRANCH  16  18
ATOM     18  C   UNL     1      -2.942   3.574   7.343  0.00  0.00    +0.026 C 
ATOM     19  C   UNL     1      -2.570   4.906   6.689  0.00  0.00    +0.031 C 
ATOM     20  C   UNL     1      -4.182   3.765   8.219  0.00  0.00    +0.031 C 
ATOM     21  C   UNL     1      -1.778   3.087   8.207  0.00  0.00    +0.031 C 
ENDBRANCH  16  18
ENDBRANCH   1  14
BRANCH   1  24
ATOM     22  C   UNL     1      -1.365   0.196   2.492  0.00  0.00    +0.221 C 
ATOM     23  O   UNL     1      -2.410   0.086   1.886  0.00  0.00    -0.275 OA
ATOM     24  N   UNL     1      -1.347   0.789   3.702  0.00  0.00    -0.278 N 
BRANCH  22  25
ATOM     25  C   UNL     1      -0.087  -0.331   1.891  0.00  0.00    +0.131 C 
BRANCH  25  32
ATOM     26  C   UNL     1      -0.179   1.340  -0.464  0.00  0.00    +0.044 C 
ATOM     27  C   UNL     1      -0.423  -0.143  -0.582  0.00  0.00    -0.047 A 
ATOM     28  C   UNL     1      -0.685  -0.705  -1.818  0.00  0.00    +0.003 A 
ATOM     29  C   UNL     1      -0.909  -2.064  -1.925  0.00  0.00    +0.000 A 
ATOM     30  C   UNL     1      -0.870  -2.863  -0.797  0.00  0.00    +0.000 A 
ATOM     31  C   UNL     1      -0.607  -2.301   0.438  0.00  0.00    +0.004 A 
ATOM     32  C   UNL     1      -0.379  -0.942   0.545  0.00  0.00    -0.036 A 
ENDBRANCH  25  32
ENDBRANCH  22  25
BRANCH  24  33
ATOM     33  C   UNL     1      -0.085   0.922   4.433  0.00  0.00    +0.183 C 
BRANCH  33  34
ATOM     34  C   UNL     1       0.701   2.080   3.874  0.00  0.00    +0.122 A 
ATOM     35  C   UNL     1       0.787   3.308   4.417  0.00  0.00    +0.046 A 
ATOM     36  C   UNL     1       1.621   4.073   3.569  0.00  0.00    +0.045 A 
ATOM     37  C   UNL     1       1.994   3.267   2.558  0.00  0.00    +0.102 A 
ATOM     38  O   UNL     1       1.438   2.060   2.751  0.00  0.00    -0.463 OA
ATOM     39  C   UNL     1       2.887   3.653   1.408  0.00  0.00    +0.086 C 
ENDBRANCH  33  34
ENDBRANCH  24  33
ENDBRANCH   1  24
TORSDOF 11
