REMARK  Name = ZINC64775484
REMARK  7 active torsions:
REMARK  status: ('A' for Active; 'I' for Inactive)
REMARK    1  A    between atoms: C_1  and  O_2
REMARK    2  A    between atoms: O_2  and  C_3
REMARK    3  A    between atoms: C_6  and  C_9
REMARK    4  A    between atoms: C_15  and  C_20
REMARK    5  A    between atoms: N_22  and  C_23
REMARK    6  A    between atoms: C_26  and  S_29
REMARK    7  A    between atoms: S_29  and  N_32
REMARK                            x       y       z     vdW  Elec       q    Type
REMARK                         _______ _______ _______ _____ _____    ______ ____
ROOT
ATOM      1  C   UNL     1       2.459  -1.680  -5.101  0.00  0.00    +0.032 C 
ATOM      2  C   UNL     1       1.676  -2.961  -5.371  0.00  0.00    +0.062 C 
ATOM      3  C   UNL     1       2.272  -3.737  -6.518  0.00  0.00    +0.030 A 
ATOM      4  C   UNL     1       3.598  -3.577  -6.885  0.00  0.00    +0.038 A 
ATOM      5  C   UNL     1       4.144  -4.321  -7.953  0.00  0.00    +0.031 A 
ATOM      6  C   UNL     1       3.327  -5.211  -8.636  0.00  0.00    +0.102 A 
ATOM      7  C   UNL     1       1.930  -5.335  -8.211  0.00  0.00    +0.261 A 
ATOM      8  O   UNL     1       1.182  -6.104  -8.788  0.00  0.00    -0.267 OA
ATOM      9  N   UNL     1       1.477  -4.599  -7.183  0.00  0.00    -0.325 N 
ATOM     10  H   UNL     1       0.551  -4.690  -6.912  0.00  0.00    +0.169 HD
ATOM     11  C   UNL     1       4.459  -2.621  -6.168  0.00  0.00    +0.165 C 
ATOM     12  O   UNL     1       5.551  -2.317  -6.600  0.00  0.00    -0.292 OA
ATOM     13  C   UNL     1       3.937  -2.028  -4.877  0.00  0.00    +0.088 C 
ENDROOT
BRANCH   1  17
ATOM     14  C   UNL     1       0.900   0.235  -1.613  0.00  0.00    +0.120 A 
ATOM     15  C   UNL     1       0.892   0.898  -2.832  0.00  0.00    +0.046 A 
ATOM     16  C   UNL     1       1.397   0.277  -3.958  0.00  0.00    +0.007 A 
ATOM     17  C   UNL     1       1.910  -1.004  -3.871  0.00  0.00    -0.043 A 
ATOM     18  C   UNL     1       1.919  -1.667  -2.657  0.00  0.00    +0.007 A 
ATOM     19  C   UNL     1       1.421  -1.048  -1.527  0.00  0.00    +0.046 A 
BRANCH  14  21
ATOM     20  C   UNL     1      -0.115   2.166  -0.667  0.00  0.00    +0.277 C 
ATOM     21  O   UNL     1       0.405   0.845  -0.504  0.00  0.00    -0.495 OA
ENDBRANCH  14  21
ENDBRANCH   1  17
BRANCH   6  22
ATOM     22  C   UNL     1       3.850  -6.009  -9.757  0.00  0.00    +0.254 C 
ATOM     23  O   UNL     1       4.980  -5.819 -10.164  0.00  0.00    -0.270 OA
ATOM     24  N   UNL     1       3.076  -6.951 -10.332  0.00  0.00    -0.281 N 
ATOM     25  H   UNL     1       2.150  -7.051 -10.060  0.00  0.00    +0.155 HD
BRANCH  24  26
ATOM     26  C   UNL     1       3.607  -7.784 -11.322  0.00  0.00    +0.034 A 
ATOM     27  C   UNL     1       4.941  -8.168 -11.266  0.00  0.00    +0.025 A 
ATOM     28  C   UNL     1       5.463  -8.991 -12.244  0.00  0.00    +0.030 A 
ATOM     29  C   UNL     1       4.659  -9.433 -13.280  0.00  0.00    +0.105 A 
ATOM     30  C   UNL     1       3.331  -9.052 -13.338  0.00  0.00    +0.030 A 
ATOM     31  C   UNL     1       2.801  -8.233 -12.360  0.00  0.00    +0.025 A 
BRANCH  29  32
ATOM     32  S   UNL     1       5.329 -10.482 -14.526  0.00  0.00    +0.056 S 
ATOM     33  O   UNL     1       4.515 -10.314 -15.679  0.00  0.00    -0.153 OA
ATOM     34  O   UNL     1       6.730 -10.250 -14.543  0.00  0.00    -0.153 OA
BRANCH  32  35
ATOM     35  N   UNL     1       5.113 -12.044 -14.019  0.00  0.00    -0.204 NA
ATOM     36  H   UNL     1       4.995 -12.753 -14.670  0.00  0.00    +0.144 HD
ATOM     37  H   UNL     1       5.105 -12.249 -13.071  0.00  0.00    +0.144 HD
ENDBRANCH  32  35
ENDBRANCH  29  32
ENDBRANCH  24  26
ENDBRANCH   6  22
TORSDOF 6
