REMARK  Name = ZINC31944273
REMARK  6 active torsions:
REMARK  status: ('A' for Active; 'I' for Inactive)
REMARK    1  A    between atoms: C_1  and  C_2
REMARK    2  A    between atoms: C_6  and  C_14
REMARK    3  A    between atoms: N_7  and  C_10
REMARK    4  A    between atoms: C_10  and  C_11
REMARK    5  A    between atoms: C_11  and  N_13
REMARK    6  A    between atoms: C_16  and  C_17
REMARK                            x       y       z     vdW  Elec       q    Type
REMARK                         _______ _______ _______ _____ _____    ______ ____
ROOT
ATOM      1  C   UNL     1      -3.972   2.840   0.050  0.00  0.00    +0.046 C 
ATOM      2  C   UNL     1      -3.724   1.353   0.033  0.00  0.00    -0.017 A 
ATOM      3  C   UNL     1      -4.801   0.464   0.027  0.00  0.00    +0.076 A 
ATOM      4  C   UNL     1      -4.465  -0.909   0.018  0.00  0.00    +0.116 A 
ATOM      5  N   UNL     1      -5.394  -1.857   0.018  0.00  0.00    -0.227 NA
ATOM      6  C   UNL     1      -6.667  -1.567   0.025  0.00  0.00    +0.111 A 
ATOM      7  N   UNL     1      -7.111  -0.286   0.033  0.00  0.00    -0.290 N 
ATOM      8  C   UNL     1      -6.253   0.753   0.034  0.00  0.00    +0.263 A 
ATOM      9  O   UNL     1      -6.662   1.901   0.041  0.00  0.00    -0.267 OA
ATOM     10  C   UNL     1      -7.673  -2.689   0.024  0.00  0.00    +0.086 C 
ATOM     11  S   UNL     1      -2.691  -0.895   0.011  0.00  0.00    -0.064 S 
ATOM     12  C   UNL     1      -2.447   0.873   0.018  0.00  0.00    +0.079 A 
ENDROOT
BRANCH  12  13
ATOM     13  C   UNL     1      -1.187   1.624   0.017  0.00  0.00    +0.248 C 
ATOM     14  O   UNL     1      -1.204   2.841   0.023  0.00  0.00    -0.270 OA
ATOM     15  N   UNL     1      -0.011   0.966   0.007  0.00  0.00    -0.325 N 
ATOM     16  H   UNL     1       0.934   1.529   0.006  0.00  0.00    +0.145 HD
ATOM     17  H   UNL     1       0.004  -0.134   0.001  0.00  0.00    +0.145 HD
ENDBRANCH  12  13
BRANCH   7  18
ATOM     18  C   UNL     1      -8.553  -0.026   0.041  0.00  0.00    +0.184 C 
BRANCH  18  19
ATOM     19  C   UNL     1      -9.041   0.056   1.464  0.00  0.00    +0.066 C 
ATOM     20  S   UNL     1      -8.013  -0.134   2.674  0.00  0.00    -0.039 S 
BRANCH  19  21
ATOM     21  N   UNL     1     -10.344   0.290   1.717  0.00  0.00    -0.354 N 
ATOM     22  H   UNL     1     -10.700   0.350   2.756  0.00  0.00    +0.143 HD
ATOM     23  H   UNL     1     -11.051   0.421   0.884  0.00  0.00    +0.143 HD
ENDBRANCH  19  21
ENDBRANCH  18  19
ENDBRANCH   7  18
TORSDOF 4
