REMARK  Name = ZINC06536126
REMARK  6 active torsions:
REMARK  status: ('A' for Active; 'I' for Inactive)
REMARK    1  A    between atoms: C_8  and  C_10
REMARK    2  A    between atoms: N_12  and  C_13
REMARK    3  A    between atoms: C_13  and  N_15
REMARK    4  A    between atoms: N_15  and  N_16
REMARK    5  A    between atoms: C_17  and  C_19
REMARK    6  A    between atoms: C_22  and  O_25
REMARK                            x       y       z     vdW  Elec       q    Type
REMARK                         _______ _______ _______ _____ _____    ______ ____
ROOT
ATOM      1  C   UNL     1       3.627  -4.870  -0.058  0.00  0.00    +0.153 C 
ATOM      2  S   UNL     1       3.655  -6.581  -0.067  0.00  0.00    -0.017 S 
ENDROOT
BRANCH   1   5
ATOM      3  C   UNL     1       5.961  -4.830  -0.081  0.00  0.00    +0.258 C 
ATOM      4  O   UNL     1       5.981  -6.047  -0.087  0.00  0.00    -0.269 OA
ATOM      5  N   UNL     1       4.783  -4.176  -0.066  0.00  0.00    -0.262 N 
ATOM      6  H   UNL     1       4.766  -3.206  -0.061  0.00  0.00    +0.157 HD
BRANCH   3  14
ATOM      7  C   UNL     1      11.889  -2.958  -0.126  0.00  0.00    +0.001 A 
ATOM      8  C   UNL     1      11.518  -1.619  -0.115  0.00  0.00    +0.001 A 
ATOM      9  C   UNL     1      10.180  -1.284  -0.102  0.00  0.00    +0.016 A 
ATOM     10  C   UNL     1       9.230  -2.283  -0.099  0.00  0.00    +0.021 A 
ATOM     11  C   UNL     1       9.578  -3.655  -0.110  0.00  0.00    +0.008 A 
ATOM     12  C   UNL     1      10.965  -3.953  -0.123  0.00  0.00    +0.010 A 
ATOM     13  C   UNL     1       8.494  -4.553  -0.098  0.00  0.00    +0.068 A 
ATOM     14  C   UNL     1       7.219  -4.076  -0.089  0.00  0.00    +0.094 A 
ATOM     15  S   UNL     1       7.455  -2.307  -0.082  0.00  0.00    -0.082 S 
ATOM     16 CL   UNL     1       8.783  -6.264  -0.102  0.00  0.00    -0.082 Cl
ENDBRANCH   3  14
ENDBRANCH   1   5
BRANCH   1  17
ATOM     17  N   UNL     1       2.449  -4.215  -0.043  0.00  0.00    -0.245 N 
ATOM     18  H   UNL     1       1.617  -4.714  -0.037  0.00  0.00    +0.172 HD
BRANCH  17  19
ATOM     19  N   UNL     1       2.425  -2.814  -0.036  0.00  0.00    -0.231 N 
ATOM     20  C   UNL     1       1.247  -2.160  -0.021  0.00  0.00    +0.260 C 
ATOM     21  O   UNL     1       0.204  -2.785  -0.014  0.00  0.00    -0.269 OA
ATOM     22  H   UNL     1       3.257  -2.315  -0.041  0.00  0.00    +0.173 HD
BRANCH  20  23
ATOM     23  C   UNL     1       1.223  -0.684  -0.013  0.00  0.00    +0.038 A 
ATOM     24  C   UNL     1       0.002  -0.004   0.002  0.00  0.00    +0.016 A 
ATOM     25  C   UNL     1      -0.017   1.373   0.010  0.00  0.00    +0.046 A 
ATOM     26  C   UNL     1       1.177   2.086   0.002  0.00  0.00    +0.117 A 
ATOM     27  C   UNL     1       2.393   1.413  -0.013  0.00  0.00    +0.046 A 
ATOM     28  C   UNL     1       2.420   0.036  -0.021  0.00  0.00    +0.016 A 
BRANCH  26  29
ATOM     29  O   UNL     1       1.154   3.443   0.009  0.00  0.00    -0.507 OA
ATOM     30  H   UNL     1       1.156   3.832   0.894  0.00  0.00    +0.292 HD
ENDBRANCH  26  29
ENDBRANCH  20  23
ENDBRANCH  17  19
ENDBRANCH   1  17
TORSDOF 6
