REMARK  Name = ZINC06859106
REMARK  6 active torsions:
REMARK  status: ('A' for Active; 'I' for Inactive)
REMARK    1  A    between atoms: C_1  and  C_2
REMARK    2  A    between atoms: C_4  and  N_10
REMARK    3  A    between atoms: C_7  and  O_8
REMARK    4  A    between atoms: N_10  and  S_11
REMARK    5  A    between atoms: S_11  and  C_14
REMARK    6  A    between atoms: C_19  and  N_20
REMARK                            x       y       z     vdW  Elec       q    Type
REMARK                         _______ _______ _______ _____ _____    ______ ____
ROOT
ATOM      1  N   UNL     1      -1.000   1.333  -1.286  0.00  0.00    -0.216 N 
ATOM      2  H   UNL     1      -1.189   0.502  -1.750  0.00  0.00    +0.174 HD
ENDROOT
BRANCH   1   6
ATOM      3  C   UNL     1      -4.813   3.891  -3.043  0.00  0.00    +0.047 C 
ATOM      4  C   UNL     1      -3.367   3.807  -2.628  0.00  0.00    -0.006 A 
ATOM      5  C   UNL     1      -2.852   2.615  -2.156  0.00  0.00    +0.031 A 
ATOM      6  C   UNL     1      -1.521   2.539  -1.770  0.00  0.00    +0.050 A 
ATOM      7  C   UNL     1      -0.704   3.658  -1.869  0.00  0.00    +0.043 A 
ATOM      8  C   UNL     1      -1.219   4.848  -2.346  0.00  0.00    +0.061 A 
ATOM      9  C   UNL     1      -2.551   4.924  -2.727  0.00  0.00    +0.134 A 
ATOM     10 BR   UNL     1      -0.108   6.372  -2.481  0.00  0.00    -0.046 Br
BRANCH   9  11
ATOM     11  O   UNL     1      -3.058   6.096  -3.197  0.00  0.00    -0.505 OA
ATOM     12  H   UNL     1      -2.982   6.201  -4.155  0.00  0.00    +0.292 HD
ENDBRANCH   9  11
ENDBRANCH   1   6
BRANCH   1  13
ATOM     13  S   UNL     1      -0.062   1.324   0.078  0.00  0.00    +0.075 S 
ATOM     14  O   UNL     1       0.209  -0.039   0.376  0.00  0.00    -0.150 OA
ATOM     15  O   UNL     1       0.971   2.277  -0.133  0.00  0.00    -0.150 OA
BRANCH  13  16
ATOM     16  C   UNL     1      -1.054   1.941   1.397  0.00  0.00    +0.139 A 
ATOM     17  C   UNL     1      -0.691   3.104   2.049  0.00  0.00    +0.031 A 
ATOM     18  C   UNL     1      -1.472   3.591   3.081  0.00  0.00    +0.002 A 
ATOM     19  C   UNL     1      -2.611   2.908   3.467  0.00  0.00    +0.002 A 
ATOM     20  C   UNL     1      -2.970   1.742   2.818  0.00  0.00    +0.035 A 
ATOM     21  C   UNL     1      -2.192   1.258   1.783  0.00  0.00    +0.153 A 
BRANCH  21  22
ATOM     22  N   UNL     1      -2.577   0.009   1.089  0.00  0.00    +0.058 N 
ATOM     23  O   UNL     1      -3.505  -0.659   1.508  0.00  0.00    -0.126 OA
ATOM     24  O   UNL     1      -1.966  -0.351   0.098  0.00  0.00    -0.126 OA
ENDBRANCH  21  22
ENDBRANCH  13  16
ENDBRANCH   1  13
TORSDOF 5
