REMARK  Name = ZINC36580270
REMARK  15 active torsions:
REMARK  status: ('A' for Active; 'I' for Inactive)
REMARK    1  A    between atoms: C_1  and  C_2
REMARK    2  A    between atoms: C_2  and  C_3
REMARK    3  A    between atoms: C_2  and  C_4
REMARK    4  A    between atoms: C_2  and  N_5
REMARK    5  A    between atoms: C_6  and  C_8
REMARK    6  A    between atoms: C_8  and  C_10
REMARK    7  A    between atoms: C_8  and  N_19
REMARK    8  A    between atoms: C_11  and  O_18
REMARK    9  A    between atoms: C_13  and  O_17
REMARK   10  A    between atoms: C_15  and  O_16
REMARK   11  A    between atoms: N_19  and  C_28
REMARK   12  A    between atoms: C_20  and  C_22
REMARK   13  A    between atoms: C_28  and  C_29
REMARK   14  A    between atoms: C_28  and  C_30
REMARK   15  A    between atoms: C_28  and  C_31
REMARK                            x       y       z     vdW  Elec       q    Type
REMARK                         _______ _______ _______ _____ _____    ______ ____
ROOT
ATOM      1  C   UNL     1       3.541  -0.594  -3.332  0.00  0.00    +0.200 C 
ENDROOT
BRANCH   1   2
ATOM      2  C   UNL     1       2.976   0.154  -4.512  0.00  0.00    +0.065 A 
ATOM      3  C   UNL     1       3.802   0.512  -5.566  0.00  0.00    +0.129 A 
ATOM      4  C   UNL     1       3.282   1.200  -6.652  0.00  0.00    +0.091 A 
ATOM      5  C   UNL     1       1.935   1.529  -6.684  0.00  0.00    +0.124 A 
ATOM      6  C   UNL     1       1.109   1.170  -5.630  0.00  0.00    +0.091 A 
ATOM      7  C   UNL     1       1.628   0.478  -4.546  0.00  0.00    +0.129 A 
BRANCH   7   8
ATOM      8  O   UNL     1       0.817   0.123  -3.515  0.00  0.00    -0.506 OA
ATOM      9  H   UNL     1       0.757   0.786  -2.815  0.00  0.00    +0.292 HD
ENDBRANCH   7   8
BRANCH   5  10
ATOM     10  O   UNL     1       1.426   2.204  -7.748  0.00  0.00    -0.507 OA
ATOM     11  H   UNL     1       1.100   1.633  -8.457  0.00  0.00    +0.292 HD
ENDBRANCH   5  10
BRANCH   3  12
ATOM     12  O   UNL     1       5.122   0.189  -5.535  0.00  0.00    -0.506 OA
ATOM     13  H   UNL     1       5.319  -0.694  -5.876  0.00  0.00    +0.292 HD
ENDBRANCH   3  12
ENDBRANCH   1   2
BRANCH   1  15
ATOM     14  N   UNL     1       4.358  -2.728  -4.278  0.00  0.00    -0.309 N 
ATOM     15  C   UNL     1       4.649  -1.503  -3.797  0.00  0.00    +0.239 C 
ATOM     16  O   UNL     1       5.803  -1.133  -3.738  0.00  0.00    -0.273 OA
ATOM     17  H   UNL     1       3.436  -3.024  -4.325  0.00  0.00    +0.149 HD
BRANCH  14  19
ATOM     18  C   UNL     1       6.390  -3.889  -3.567  0.00  0.00    +0.031 C 
ATOM     19  C   UNL     1       5.436  -3.612  -4.731  0.00  0.00    +0.026 C 
ATOM     20  C   UNL     1       6.203  -2.939  -5.871  0.00  0.00    +0.031 C 
ATOM     21  C   UNL     1       4.839  -4.931  -5.226  0.00  0.00    +0.031 C 
ENDBRANCH  14  19
ENDBRANCH   1  15
BRANCH   1  22
ATOM     22  N   UNL     1       4.071   0.362  -2.356  0.00  0.00    -0.280 N 
ATOM     23  C   UNL     1       4.185   1.665  -2.683  0.00  0.00    +0.220 C 
ATOM     24  O   UNL     1       3.684   2.080  -3.707  0.00  0.00    -0.275 OA
BRANCH  23  25
ATOM     25  C   UNL     1       4.936   2.606  -1.776  0.00  0.00    +0.075 C 
ATOM     26  C   UNL     1       4.185   2.744  -0.450  0.00  0.00    +0.013 C 
ATOM     27  C   UNL     1       4.947   3.700   0.470  0.00  0.00    +0.001 C 
ATOM     28  C   UNL     1       5.058   5.072  -0.198  0.00  0.00    +0.000 C 
ATOM     29  C   UNL     1       5.808   4.934  -1.524  0.00  0.00    +0.001 C 
ATOM     30  C   UNL     1       5.046   3.978  -2.445  0.00  0.00    +0.013 C 
ENDBRANCH  23  25
BRANCH  22  31
ATOM     31  C   UNL     1       4.477  -0.097  -1.026  0.00  0.00    +0.030 C 
ATOM     32  C   UNL     1       4.778  -1.597  -1.074  0.00  0.00    +0.031 C 
ATOM     33  C   UNL     1       5.731   0.660  -0.585  0.00  0.00    +0.031 C 
ATOM     34  C   UNL     1       3.347   0.164  -0.029  0.00  0.00    +0.031 C 
ENDBRANCH  22  31
ENDBRANCH   1  22
TORSDOF 9
