REMARK  Name = ZINC51886334
REMARK  5 active torsions:
REMARK  status: ('A' for Active; 'I' for Inactive)
REMARK    1  A    between atoms: C_1  and  N_2
REMARK    2  A    between atoms: C_3  and  N_19
REMARK    3  A    between atoms: C_4  and  N_11
REMARK    4  A    between atoms: C_14  and  C_17
REMARK    5  A    between atoms: C_17  and  O_18
REMARK                            x       y       z     vdW  Elec       q    Type
REMARK                         _______ _______ _______ _____ _____    ______ ____
ROOT
ATOM      1  C   UNL     1       0.683   0.457   2.041  0.00  0.00    +0.155 C 
ATOM      2  N   UNL     1       0.337  -0.485   0.973  0.00  0.00    -0.284 N 
ATOM      3  C   UNL     1      -0.853  -1.175   1.027  0.00  0.00    +0.127 A 
ATOM      4  C   UNL     1      -1.166  -2.052   0.024  0.00  0.00    +0.133 A 
ATOM      5  C   UNL     1      -0.260  -2.225  -1.038  0.00  0.00    +0.277 A 
ATOM      6  O   UNL     1      -0.518  -3.000  -1.944  0.00  0.00    -0.266 OA
ATOM      7  N   UNL     1       0.893  -1.528  -1.050  0.00  0.00    -0.273 N 
ATOM      8  H   UNL     1       1.518  -1.646  -1.782  0.00  0.00    +0.173 HD
ATOM      9  C   UNL     1       1.183  -0.666  -0.058  0.00  0.00    +0.331 A 
ATOM     10  O   UNL     1       2.228  -0.045  -0.092  0.00  0.00    -0.246 OA
ENDROOT
BRANCH   4  11
ATOM     11  N   UNL     1      -2.382  -2.773   0.056  0.00  0.00    -0.323 N 
ATOM     12  C   UNL     1      -3.732  -2.186  -0.024  0.00  0.00    +0.106 C 
ATOM     13  C   UNL     1      -4.629  -3.327  -0.566  0.00  0.00    +0.026 C 
ATOM     14  C   UNL     1      -4.015  -4.566   0.137  0.00  0.00    +0.033 C 
ATOM     15  C   UNL     1      -2.508  -4.234   0.167  0.00  0.00    +0.111 C 
BRANCH  14  16
ATOM     16  C   UNL     1      -4.274  -5.835  -0.678  0.00  0.00    +0.161 C 
BRANCH  16  17
ATOM     17  O   UNL     1      -5.675  -6.116  -0.690  0.00  0.00    -0.395 OA
ATOM     18  H   UNL     1      -5.913  -6.909  -1.190  0.00  0.00    +0.209 HD
ENDBRANCH  16  17
ENDBRANCH  14  16
ENDBRANCH   4  11
BRANCH   3  19
ATOM     19  N   UNL     1      -1.718  -0.985   2.079  0.00  0.00    -0.343 N 
ATOM     20  H   UNL     1      -1.463  -0.414   2.821  0.00  0.00    +0.144 HD
ATOM     21  H   UNL     1      -2.584  -1.422   2.080  0.00  0.00    +0.144 HD
ENDBRANCH   3  19
TORSDOF 4
