REMARK  Name = ZINC08836993
REMARK  16 active torsions:
REMARK  status: ('A' for Active; 'I' for Inactive)
REMARK    1  A    between atoms: C_1  and  C_2
REMARK    2  A    between atoms: C_2  and  O_3
REMARK    3  A    between atoms: O_3  and  C_4
REMARK    4  A    between atoms: C_7  and  C_13
REMARK    5  A    between atoms: C_9  and  O_10
REMARK    6  A    between atoms: O_10  and  C_11
REMARK    7  A    between atoms: C_11  and  C_12
REMARK    8  A    between atoms: C_13  and  C_14
REMARK    9  A    between atoms: C_18  and  O_36
REMARK   10  A    between atoms: C_19  and  O_33
REMARK   11  A    between atoms: C_25  and  C_27
REMARK   12  A    between atoms: C_27  and  N_82
REMARK   13  A    between atoms: O_33  and  C_34
REMARK   14  A    between atoms: C_34  and  C_35
REMARK   15  A    between atoms: O_36  and  C_37
REMARK   16  A    between atoms: C_37  and  C_38
REMARK                            x       y       z     vdW  Elec       q    Type
REMARK                         _______ _______ _______ _____ _____    ______ ____
ROOT
ATOM      1  C   UNL     1       4.293   5.882   0.620  0.00  0.00    +0.111 C 
ATOM      2  C   UNL     1       4.139   7.022   1.596  0.00  0.00    -0.020 A 
ATOM      3  C   UNL     1       5.286   7.496   2.221  0.00  0.00    +0.055 A 
ATOM      4  C   UNL     1       5.214   8.545   3.118  0.00  0.00    +0.162 A 
ATOM      5  C   UNL     1       3.981   9.129   3.395  0.00  0.00    +0.162 A 
ATOM      6  C   UNL     1       2.843   8.651   2.774  0.00  0.00    +0.053 A 
ATOM      7  C   UNL     1       2.918   7.592   1.876  0.00  0.00    -0.037 A 
ATOM      8  C   UNL     1       1.631   7.110   1.259  0.00  0.00    +0.054 C 
ATOM      9  C   UNL     1       1.905   6.315  -0.022  0.00  0.00    +0.113 C 
ATOM     10  N   UNL     1       2.972   5.345   0.275  0.00  0.00    -0.295 N 
ATOM     11  C   UNL     1       2.747   4.017   0.226  0.00  0.00    +0.199 C 
ATOM     12  O   UNL     1       3.645   3.240   0.470  0.00  0.00    -0.278 OA
ENDROOT
BRANCH   1  13
ATOM     13  C   UNL     1       4.984   6.388  -0.648  0.00  0.00    +0.062 C 
BRANCH  13  17
ATOM     14  C   UNL     1       5.754   3.092  -3.262  0.00  0.00    +0.162 A 
ATOM     15  C   UNL     1       6.697   3.466  -2.318  0.00  0.00    +0.050 A 
ATOM     16  C   UNL     1       6.448   4.536  -1.479  0.00  0.00    +0.007 A 
ATOM     17  C   UNL     1       5.253   5.226  -1.570  0.00  0.00    -0.042 A 
ATOM     18  C   UNL     1       4.309   4.858  -2.510  0.00  0.00    +0.053 A 
ATOM     19  C   UNL     1       4.555   3.791  -3.358  0.00  0.00    +0.162 A 
BRANCH  14  20
ATOM     20  O   UNL     1       6.001   2.044  -4.093  0.00  0.00    -0.489 OA
BRANCH  20  22
ATOM     21  C   UNL     1       7.349   0.231  -4.951  0.00  0.00    +0.048 C 
ATOM     22  C   UNL     1       7.253   1.373  -3.938  0.00  0.00    +0.226 C 
ENDBRANCH  20  22
ENDBRANCH  14  20
BRANCH  19  23
ATOM     23  O   UNL     1       3.626   3.427  -4.282  0.00  0.00    -0.489 OA
BRANCH  23  24
ATOM     24  C   UNL     1       2.418   4.189  -4.324  0.00  0.00    +0.226 C 
ATOM     25  C   UNL     1       1.503   3.635  -5.417  0.00  0.00    +0.048 C 
ENDBRANCH  23  24
ENDBRANCH  19  23
ENDBRANCH  13  17
ENDBRANCH   1  13
BRANCH  11  26
ATOM     26  C   UNL     1       1.378   3.499  -0.132  0.00  0.00    +0.019 C 
BRANCH  26  32
ATOM     27  C   UNL     1       2.258   1.617  -1.374  0.00  0.00    -0.078 C 
ATOM     28  C   UNL     1       2.400   0.093  -1.371  0.00  0.00    -0.019 C 
ATOM     29  C   UNL     1       1.011  -0.544  -1.475  0.00  0.00    -0.004 C 
ATOM     30  C   UNL     1       0.145  -0.055  -0.310  0.00  0.00    -0.019 C 
ATOM     31  C   UNL     1       0.069   1.473  -0.344  0.00  0.00    -0.078 C 
ATOM     32  N   UNL     1       1.435   2.025  -0.216  0.00  0.00    +0.385 N 
ATOM     33  H   UNL     1       1.863   1.658   0.642  0.00  0.00    -0.081 HD
ENDBRANCH  26  32
ENDBRANCH  11  26
BRANCH   5  34
ATOM     34  O   UNL     1       3.897  10.166   4.271  0.00  0.00    -0.489 OA
BRANCH  34  35
ATOM     35  C   UNL     1       2.599  10.714   4.505  0.00  0.00    +0.226 C 
ATOM     36  C   UNL     1       2.704  11.862   5.512  0.00  0.00    +0.048 C 
ENDBRANCH  34  35
ENDBRANCH   5  34
BRANCH   4  37
ATOM     37  O   UNL     1       6.341   9.004   3.726  0.00  0.00    -0.489 OA
BRANCH  37  38
ATOM     38  C   UNL     1       7.569   8.354   3.391  0.00  0.00    +0.226 C 
ATOM     39  C   UNL     1       8.717   9.003   4.168  0.00  0.00    +0.048 C 
ENDBRANCH  37  38
ENDBRANCH   4  37
TORSDOF 12
