REMARK  Name = ZINC04263338
REMARK  8 active torsions:
REMARK  status: ('A' for Active; 'I' for Inactive)
REMARK    1  A    between atoms: C_1  and  O_2
REMARK    2  A    between atoms: O_2  and  C_3
REMARK    3  A    between atoms: C_5  and  C_10
REMARK    4  A    between atoms: C_8  and  O_9
REMARK    5  A    between atoms: C_12  and  C_24
REMARK    6  A    between atoms: C_14  and  C_19
REMARK    7  A    between atoms: C_14  and  O_23
REMARK    8  A    between atoms: C_24  and  C_26
REMARK                            x       y       z     vdW  Elec       q    Type
REMARK                         _______ _______ _______ _____ _____    ______ ____
ROOT
ATOM      1  C   UNL     1      -1.271   3.499  -0.144  0.00  0.00    +0.120 C 
ATOM      2  C   UNL     1       0.080   4.131  -0.499  0.00  0.00    +0.144 C 
ATOM      3  C   UNL     1       1.150   3.551   0.432  0.00  0.00    +0.243 C 
ATOM      4  N   UNL     1       1.136   2.091   0.328  0.00  0.00    -0.264 N 
ATOM      5  C   UNL     1       0.013   1.424   0.023  0.00  0.00    +0.302 C 
ATOM      6  O   UNL     1       0.054   0.210  -0.040  0.00  0.00    -0.253 OA
ATOM      7  N   UNL     1      -1.152   2.042  -0.221  0.00  0.00    -0.292 N 
ATOM      8  H   UNL     1       1.955   1.596   0.484  0.00  0.00    +0.153 HD
ATOM      9  H   UNL     1      -1.932   1.513  -0.451  0.00  0.00    +0.151 HD
ENDROOT
BRANCH   1  12
ATOM     10  C   UNL     1      -4.082   5.485  -1.702  0.00  0.00    +0.162 A 
ATOM     11  C   UNL     1      -3.118   5.052  -0.805  0.00  0.00    +0.055 A 
ATOM     12  C   UNL     1      -2.319   3.969  -1.120  0.00  0.00    -0.023 A 
ATOM     13  C   UNL     1      -2.475   3.319  -2.330  0.00  0.00    +0.009 A 
ATOM     14  C   UNL     1      -3.438   3.743  -3.227  0.00  0.00    +0.049 A 
ATOM     15  C   UNL     1      -4.243   4.827  -2.917  0.00  0.00    +0.158 A 
BRANCH  10  17
ATOM     16  C   UNL     1      -4.648   7.176  -0.128  0.00  0.00    +0.277 C 
ATOM     17  O   UNL     1      -4.869   6.550  -1.394  0.00  0.00    -0.491 OA
ENDBRANCH  10  17
BRANCH  15  18
ATOM     18  O   UNL     1      -5.188   5.249  -3.800  0.00  0.00    -0.503 OA
ATOM     19  H   UNL     1      -4.872   5.914  -4.427  0.00  0.00    +0.292 HD
ENDBRANCH  15  18
ENDBRANCH   1  12
BRANCH   3  20
ATOM     20  C   UNL     1       2.525   4.080   0.021  0.00  0.00    +0.436 C 
ATOM     21  F   UNL     1       2.846   3.606  -1.255  0.00  0.00    -0.166 F 
ATOM     22  F   UNL     1       2.502   5.479   0.007  0.00  0.00    -0.166 F 
ATOM     23  F   UNL     1       3.487   3.639   0.937  0.00  0.00    -0.166 F 
ENDBRANCH   3  20
BRANCH   3  24
ATOM     24  O   UNL     1       0.871   3.937   1.779  0.00  0.00    -0.364 OA
ATOM     25  H   UNL     1       1.506   3.600   2.425  0.00  0.00    +0.212 HD
ENDBRANCH   3  24
BRANCH   2  26
ATOM     26  C   UNL     1       0.427   3.811  -1.931  0.00  0.00    +0.173 C 
ATOM     27  O   UNL     1       0.554   2.657  -2.280  0.00  0.00    -0.292 OA
BRANCH  26  28
ATOM     28  C   UNL     1       0.612   4.900  -2.904  0.00  0.00    +0.018 A 
ATOM     29  C   UNL     1       0.574   6.233  -2.483  0.00  0.00    +0.011 A 
ATOM     30  C   UNL     1       0.753   7.247  -3.400  0.00  0.00    +0.001 A 
ATOM     31  C   UNL     1       0.960   6.948  -4.735  0.00  0.00    +0.000 A 
ATOM     32  C   UNL     1       0.994   5.632  -5.160  0.00  0.00    +0.001 A 
ATOM     33  C   UNL     1       0.822   4.606  -4.255  0.00  0.00    +0.011 A 
ENDBRANCH  26  28
ENDBRANCH   2  26
TORSDOF 7
