REMARK  Name = ZINC08758543
REMARK  9 active torsions:
REMARK  status: ('A' for Active; 'I' for Inactive)
REMARK    1  A    between atoms: C_1  and  C_2
REMARK    2  A    between atoms: C_2  and  C_4
REMARK    3  A    between atoms: C_2  and  O_20
REMARK    4  A    between atoms: N_6  and  C_7
REMARK    5  A    between atoms: C_7  and  C_8
REMARK    6  A    between atoms: N_10  and  C_11
REMARK    7  A    between atoms: O_20  and  C_21
REMARK    8  A    between atoms: C_21  and  C_23
REMARK    9  A    between atoms: C_28  and  N_29
REMARK                            x       y       z     vdW  Elec       q    Type
REMARK                         _______ _______ _______ _____ _____    ______ ____
ROOT
ATOM      1  C   UNL     1       0.607  -0.268   0.098  0.00  0.00    +0.254 C 
ATOM      2  O   UNL     1       1.654  -0.812  -0.182  0.00  0.00    -0.272 OA
ATOM      3  N   UNL     1       0.243  -0.128   1.388  0.00  0.00    -0.304 N 
ATOM      4  H   UNL     1      -0.594   0.307   1.612  0.00  0.00    +0.149 HD
ENDROOT
BRANCH   1   6
ATOM      5  C   UNL     1      -0.376   1.777  -0.902  0.00  0.00    +0.062 C 
ATOM      6  C   UNL     1      -0.288   0.253  -0.998  0.00  0.00    +0.259 C 
BRANCH   6   7
ATOM      7  O   UNL     1       0.252  -0.114  -2.268  0.00  0.00    -0.449 OA
BRANCH   7   8
ATOM      8  C   UNL     1      -0.625  -0.307  -3.273  0.00  0.00    +0.342 C 
ATOM      9  O   UNL     1      -1.816  -0.167  -3.076  0.00  0.00    -0.245 OA
BRANCH   8  10
ATOM     10  C   UNL     1      -0.140  -0.688  -4.611  0.00  0.00    +0.081 A 
ATOM     11  C   UNL     1       1.215  -0.962  -4.817  0.00  0.00    +0.032 A 
ATOM     12  C   UNL     1       1.662  -1.318  -6.071  0.00  0.00    +0.019 A 
ATOM     13  C   UNL     1       0.773  -1.405  -7.132  0.00  0.00    +0.017 A 
ATOM     14  C   UNL     1      -0.567  -1.137  -6.945  0.00  0.00    +0.024 A 
ATOM     15  C   UNL     1      -1.038  -0.783  -5.687  0.00  0.00    +0.039 A 
ATOM     16 BR   UNL     1       3.496  -1.688  -6.346  0.00  0.00    -0.050 Br
BRANCH  15  17
ATOM     17  N   UNL     1      -2.387  -0.519  -5.495  0.00  0.00    -0.357 N 
ATOM     18  H   UNL     1      -2.725  -0.344  -4.603  0.00  0.00    +0.142 HD
ATOM     19  H   UNL     1      -2.992  -0.509  -6.254  0.00  0.00    +0.142 HD
ENDBRANCH  15  17
ENDBRANCH   8  10
ENDBRANCH   7   8
ENDBRANCH   6   7
ENDBRANCH   1   6
BRANCH   3  20
ATOM     20  C   UNL     1       1.113  -0.634   2.453  0.00  0.00    +0.200 C 
BRANCH  20  21
ATOM     21  C   UNL     1       0.482  -0.355   3.792  0.00  0.00    +0.234 C 
ATOM     22  O   UNL     1      -0.589   0.212   3.852  0.00  0.00    -0.274 OA
ATOM     23  N   UNL     1       1.107  -0.734   4.925  0.00  0.00    -0.282 N 
ATOM     24  H   UNL     1       1.933  -1.241   4.876  0.00  0.00    +0.155 HD
BRANCH  23  25
ATOM     25  C   UNL     1       0.565  -0.395   6.172  0.00  0.00    +0.072 A 
ATOM     26  C   UNL     1      -0.812  -0.347   6.341  0.00  0.00    +0.029 A 
ATOM     27  C   UNL     1      -1.345  -0.013   7.571  0.00  0.00    +0.043 A 
ATOM     28  C   UNL     1      -0.509   0.275   8.636  0.00  0.00    +0.161 A 
ATOM     29  C   UNL     1       0.867   0.228   8.471  0.00  0.00    +0.195 A 
ATOM     30  C   UNL     1       1.406  -0.112   7.242  0.00  0.00    +0.182 A 
ATOM     31  F   UNL     1       2.746  -0.163   7.082  0.00  0.00    -0.200 F 
ATOM     32  F   UNL     1       1.682   0.510   9.512  0.00  0.00    -0.199 F 
ATOM     33  F   UNL     1      -1.034   0.601   9.837  0.00  0.00    -0.202 F 
ENDBRANCH  23  25
ENDBRANCH  20  21
ENDBRANCH   3  20
TORSDOF 8
