REMARK  Name = ZINC39357466
REMARK  3 active torsions:
REMARK  status: ('A' for Active; 'I' for Inactive)
REMARK    1  A    between atoms: C_1  and  C_2
REMARK    2  A    between atoms: C_1  and  S_5
REMARK    3  A    between atoms: S_5  and  C_6
REMARK                            x       y       z     vdW  Elec       q    Type
REMARK                         _______ _______ _______ _____ _____    ______ ____
ROOT
ATOM      1  C   UNL     1       1.492   3.882   0.009  0.00  0.00    +0.187 C 
ATOM      2  N   UNL     1       0.330   4.485   0.028  0.00  0.00    -0.229 NA
ATOM      3  C   UNL     1       0.609   5.914   0.144  0.00  0.00    +0.267 C 
ATOM      4  C   UNL     1       2.132   5.966   0.000  0.00  0.00    +0.131 C 
ATOM      5  N   UNL     1       2.535   4.755   0.004  0.00  0.00    -0.220 NA
ATOM      6  C   UNL     1       2.794   7.271  -0.245  0.00  0.00    +0.174 C 
ATOM      7  N   UNL     1       2.002   8.178  -0.891  0.00  0.00    -0.197 NA
ATOM      8  C   UNL     1       0.766   7.903  -1.236  0.00  0.00    +0.201 C 
ATOM      9  N   UNL     1       0.117   6.713  -0.987  0.00  0.00    -0.187 NA
ATOM     10  N   UNL     1       0.059   8.877  -1.886  0.00  0.00    -0.330 N 
ATOM     11  N   UNL     1       4.023   7.529   0.123  0.00  0.00    -0.280 NA
ATOM     12  H   UNL     1       0.475   9.732  -2.075  0.00  0.00    +0.145 HD
ATOM     13  H   UNL     1      -0.857   8.711  -2.157  0.00  0.00    +0.145 HD
ATOM     14  H   UNL     1       4.412   8.399  -0.060  0.00  0.00    +0.188 HD
ENDROOT
BRANCH   1  15
ATOM     15  S   UNL     1       1.683   2.131  -0.003  0.00  0.00    -0.077 S 
BRANCH  15  16
ATOM     16  C   UNL     1      -0.018   1.503   0.010  0.00  0.00    +0.172 C 
BRANCH  16  17
ATOM     17  C   UNL     1       0.002  -0.004   0.002  0.00  0.00    +0.221 C 
ATOM     18  O   UNL     1       1.060  -0.596  -0.011  0.00  0.00    -0.275 OA
ATOM     19  N   UNL     1      -1.156  -0.694   0.009  0.00  0.00    -0.329 N 
ATOM     20  H   UNL     1      -2.002  -0.220   0.020  0.00  0.00    +0.145 HD
ATOM     21  H   UNL     1      -1.143  -1.664   0.004  0.00  0.00    +0.145 HD
ENDBRANCH  16  17
ENDBRANCH  15  16
ENDBRANCH   1  15
TORSDOF 3
