REMARK  Name = ZINC25159604
REMARK  15 active torsions:
REMARK  status: ('A' for Active; 'I' for Inactive)
REMARK    1  A    between atoms: C_1  and  C_2
REMARK    2  A    between atoms: C_2  and  N_3
REMARK    3  A    between atoms: N_3  and  C_4
REMARK    4  A    between atoms: N_3  and  S_6
REMARK    5  A    between atoms: C_4  and  C_5
REMARK    6  A    between atoms: S_6  and  C_9
REMARK    7  A    between atoms: C_16  and  S_24
REMARK    8  A    between atoms: N_17  and  C_18
REMARK    9  A    between atoms: C_18  and  C_19
REMARK   10  A    between atoms: S_24  and  C_25
REMARK   11  A    between atoms: C_25  and  C_26
REMARK   12  A    between atoms: C_28  and  O_34
REMARK   13  A    between atoms: C_31  and  O_32
REMARK   14  A    between atoms: O_32  and  C_33
REMARK   15  A    between atoms: O_34  and  C_35
REMARK                            x       y       z     vdW  Elec       q    Type
REMARK                         _______ _______ _______ _____ _____    ______ ____
ROOT
ATOM      1  C   UNL     1      -8.276   3.254   0.210  0.00  0.00    +0.108 A 
ATOM      2  C   UNL     1      -8.525   3.389  -1.148  0.00  0.00    +0.030 A 
ATOM      3  C   UNL     1      -7.634   2.887  -2.075  0.00  0.00    +0.030 A 
ATOM      4  C   UNL     1      -6.483   2.244  -1.648  0.00  0.00    +0.070 A 
ATOM      5  C   UNL     1      -6.226   2.104  -0.274  0.00  0.00    +0.092 A 
ATOM      6  C   UNL     1      -7.138   2.618   0.652  0.00  0.00    +0.058 A 
ATOM      7  N   UNL     1      -5.045   1.443  -0.153  0.00  0.00    -0.222 NA
ATOM      8  C   UNL     1      -4.568   1.172  -1.343  0.00  0.00    +0.171 A 
ATOM      9  N   UNL     1      -5.415   1.650  -2.302  0.00  0.00    -0.311 N 
ENDROOT
BRANCH   1  10
ATOM     10  S   UNL     1      -9.425   3.901   1.378  0.00  0.00    +0.061 S 
ATOM     11  O   UNL     1      -8.700   4.130   2.578  0.00  0.00    -0.153 OA
ATOM     12  O   UNL     1     -10.143   4.932   0.713  0.00  0.00    -0.153 OA
BRANCH  10  13
ATOM     13  N   UNL     1     -10.517   2.700   1.707  0.00  0.00    -0.177 NA
BRANCH  13  15
ATOM     14  C   UNL     1     -10.973   2.250   4.067  0.00  0.00    +0.022 C 
ATOM     15  C   UNL     1     -10.265   1.761   2.802  0.00  0.00    +0.106 C 
ENDBRANCH  13  15
BRANCH  13  16
ATOM     16  C   UNL     1     -11.736   2.578   0.903  0.00  0.00    +0.106 C 
ATOM     17  C   UNL     1     -11.507   1.561  -0.217  0.00  0.00    +0.022 C 
ENDBRANCH  13  16
ENDBRANCH  10  13
ENDBRANCH   1  10
BRANCH   9  18
ATOM     18  C   UNL     1      -5.231   1.551  -3.752  0.00  0.00    +0.198 C 
BRANCH  18  19
ATOM     19  C   UNL     1      -5.863   0.278  -4.253  0.00  0.00    +0.124 A 
ATOM     20  C   UNL     1      -7.137   0.141  -4.665  0.00  0.00    +0.046 A 
ATOM     21  C   UNL     1      -7.300  -1.210  -5.048  0.00  0.00    +0.041 A 
ATOM     22  C   UNL     1      -6.119  -1.820  -4.840  0.00  0.00    +0.195 A 
ATOM     23  O   UNL     1      -5.253  -0.914  -4.358  0.00  0.00    -0.466 OA
ENDBRANCH  18  19
ENDBRANCH   9  18
BRANCH   8  24
ATOM     24  S   UNL     1      -3.055   0.325  -1.659  0.00  0.00    -0.083 S 
BRANCH  24  25
ATOM     25  C   UNL     1      -2.504   0.022   0.038  0.00  0.00    +0.116 C 
BRANCH  25  26
ATOM     26  C   UNL     1      -1.189  -0.714   0.015  0.00  0.00    +0.008 A 
ATOM     27  C   UNL     1      -1.171  -2.095   0.002  0.00  0.00    +0.053 A 
ATOM     28  C   UNL     1       0.040  -2.772  -0.013  0.00  0.00    +0.121 A 
ATOM     29  C   UNL     1       1.231  -2.062  -0.021  0.00  0.00    +0.049 A 
ATOM     30  C   UNL     1       1.213  -0.681  -0.013  0.00  0.00    +0.049 A 
ATOM     31  C   UNL     1       0.002  -0.004   0.002  0.00  0.00    +0.124 A 
BRANCH  31  32
ATOM     32  O   UNL     1      -0.016   1.356   0.009  0.00  0.00    -0.495 OA
ATOM     33  C   UNL     1       1.248   2.022   0.001  0.00  0.00    +0.277 C 
ENDBRANCH  31  32
BRANCH  28  34
ATOM     34  O   UNL     1       0.058  -4.132  -0.021  0.00  0.00    -0.495 OA
ATOM     35  C   UNL     1       1.340  -4.763  -0.037  0.00  0.00    +0.277 C 
ENDBRANCH  28  34
ENDBRANCH  25  26
ENDBRANCH  24  25
ENDBRANCH   8  24
TORSDOF 11
