REMARK  Name = ZINC04830756
REMARK  9 active torsions:
REMARK  status: ('A' for Active; 'I' for Inactive)
REMARK    1  A    between atoms: C_1  and  C_2
REMARK    2  A    between atoms: C_2  and  C_3
REMARK    3  A    between atoms: C_3  and  C_4
REMARK    4  A    between atoms: C_4  and  S_5
REMARK    5  A    between atoms: S_5  and  C_8
REMARK    6  A    between atoms: C_11  and  O_14
REMARK    7  A    between atoms: O_14  and  C_15
REMARK    8  A    between atoms: C_17  and  O_32
REMARK    9  A    between atoms: C_20  and  N_21
REMARK                            x       y       z     vdW  Elec       q    Type
REMARK                         _______ _______ _______ _____ _____    ______ ____
ROOT
ATOM      1  C   UNL     1       2.353   4.319   0.008  0.00  0.00    +0.153 A 
ATOM      2  C   UNL     1       2.329   3.596  -1.169  0.00  0.00    +0.094 A 
ATOM      3  C   UNL     1       2.465   2.211  -1.149  0.00  0.00    +0.132 A 
ATOM      4  C   UNL     1       2.627   1.541   0.067  0.00  0.00    +0.076 A 
ATOM      5  C   UNL     1       2.652   2.275   1.274  0.00  0.00    +0.061 A 
ATOM      6  C   UNL     1       2.516   3.664   1.240  0.00  0.00    +0.079 A 
ATOM      7  C   UNL     1       2.823   1.577   2.558  0.00  0.00    +0.197 C 
ATOM      8  O   UNL     1       2.840   2.208   3.597  0.00  0.00    -0.287 OA
ATOM      9  C   UNL     1       2.968   0.106   2.583  0.00  0.00    +0.033 A 
ATOM     10  C   UNL     1       3.130  -0.563   3.793  0.00  0.00    +0.012 A 
ATOM     11  C   UNL     1       3.266  -1.940   3.806  0.00  0.00    +0.001 A 
ATOM     12  C   UNL     1       3.240  -2.658   2.624  0.00  0.00    +0.001 A 
ATOM     13  C   UNL     1       3.079  -2.009   1.413  0.00  0.00    +0.012 A 
ATOM     14  C   UNL     1       2.942  -0.624   1.381  0.00  0.00    +0.033 A 
ATOM     15  C   UNL     1       2.771   0.079   0.092  0.00  0.00    +0.198 C 
ATOM     16  O   UNL     1       2.748  -0.553  -0.947  0.00  0.00    -0.286 OA
ENDROOT
BRANCH   6  17
ATOM     17  N   UNL     1       2.540   4.395   2.419  0.00  0.00    -0.355 N 
ATOM     18  H   UNL     1       2.047   5.227   2.484  0.00  0.00    +0.142 HD
ATOM     19  H   UNL     1       3.051   4.073   3.178  0.00  0.00    +0.142 HD
ENDBRANCH   6  17
BRANCH   3  20
ATOM     20  O   UNL     1       2.439   1.512  -2.311  0.00  0.00    -0.506 OA
ATOM     21  H   UNL     1       1.555   1.224  -2.577  0.00  0.00    +0.292 HD
ENDBRANCH   3  20
BRANCH   1  22
ATOM     22  O   UNL     1       2.220   5.669  -0.026  0.00  0.00    -0.454 OA
BRANCH  22  26
ATOM     23  C   UNL     1       5.647   7.959   0.153  0.00  0.00    +0.088 A 
ATOM     24  C   UNL     1       4.407   8.569   0.190  0.00  0.00    +0.030 A 
ATOM     25  C   UNL     1       3.258   7.805   0.129  0.00  0.00    +0.048 A 
ATOM     26  C   UNL     1       3.349   6.423   0.032  0.00  0.00    +0.129 A 
ATOM     27  C   UNL     1       4.595   5.813   0.002  0.00  0.00    +0.048 A 
ATOM     28  C   UNL     1       5.741   6.583   0.057  0.00  0.00    +0.030 A 
BRANCH  23  29
ATOM     29  S   UNL     1       7.111   8.937   0.230  0.00  0.00    -0.003 S 
ATOM     30  O   UNL     1       8.102   8.157  -0.424  0.00  0.00    -0.169 OA
ATOM     31  O   UNL     1       6.728  10.204  -0.288  0.00  0.00    -0.169 OA
BRANCH  29  32
ATOM     32  C   UNL     1       7.489   9.073   1.998  0.00  0.00    +0.172 C 
BRANCH  32  33
ATOM     33  C   UNL     1       8.755   9.911   2.187  0.00  0.00    +0.023 C 
BRANCH  33  35
ATOM     34  C   UNL     1      10.340  10.863   3.866  0.00  0.00    +0.004 C 
ATOM     35  C   UNL     1       9.074  10.025   3.679  0.00  0.00    -0.002 C 
ENDBRANCH  33  35
ENDBRANCH  32  33
ENDBRANCH  29  32
ENDBRANCH  23  29
ENDBRANCH  22  26
ENDBRANCH   1  22
TORSDOF 8
