REMARK  Name = ZINC56709928
REMARK  6 active torsions:
REMARK  status: ('A' for Active; 'I' for Inactive)
REMARK    1  A    between atoms: C_1  and  C_2
REMARK    2  A    between atoms: C_4  and  O_22
REMARK    3  A    between atoms: C_7  and  N_8
REMARK    4  A    between atoms: C_19  and  C_21
REMARK    5  A    between atoms: O_22  and  C_23
REMARK    6  A    between atoms: C_23  and  C_24
REMARK                            x       y       z     vdW  Elec       q    Type
REMARK                         _______ _______ _______ _____ _____    ______ ____
ROOT
ATOM      1  C   UNL     1      -2.277   1.385   0.491  0.00  0.00    +0.046 C 
ATOM      2  C   UNL     1      -1.685   0.017   0.268  0.00  0.00    -0.026 A 
ATOM      3  C   UNL     1      -1.887  -0.636  -0.933  0.00  0.00    +0.050 A 
ATOM      4  C   UNL     1      -1.343  -1.895  -1.138  0.00  0.00    +0.122 A 
ATOM      5  C   UNL     1      -0.595  -2.500  -0.138  0.00  0.00    +0.047 A 
ATOM      6  C   UNL     1      -0.393  -1.849   1.063  0.00  0.00    +0.027 A 
ATOM      7  C   UNL     1      -0.932  -0.585   1.266  0.00  0.00    +0.038 A 
ENDROOT
BRANCH   7   8
ATOM      8  N   UNL     1      -0.722   0.079   2.483  0.00  0.00    -0.269 N 
ATOM      9  C   UNL     1      -0.562  -0.629   3.618  0.00  0.00    +0.307 C 
ATOM     10  O   UNL     1      -0.526  -1.844   3.577  0.00  0.00    -0.252 OA
ATOM     11  N   UNL     1      -0.441   0.009   4.799  0.00  0.00    -0.278 N 
ATOM     12  C   UNL     1      -0.618   1.466   4.880  0.00  0.00    +0.115 C 
ATOM     13  C   UNL     1      -1.857   1.754   5.742  0.00  0.00    +0.062 C 
ATOM     14  C   UNL     1      -1.831   0.853   6.934  0.00  0.00    -0.004 A 
ATOM     15  C   UNL     1      -1.089  -0.273   7.115  0.00  0.00    -0.017 A 
ATOM     16  C   UNL     1      -1.255  -0.944   8.325  0.00  0.00    +0.013 A 
ATOM     17  C   UNL     1      -2.116  -0.465   9.252  0.00  0.00    +0.046 A 
ATOM     18  S   UNL     1      -2.754   0.994   8.442  0.00  0.00    -0.101 S 
ATOM     19  C   UNL     1      -0.135  -0.743   6.024  0.00  0.00    +0.105 C 
ATOM     20  C   UNL     1      -0.331  -2.240   5.776  0.00  0.00    +0.033 C 
ATOM     21  H   UNL     1      -0.692   1.048   2.507  0.00  0.00    +0.156 HD
ENDBRANCH   7   8
BRANCH   4  22
ATOM     22  O   UNL     1      -1.542  -2.537  -2.320  0.00  0.00    -0.483 OA
BRANCH  22  23
ATOM     23  C   UNL     1      -0.953  -3.830  -2.463  0.00  0.00    +0.324 C 
BRANCH  23  24
ATOM     24  C   UNL     1      -1.278  -4.383  -3.827  0.00  0.00    +0.248 C 
ATOM     25  O   UNL     1      -1.948  -3.732  -4.601  0.00  0.00    -0.272 OA
ATOM     26  N   UNL     1      -0.823  -5.599  -4.188  0.00  0.00    -0.327 N 
ATOM     27  H   UNL     1      -0.287  -6.119  -3.569  0.00  0.00    +0.145 HD
ATOM     28  H   UNL     1      -1.032  -5.954  -5.066  0.00  0.00    +0.145 HD
ENDBRANCH  23  24
ENDBRANCH  22  23
ENDBRANCH   4  22
TORSDOF 4
