REMARK  Name = ZINC64788909
REMARK  9 active torsions:
REMARK  status: ('A' for Active; 'I' for Inactive)
REMARK    1  A    between atoms: C_1  and  C_2
REMARK    2  A    between atoms: C_5  and  C_25
REMARK    3  A    between atoms: N_15  and  C_18
REMARK    4  A    between atoms: C_27  and  O_35
REMARK    5  A    between atoms: C_28  and  O_33
REMARK    6  A    between atoms: C_29  and  O_31
REMARK    7  A    between atoms: O_31  and  C_32
REMARK    8  A    between atoms: O_33  and  C_34
REMARK    9  A    between atoms: O_35  and  C_36
REMARK                            x       y       z     vdW  Elec       q    Type
REMARK                         _______ _______ _______ _____ _____    ______ ____
ROOT
ATOM      1  C   UNL     1      -0.018   1.503   0.010  0.00  0.00    +0.111 C 
ATOM      2  C   UNL     1       0.002  -0.004   0.002  0.00  0.00    +0.229 C 
ATOM      3  O   UNL     1       1.060  -0.596  -0.011  0.00  0.00    -0.274 OA
ATOM      4  N   UNL     1      -1.156  -0.694   0.009  0.00  0.00    -0.215 N 
ATOM      5  C   UNL     1      -1.272  -2.159   0.009  0.00  0.00    +0.133 C 
ATOM      6  C   UNL     1      -2.789  -2.424   0.019  0.00  0.00    +0.082 C 
ATOM      7  C   UNL     1      -3.410  -1.045   0.025  0.00  0.00    +0.041 C 
ATOM      8  N   UNL     1      -2.430  -0.130   0.025  0.00  0.00    -0.264 N 
ATOM      9  C   UNL     1      -4.765  -0.772   0.034  0.00  0.00    +0.118 C 
ATOM     10  C   UNL     1      -5.767  -1.853   0.045  0.00  0.00    +0.258 C 
ATOM     11  N   UNL     1      -7.072  -1.513   0.054  0.00  0.00    -0.235 N 
ATOM     12  C   UNL     1      -7.462  -0.231   0.053  0.00  0.00    +0.316 C 
ATOM     13  O   UNL     1      -8.653   0.009   0.061  0.00  0.00    -0.252 OA
ATOM     14  N   UNL     1      -6.607   0.802   0.043  0.00  0.00    -0.218 N 
ATOM     15  C   UNL     1      -5.271   0.612   0.039  0.00  0.00    +0.261 C 
ATOM     16  O   UNL     1      -4.506   1.557   0.035  0.00  0.00    -0.269 OA
ATOM     17  O   UNL     1      -5.426  -3.021   0.046  0.00  0.00    -0.270 OA
ATOM     18  H   UNL     1      -7.744  -2.212   0.061  0.00  0.00    +0.159 HD
ATOM     19  H   UNL     1      -2.591   0.827   0.032  0.00  0.00    +0.170 HD
ENDROOT
BRANCH  14  20
ATOM     20  C   UNL     1      -7.135   2.168   0.042  0.00  0.00    +0.086 C 
ATOM     21  C   UNL     1      -7.983   2.389   1.296  0.00  0.00    +0.023 C 
ATOM     22  C   UNL     1      -8.534   3.816   1.295  0.00  0.00    +0.002 C 
ATOM     23  C   UNL     1      -9.400   4.027   0.051  0.00  0.00    +0.000 C 
ATOM     24  C   UNL     1      -8.552   3.807  -1.204  0.00  0.00    +0.002 C 
ATOM     25  C   UNL     1      -8.001   2.380  -1.202  0.00  0.00    +0.023 C 
ENDBRANCH  14  20
BRANCH   5  26
ATOM     26  C   UNL     1      -0.626  -2.739   1.240  0.00  0.00    -0.018 A 
ATOM     27  C   UNL     1      -0.755  -2.093   2.455  0.00  0.00    +0.055 A 
ATOM     28  C   UNL     1      -0.161  -2.623   3.591  0.00  0.00    +0.165 A 
ATOM     29  C   UNL     1       0.564  -3.806   3.506  0.00  0.00    +0.204 A 
ATOM     30  C   UNL     1       0.691  -4.452   2.282  0.00  0.00    +0.165 A 
ATOM     31  C   UNL     1       0.090  -3.918   1.152  0.00  0.00    +0.055 A 
BRANCH  30  32
ATOM     32  O   UNL     1       1.400  -5.609   2.193  0.00  0.00    -0.491 OA
ATOM     33  C   UNL     1       1.488  -6.219   0.904  0.00  0.00    +0.277 C 
ENDBRANCH  30  32
BRANCH  29  34
ATOM     34  O   UNL     1       1.149  -4.329   4.617  0.00  0.00    -0.488 OA
ATOM     35  C   UNL     1       0.370  -5.245   5.390  0.00  0.00    +0.277 C 
ENDBRANCH  29  34
BRANCH  28  36
ATOM     36  O   UNL     1      -0.288  -1.987   4.786  0.00  0.00    -0.491 OA
ATOM     37  C   UNL     1      -1.047  -0.776   4.799  0.00  0.00    +0.277 C 
ENDBRANCH  28  36
ENDBRANCH   5  26
TORSDOF 5
