REMARK  Name = ZINC20412131
REMARK  4 active torsions:
REMARK  status: ('A' for Active; 'I' for Inactive)
REMARK    1  A    between atoms: C_11  and  C_16
REMARK    2  A    between atoms: N_20  and  C_23
REMARK    3  A    between atoms: C_23  and  C_24
REMARK    4  A    between atoms: C_24  and  C_25
REMARK                            x       y       z     vdW  Elec       q    Type
REMARK                         _______ _______ _______ _____ _____    ______ ____
ROOT
ATOM      1  C   UNL     1       4.896  -3.337   0.902  0.00  0.00    +0.073 A 
ATOM      2  C   UNL     1       6.175  -3.383   0.431  0.00  0.00    +0.260 A 
ATOM      3  N   UNL     1       7.223  -3.292   1.313  0.00  0.00    -0.275 N 
ATOM      4  C   UNL     1       6.994  -3.159   2.632  0.00  0.00    +0.332 A 
ATOM      5  N   UNL     1       5.739  -3.113   3.116  0.00  0.00    -0.260 N 
ATOM      6  C   UNL     1       4.682  -3.192   2.284  0.00  0.00    +0.262 A 
ATOM      7  O   UNL     1       3.547  -3.144   2.727  0.00  0.00    -0.267 OA
ATOM      8  O   UNL     1       7.934  -3.080   3.399  0.00  0.00    -0.246 OA
ATOM      9  O   UNL     1       6.409  -3.516  -0.891  0.00  0.00    -0.267 OA
ATOM     10  H   UNL     1       8.134  -3.323   0.983  0.00  0.00    +0.173 HD
ENDROOT
BRANCH   1  21
ATOM     11  C   UNL     1      -0.016   1.361   0.009  0.00  0.00    +0.001 A 
ATOM     12  C   UNL     1       1.169   2.083   0.002  0.00  0.00    +0.002 A 
ATOM     13  C   UNL     1       2.385   1.435  -0.013  0.00  0.00    +0.026 A 
ATOM     14  C   UNL     1       2.428   0.045  -0.021  0.00  0.00    +0.047 A 
ATOM     15  C   UNL     1       1.222  -0.684  -0.013  0.00  0.00    +0.003 A 
ATOM     16  C   UNL     1       0.002  -0.004   0.002  0.00  0.00    +0.010 A 
ATOM     17  C   UNL     1       1.609  -2.088  -0.025  0.00  0.00    -0.022 A 
ATOM     18  C   UNL     1       2.957  -2.137  -0.037  0.00  0.00    +0.011 A 
ATOM     19  N   UNL     1       3.460  -0.869  -0.036  0.00  0.00    -0.359 N 
ATOM     20  H   UNL     1       4.404  -0.644  -0.045  0.00  0.00    +0.166 HD
ATOM     21  C   UNL     1       3.729  -3.436  -0.046  0.00  0.00    +0.018 C 
ATOM     22  N   UNL     1       2.830  -4.518   0.382  0.00  0.00    +0.388 N 
ATOM     23  C   UNL     1       1.605  -4.511  -0.429  0.00  0.00    -0.076 C 
ATOM     24  C   UNL     1       0.731  -3.313  -0.028  0.00  0.00    +0.018 C 
ATOM     25  H   UNL     1       3.298  -5.405   0.272  0.00  0.00    -0.084 HD
ATOM     26  H   UNL     1       2.589  -4.388   1.353  0.00  0.00    -0.084 HD
ENDBRANCH   1  21
BRANCH   5  27
ATOM     27  C   UNL     1       5.520  -2.969   4.558  0.00  0.00    +0.134 C 
BRANCH  27  28
ATOM     28  C   UNL     1       5.441  -1.484   4.916  0.00  0.00    +0.052 C 
BRANCH  28  29
ATOM     29  C   UNL     1       5.217  -1.336   6.399  0.00  0.00    -0.072 C 
ATOM     30  C   UNL     1       6.252  -1.153   7.154  0.00  0.00    -0.028 C 
ATOM     31  C   UNL     1       6.188  -1.000   8.646  0.00  0.00    +0.027 C 
ATOM     32  C   UNL     1       4.759  -0.666   9.080  0.00  0.00    +0.004 C 
ATOM     33  C   UNL     1       3.804  -1.666   8.416  0.00  0.00    +0.005 C 
ATOM     34  C   UNL     1       3.806  -1.404   6.907  0.00  0.00    +0.030 C 
ENDBRANCH  28  29
ENDBRANCH  27  28
ENDBRANCH   5  27
TORSDOF 4
