REMARK  Name = ZINC05526851
REMARK  4 active torsions:
REMARK  status: ('A' for Active; 'I' for Inactive)
REMARK    1  A    between atoms: C_1  and  O_2
REMARK    2  A    between atoms: O_2  and  C_3
REMARK    3  A    between atoms: C_6  and  C_9
REMARK    4  A    between atoms: N_12  and  N_13
REMARK                            x       y       z     vdW  Elec       q    Type
REMARK                         _______ _______ _______ _____ _____    ______ ____
ROOT
ATOM      1  C   UNL     1       0.002  -0.004   0.002  0.00  0.00    +0.024 C 
ATOM      2  C   UNL     1      -1.166  -0.704   0.113  0.00  0.00    +0.079 C 
ATOM      3  C   UNL     1      -1.205  -2.190   0.220  0.00  0.00    +0.156 C 
ATOM      4  N   UNL     1      -0.262  -2.873   0.807  0.00  0.00    -0.173 NA
ATOM      5  N   UNL     1      -2.333  -2.803  -0.358  0.00  0.00    -0.252 N 
ATOM      6  C   UNL     1      -3.464  -2.092  -0.506  0.00  0.00    +0.312 C 
ATOM      7  O   UNL     1      -4.449  -2.663  -0.931  0.00  0.00    -0.252 OA
ATOM      8  N   UNL     1      -3.565  -0.789  -0.212  0.00  0.00    -0.236 N 
ATOM      9  C   UNL     1      -2.495  -0.043   0.141  0.00  0.00    +0.255 C 
ATOM     10  O   UNL     1      -2.614   1.123   0.466  0.00  0.00    -0.270 OA
ATOM     11  H   UNL     1      -2.294  -3.729  -0.645  0.00  0.00    +0.158 HD
ATOM     12  H   UNL     1      -4.438  -0.367  -0.249  0.00  0.00    +0.159 HD
ENDROOT
BRANCH   1  16
ATOM     13  C   UNL     1      -0.086   4.149  -0.840  0.00  0.00    +0.120 A 
ATOM     14  C   UNL     1       0.874   3.638   0.027  0.00  0.00    +0.046 A 
ATOM     15  C   UNL     1       0.907   2.291   0.305  0.00  0.00    +0.011 A 
ATOM     16  C   UNL     1      -0.029   1.432  -0.289  0.00  0.00    -0.024 A 
ATOM     17  C   UNL     1      -0.990   1.952  -1.166  0.00  0.00    +0.011 A 
ATOM     18  C   UNL     1      -1.016   3.302  -1.432  0.00  0.00    +0.046 A 
BRANCH  13  20
ATOM     19  C   UNL     1      -1.125   5.937  -2.010  0.00  0.00    +0.277 C 
ATOM     20  O   UNL     1      -0.113   5.479  -1.110  0.00  0.00    -0.495 OA
ENDBRANCH  13  20
ENDBRANCH   1  16
BRANCH   4  21
ATOM     21  N   UNL     1      -0.350  -4.269   0.880  0.00  0.00    -0.281 N 
ATOM     22  H   UNL     1       0.351  -4.777   1.317  0.00  0.00    +0.164 HD
ATOM     23  H   UNL     1      -1.113  -4.728   0.493  0.00  0.00    +0.164 HD
ENDBRANCH   4  21
TORSDOF 3
