REMARK  Name = ZINC09464283
REMARK  7 active torsions:
REMARK  status: ('A' for Active; 'I' for Inactive)
REMARK    1  A    between atoms: C_6  and  C_7
REMARK    2  A    between atoms: C_7  and  N_8
REMARK    3  A    between atoms: N_8  and  C_22
REMARK    4  A    between atoms: C_9  and  C_11
REMARK    5  A    between atoms: C_11  and  S_12
REMARK    6  A    between atoms: S_12  and  C_13
REMARK    7  A    between atoms: C_13  and  C_14
REMARK                            x       y       z     vdW  Elec       q    Type
REMARK                         _______ _______ _______ _____ _____    ______ ____
ROOT
ATOM      1  N   UNL     1       0.311   1.751   0.179  0.00  0.00    -0.291 N 
ATOM      2  C   UNL     1      -0.968   2.009  -0.159  0.00  0.00    +0.226 C 
ATOM      3  O   UNL     1      -1.778   1.107  -0.197  0.00  0.00    -0.275 OA
ENDROOT
BRANCH   1   4
ATOM      4  C   UNL     1       1.264   2.853   0.331  0.00  0.00    +0.039 C 
ATOM      5  C   UNL     1       0.889   3.686   1.559  0.00  0.00    +0.029 C 
ATOM      6  C   UNL     1       1.884   4.837   1.718  0.00  0.00    -0.008 C 
ATOM      7  C   UNL     1       3.294   4.271   1.897  0.00  0.00    +0.007 C 
ATOM      8  C   UNL     1       3.669   3.438   0.670  0.00  0.00    -0.008 C 
ATOM      9  C   UNL     1       2.674   2.287   0.510  0.00  0.00    +0.029 C 
ATOM     10  C   UNL     1       3.630   4.323  -0.578  0.00  0.00    +0.007 C 
ATOM     11  C   UNL     1       2.220   4.889  -0.757  0.00  0.00    -0.008 C 
ATOM     12  C   UNL     1       1.845   5.722   0.470  0.00  0.00    +0.007 C 
ATOM     13  C   UNL     1       1.225   3.738  -0.917  0.00  0.00    +0.029 C 
ENDBRANCH   1   4
BRANCH   1  14
ATOM     14  C   UNL     1       0.750   0.369   0.387  0.00  0.00    +0.143 C 
BRANCH  14  20
ATOM     15  C   UNL     1       1.535   0.064   2.744  0.00  0.00    +0.006 A 
ATOM     16  C   UNL     1       1.314  -0.291   4.061  0.00  0.00    +0.020 A 
ATOM     17  C   UNL     1       0.067  -0.744   4.455  0.00  0.00    +0.041 A 
ATOM     18  C   UNL     1      -0.958  -0.837   3.530  0.00  0.00    +0.020 A 
ATOM     19  C   UNL     1      -0.737  -0.476   2.214  0.00  0.00    +0.006 A 
ATOM     20  C   UNL     1       0.509  -0.023   1.822  0.00  0.00    -0.030 A 
ATOM     21 CL   UNL     1      -0.210  -1.196   6.107  0.00  0.00    -0.084 Cl
ENDBRANCH  14  20
ENDBRANCH   1  14
BRANCH   2  22
ATOM     22  C   UNL     1      -1.392   3.417  -0.488  0.00  0.00    +0.165 C 
BRANCH  22  23
ATOM     23  S   UNL     1      -3.199   3.543  -0.389  0.00  0.00    -0.144 S 
BRANCH  23  24
ATOM     24  C   UNL     1      -3.541   5.275  -0.807  0.00  0.00    +0.145 C 
BRANCH  24  25
ATOM     25  C   UNL     1      -5.028   5.518  -0.761  0.00  0.00    +0.146 A 
ATOM     26  N   UNL     1      -5.758   5.347  -1.849  0.00  0.00    -0.199 NA
ATOM     27  C   UNL     1      -7.072   5.556  -1.811  0.00  0.00    +0.217 A 
ATOM     28  N   UNL     1      -7.648   5.948  -0.680  0.00  0.00    -0.181 NA
ATOM     29  C   UNL     1      -6.910   6.125   0.411  0.00  0.00    +0.217 A 
ATOM     30  N   UNL     1      -5.597   5.908   0.366  0.00  0.00    -0.199 NA
ATOM     31  N   UNL     1      -7.503   6.532   1.588  0.00  0.00    -0.327 N 
ATOM     32  N   UNL     1      -7.834   5.372  -2.947  0.00  0.00    -0.327 N 
ATOM     33  H   UNL     1      -6.964   6.661   2.384  0.00  0.00    +0.145 HD
ATOM     34  H   UNL     1      -8.460   6.689   1.620  0.00  0.00    +0.145 HD
ATOM     35  H   UNL     1      -8.791   5.529  -2.919  0.00  0.00    +0.145 HD
ATOM     36  H   UNL     1      -7.413   5.086  -3.772  0.00  0.00    +0.145 HD
ENDBRANCH  24  25
ENDBRANCH  23  24
ENDBRANCH  22  23
ENDBRANCH   2  22
TORSDOF 7
