REMARK  Name = ZINC08634976
REMARK  5 active torsions:
REMARK  status: ('A' for Active; 'I' for Inactive)
REMARK    1  A    between atoms: C_1  and  C_2
REMARK    2  A    between atoms: C_2  and  C_20
REMARK    3  A    between atoms: N_5  and  C_9
REMARK    4  A    between atoms: C_9  and  C_10
REMARK    5  A    between atoms: N_12  and  C_13
REMARK                            x       y       z     vdW  Elec       q    Type
REMARK                         _______ _______ _______ _____ _____    ______ ____
ROOT
ATOM      1  C   UNL     1       2.725   8.214  -1.523  0.00  0.00    +0.047 C 
ATOM      2  C   UNL     1       4.122   7.770  -1.085  0.00  0.00    +0.135 C 
ATOM      3  C   UNL     1       4.380   6.329  -1.478  0.00  0.00    +0.251 C 
ATOM      4  O   UNL     1       4.401   5.869  -2.600  0.00  0.00    -0.272 OA
ATOM      5  N   UNL     1       4.579   5.665  -0.323  0.00  0.00    -0.215 N 
ATOM      6  C   UNL     1       4.492   6.479   0.735  0.00  0.00    +0.310 C 
ATOM      7  O   UNL     1       4.638   6.112   1.885  0.00  0.00    -0.252 OA
ATOM      8  N   UNL     1       4.223   7.750   0.385  0.00  0.00    -0.281 N 
ATOM      9  H   UNL     1       4.116   8.506   0.984  0.00  0.00    +0.152 HD
ENDROOT
BRANCH   2  10
ATOM     10  C   UNL     1       5.174   8.673  -1.676  0.00  0.00    -0.014 A 
ATOM     11  C   UNL     1       5.603   9.786  -0.975  0.00  0.00    +0.006 A 
ATOM     12  C   UNL     1       6.568  10.614  -1.517  0.00  0.00    +0.001 A 
ATOM     13  C   UNL     1       7.104  10.331  -2.759  0.00  0.00    +0.015 A 
ATOM     14  C   UNL     1       6.675   9.218  -3.460  0.00  0.00    +0.018 A 
ATOM     15  C   UNL     1       5.713   8.386  -2.915  0.00  0.00    +0.021 A 
ATOM     16 BR   UNL     1       7.408   8.831  -5.160  0.00  0.00    -0.050 Br
ENDBRANCH   2  10
BRANCH   5  17
ATOM     17  C   UNL     1       4.863   4.231  -0.236  0.00  0.00    +0.214 C 
BRANCH  17  18
ATOM     18  C   UNL     1       3.569   3.469  -0.115  0.00  0.00    +0.235 C 
ATOM     19  O   UNL     1       2.513   4.066  -0.102  0.00  0.00    -0.274 OA
ATOM     20  N   UNL     1       3.584   2.124  -0.020  0.00  0.00    -0.284 N 
ATOM     21  H   UNL     1       4.429   1.653   0.047  0.00  0.00    +0.155 HD
BRANCH  20  22
ATOM     22  C   UNL     1       2.381   1.409  -0.019  0.00  0.00    +0.033 A 
ATOM     23  C   UNL     1       2.269   0.238   0.720  0.00  0.00    +0.024 A 
ATOM     24  C   UNL     1       1.081  -0.466   0.719  0.00  0.00    +0.017 A 
ATOM     25  C   UNL     1       0.003  -0.006  -0.017  0.00  0.00    +0.018 A 
ATOM     26  C   UNL     1       0.112   1.160  -0.754  0.00  0.00    +0.017 A 
ATOM     27  C   UNL     1       1.298   1.868  -0.756  0.00  0.00    +0.024 A 
ATOM     28 BR   UNL     1      -1.622  -0.973  -0.016  0.00  0.00    -0.050 Br
ENDBRANCH  20  22
ENDBRANCH  17  18
ENDBRANCH   5  17
TORSDOF 4
