REMARK  Name = ZINC35181701
REMARK  11 active torsions:
REMARK  status: ('A' for Active; 'I' for Inactive)
REMARK    1  A    between atoms: C_1  and  C_2
REMARK    2  A    between atoms: C_2  and  C_29
REMARK    3  A    between atoms: C_3  and  C_18
REMARK    4  A    between atoms: C_6  and  C_8
REMARK    5  A    between atoms: N_10  and  C_11
REMARK    6  A    between atoms: C_11  and  C_13
REMARK    7  A    between atoms: C_11  and  O_17
REMARK    8  A    between atoms: C_18  and  C_19
REMARK    9  A    between atoms: N_21  and  C_22
REMARK   10  A    between atoms: C_22  and  C_24
REMARK   11  A    between atoms: C_22  and  O_28
REMARK                            x       y       z     vdW  Elec       q    Type
REMARK                         _______ _______ _______ _____ _____    ______ ____
ROOT
ATOM      1  C   UNL     1      -0.019   1.526   0.010  0.00  0.00    +0.012 C 
ATOM      2  C   UNL     1       0.002  -0.004   0.002  0.00  0.00    -0.021 C 
ATOM      3  C   UNL     1      -1.396  -0.640   0.086  0.00  0.00    +0.005 C 
ATOM      4  C   UNL     1      -0.779  -1.683   1.032  0.00  0.00    +0.017 C 
ATOM      5  C   UNL     1       0.280  -0.624   1.382  0.00  0.00    +0.081 C 
ATOM      6  C   UNL     1       0.874  -0.580  -1.116  0.00  0.00    +0.012 C 
ENDROOT
BRANCH   5   7
ATOM      7  C   UNL     1       1.672  -1.185   1.522  0.00  0.00    +0.219 C 
ATOM      8  O   UNL     1       2.448  -1.120   0.592  0.00  0.00    -0.275 OA
ATOM      9  N   UNL     1       2.053  -1.760   2.680  0.00  0.00    -0.287 N 
ATOM     10  H   UNL     1       1.432  -1.812   3.423  0.00  0.00    +0.151 HD
BRANCH   9  11
ATOM     11  C   UNL     1       3.406  -2.305   2.816  0.00  0.00    +0.253 C 
BRANCH  11  12
ATOM     12  C   UNL     1       3.901  -2.090   4.247  0.00  0.00    +0.232 C 
ATOM     13 CL   UNL     1       5.566  -2.761   4.415  0.00  0.00    -0.079 Cl
ATOM     14 CL   UNL     1       3.925  -0.325   4.616  0.00  0.00    -0.079 Cl
ATOM     15 CL   UNL     1       2.796  -2.929   5.398  0.00  0.00    -0.079 Cl
ENDBRANCH  11  12
BRANCH  11  16
ATOM     16  O   UNL     1       3.387  -3.704   2.524  0.00  0.00    -0.370 OA
ATOM     17  H   UNL     1       2.812  -4.220   3.105  0.00  0.00    +0.212 HD
ENDBRANCH  11  16
ENDBRANCH   9  11
ENDBRANCH   5   7
BRANCH   3  18
ATOM     18  C   UNL     1      -1.883  -1.225  -1.241  0.00  0.00    +0.100 C 
BRANCH  18  19
ATOM     19  C   UNL     1      -3.301  -1.710  -1.085  0.00  0.00    +0.215 C 
ATOM     20  O   UNL     1      -3.867  -1.598  -0.018  0.00  0.00    -0.276 OA
ATOM     21  N   UNL     1      -3.942  -2.268  -2.132  0.00  0.00    -0.287 N 
ATOM     22  H   UNL     1      -3.490  -2.358  -2.985  0.00  0.00    +0.151 HD
BRANCH  21  23
ATOM     23  C   UNL     1      -5.320  -2.740  -1.980  0.00  0.00    +0.253 C 
BRANCH  23  24
ATOM     24  C   UNL     1      -6.086  -2.504  -3.284  0.00  0.00    +0.232 C 
ATOM     25 CL   UNL     1      -7.783  -3.084  -3.098  0.00  0.00    -0.079 Cl
ATOM     26 CL   UNL     1      -6.092  -0.742  -3.667  0.00  0.00    -0.079 Cl
ATOM     27 CL   UNL     1      -5.285  -3.408  -4.623  0.00  0.00    -0.079 Cl
ENDBRANCH  23  24
BRANCH  23  28
ATOM     28  O   UNL     1      -5.316  -4.136  -1.677  0.00  0.00    -0.370 OA
ATOM     29  H   UNL     1      -4.899  -4.685  -2.355  0.00  0.00    +0.212 HD
ENDBRANCH  23  28
ENDBRANCH  21  23
ENDBRANCH  18  19
ENDBRANCH   3  18
TORSDOF 9
