REMARK  Name = ZINC22025158
REMARK  10 active torsions:
REMARK  status: ('A' for Active; 'I' for Inactive)
REMARK    1  A    between atoms: C_1  and  C_2
REMARK    2  A    between atoms: C_2  and  O_3
REMARK    3  A    between atoms: O_3  and  C_4
REMARK    4  A    between atoms: C_4  and  C_6
REMARK    5  A    between atoms: C_7  and  C_20
REMARK    6  A    between atoms: C_12  and  C_14
REMARK    7  A    between atoms: C_20  and  O_21
REMARK    8  A    between atoms: O_21  and  C_22
REMARK    9  A    between atoms: C_22  and  C_24
REMARK   10  A    between atoms: C_28  and  O_30
REMARK                            x       y       z     vdW  Elec       q    Type
REMARK                         _______ _______ _______ _____ _____    ______ ____
ROOT
ATOM      1  C   UNL     1       2.833   8.687  -1.090  0.00  0.00    +0.081 C 
ATOM      2  C   UNL     1       2.350   8.162   0.057  0.00  0.00    +0.061 C 
ATOM      3  N   UNL     1       3.136   8.051   1.167  0.00  0.00    -0.269 N 
ATOM      4  C   UNL     1       4.419   8.432   1.210  0.00  0.00    +0.304 C 
ATOM      5  O   UNL     1       5.041   8.289   2.244  0.00  0.00    -0.252 OA
ATOM      6  N   UNL     1       5.042   8.974   0.145  0.00  0.00    -0.288 N 
ATOM      7  C   UNL     1       4.278   9.142  -1.103  0.00  0.00    +0.144 C 
ATOM      8  H   UNL     1       2.722   7.629   2.095  0.00  0.00    +0.156 HD
ATOM      9  H   UNL     1       6.095   9.288   0.191  0.00  0.00    +0.151 HD
ENDROOT
BRANCH   7  10
ATOM     10  C   UNL     1       4.301  10.604  -1.468  0.00  0.00    -0.022 A 
ATOM     11  C   UNL     1       4.019  11.560  -0.511  0.00  0.00    +0.006 A 
ATOM     12  C   UNL     1       4.044  12.901  -0.845  0.00  0.00    +0.000 A 
ATOM     13  C   UNL     1       4.342  13.286  -2.139  0.00  0.00    +0.000 A 
ATOM     14  C   UNL     1       4.620  12.330  -3.097  0.00  0.00    +0.000 A 
ATOM     15  C   UNL     1       4.599  10.989  -2.762  0.00  0.00    +0.006 A 
ENDBRANCH   7  10
BRANCH   1  16
ATOM     16  C   UNL     1       2.018   8.806  -2.240  0.00  0.00    +0.339 C 
ATOM     17  O   UNL     1       2.118   7.998  -3.144  0.00  0.00    -0.245 OA
BRANCH  16  18
ATOM     18  O   UNL     1       1.129   9.817  -2.335  0.00  0.00    -0.462 OA
BRANCH  18  20
ATOM     19  C   UNL     1      -0.603  11.081  -3.450  0.00  0.00    +0.048 C 
ATOM     20  C   UNL     1       0.339   9.877  -3.524  0.00  0.00    +0.229 C 
ENDBRANCH  18  20
ENDBRANCH  16  18
ENDBRANCH   1  16
BRANCH   2  21
ATOM     21  C   UNL     1       0.918   7.696   0.113  0.00  0.00    +0.283 C 
BRANCH  21  22
ATOM     22  O   UNL     1       0.883   6.259   0.312  0.00  0.00    -0.455 OA
BRANCH  22  23
ATOM     23  C   UNL     1      -0.331   5.680   0.386  0.00  0.00    +0.340 C 
ATOM     24  O   UNL     1      -1.334   6.358   0.286  0.00  0.00    -0.245 OA
BRANCH  23  25
ATOM     25  C   UNL     1      -0.443   4.221   0.588  0.00  0.00    +0.062 A 
ATOM     26  C   UNL     1       0.708   3.439   0.702  0.00  0.00    +0.015 A 
ATOM     27  C   UNL     1       0.599   2.076   0.890  0.00  0.00    +0.004 A 
ATOM     28  C   UNL     1      -0.647   1.481   0.965  0.00  0.00    +0.045 A 
ATOM     29  C   UNL     1      -1.797   2.250   0.846  0.00  0.00    +0.118 A 
ATOM     30  C   UNL     1      -1.700   3.619   0.663  0.00  0.00    +0.060 A 
BRANCH  29  31
ATOM     31  O   UNL     1      -3.019   1.659   0.915  0.00  0.00    -0.507 OA
ATOM     32  H   UNL     1      -3.930   2.267   0.821  0.00  0.00    +0.292 HD
ENDBRANCH  29  31
ENDBRANCH  23  25
ENDBRANCH  22  23
ENDBRANCH  21  22
ENDBRANCH   2  21
TORSDOF 9
