REMARK  Name = ZINC36637403
REMARK  12 active torsions:
REMARK  status: ('A' for Active; 'I' for Inactive)
REMARK    1  A    between atoms: C_1  and  C_2
REMARK    2  A    between atoms: C_2  and  C_3
REMARK    3  A    between atoms: N_12  and  C_13
REMARK    4  A    between atoms: C_13  and  C_14
REMARK    5  A    between atoms: C_14  and  N_15
REMARK    6  A    between atoms: N_15  and  C_16
REMARK    7  A    between atoms: N_15  and  C_17
REMARK    8  A    between atoms: C_18  and  C_20
REMARK    9  A    between atoms: C_23  and  S_26
REMARK   10  A    between atoms: S_26  and  N_29
REMARK   11  A    between atoms: C_34  and  C_36
REMARK   12  A    between atoms: C_36  and  C_37
REMARK                            x       y       z     vdW  Elec       q    Type
REMARK                         _______ _______ _______ _____ _____    ______ ____
ROOT
ATOM      1  C   UNL     1      -0.350  -0.057   1.463  0.00  0.00    -0.046 A 
ATOM      2  C   UNL     1       1.027  -0.099   1.622  0.00  0.00    +0.006 A 
ATOM      3  C   UNL     1       1.601  -0.587   2.767  0.00  0.00    +0.029 A 
ATOM      4  C   UNL     1       0.800  -1.067   3.829  0.00  0.00    +0.080 A 
ATOM      5  C   UNL     1      -0.599  -1.008   3.631  0.00  0.00    +0.041 A 
ATOM      6  C   UNL     1      -1.165  -0.512   2.483  0.00  0.00    +0.021 A 
ATOM      7  S   UNL     1      -1.224  -1.683   5.151  0.00  0.00    -0.052 S 
ATOM      8  C   UNL     1       0.356  -1.991   5.927  0.00  0.00    +0.168 A 
ATOM      9  N   UNL     1       1.202  -1.576   5.013  0.00  0.00    -0.224 NA
ATOM     10  N   UNL     1       0.620  -2.531   7.174  0.00  0.00    -0.248 N 
ATOM     11  C   UNL     1      -0.396  -2.902   7.977  0.00  0.00    +0.252 C 
ATOM     12  O   UNL     1      -1.542  -2.831   7.578  0.00  0.00    -0.270 OA
ENDROOT
BRANCH  11  13
ATOM     13  C   UNL     1      -0.118  -3.394   9.342  0.00  0.00    +0.037 A 
ATOM     14  C   UNL     1       1.064  -3.031   9.991  0.00  0.00    +0.015 A 
ATOM     15  C   UNL     1       1.318  -3.494  11.266  0.00  0.00    +0.029 A 
ATOM     16  C   UNL     1       0.404  -4.316  11.901  0.00  0.00    +0.106 A 
ATOM     17  C   UNL     1      -0.769  -4.680  11.264  0.00  0.00    +0.029 A 
ATOM     18  C   UNL     1      -1.038  -4.219   9.992  0.00  0.00    +0.015 A 
BRANCH  16  19
ATOM     19  S   UNL     1       0.736  -4.904  13.529  0.00  0.00    +0.061 S 
ATOM     20  O   UNL     1      -0.203  -5.938  13.787  0.00  0.00    -0.153 OA
ATOM     21  O   UNL     1       2.140  -5.113  13.606  0.00  0.00    -0.153 OA
BRANCH  19  22
ATOM     22  N   UNL     1       0.383  -3.671  14.576  0.00  0.00    -0.174 NA
ATOM     23  C   UNL     1       1.446  -2.792  15.084  0.00  0.00    +0.110 C 
ATOM     24  C   UNL     1       1.057  -1.337  14.807  0.00  0.00    +0.017 C 
ATOM     25  C   UNL     1      -0.326  -1.060  15.402  0.00  0.00    +0.003 C 
ATOM     26  C   UNL     1      -1.361  -1.971  14.738  0.00  0.00    +0.021 C 
ATOM     27  C   UNL     1      -1.000  -3.430  15.010  0.00  0.00    +0.080 C 
BRANCH  27  28
ATOM     28  C   UNL     1      -1.948  -4.344  14.231  0.00  0.00    +0.017 C 
ATOM     29  C   UNL     1      -3.393  -4.041  14.632  0.00  0.00    +0.005 C 
ENDBRANCH  27  28
ENDBRANCH  19  22
ENDBRANCH  16  19
ENDBRANCH  11  13
BRANCH   1  31
ATOM     30  C   UNL     1      -1.177   1.993   0.338  0.00  0.00    +0.009 C 
ATOM     31  C   UNL     1      -0.953   0.486   0.193  0.00  0.00    +0.032 C 
ENDBRANCH   1  31
BRANCH  10  32
ATOM     32  C   UNL     1       2.006  -2.699   7.621  0.00  0.00    +0.097 C 
BRANCH  32  33
ATOM     33  C   UNL     1       2.607  -1.329   7.942  0.00  0.00    -0.060 C 
BRANCH  33  34
ATOM     34  N   UNL     1       4.039  -1.480   8.235  0.00  0.00    +0.377 N 
ATOM     35  C   UNL     1       4.648  -0.153   8.397  0.00  0.00    -0.097 C 
ATOM     36  C   UNL     1       4.206  -2.250   9.475  0.00  0.00    -0.097 C 
ATOM     37  H   UNL     1       4.489  -1.966   7.474  0.00  0.00    -0.083 HD
ENDBRANCH  33  34
ENDBRANCH  32  33
ENDBRANCH  10  32
TORSDOF 8
