REMARK  Name = ZINC09631628
REMARK  12 active torsions:
REMARK  status: ('A' for Active; 'I' for Inactive)
REMARK    1  A    between atoms: C_1  and  N_2
REMARK    2  A    between atoms: N_2  and  C_3
REMARK    3  A    between atoms: N_2  and  C_4
REMARK    4  A    between atoms: C_7  and  N_10
REMARK    5  A    between atoms: N_13  and  C_14
REMARK    6  A    between atoms: C_14  and  C_15
REMARK    7  A    between atoms: C_20  and  C_23
REMARK    8  A    between atoms: C_23  and  N_24
REMARK    9  A    between atoms: N_27  and  C_28
REMARK   10  A    between atoms: C_31  and  N_34
REMARK   11  A    between atoms: N_34  and  C_35
REMARK   12  A    between atoms: N_34  and  C_36
REMARK                            x       y       z     vdW  Elec       q    Type
REMARK                         _______ _______ _______ _____ _____    ______ ____
ROOT
ATOM      1  C   UNL     1       4.297   0.305   0.719  0.00  0.00    +0.006 C 
ATOM      2  C   UNL     1       4.448  -0.261   2.133  0.00  0.00    +0.005 C 
ATOM      3  C   UNL     1       5.762  -1.039   2.233  0.00  0.00    +0.001 C 
ATOM      4  C   UNL     1       6.934  -0.102   1.931  0.00  0.00    +0.005 C 
ATOM      5  C   UNL     1       6.782   0.464   0.517  0.00  0.00    +0.006 C 
ATOM      6  C   UNL     1       5.468   1.242   0.417  0.00  0.00    +0.010 C 
ENDROOT
BRANCH   1   7
ATOM      7  C   UNL     1       2.983   1.083   0.619  0.00  0.00    +0.109 C 
BRANCH   7  11
ATOM      8  N   UNL     1      -0.444  -0.220   0.898  0.00  0.00    -0.269 N 
ATOM      9  C   UNL     1       0.593   0.627   0.740  0.00  0.00    +0.304 C 
ATOM     10  O   UNL     1       0.387   1.811   0.553  0.00  0.00    -0.253 OA
ATOM     11  N   UNL     1       1.857   0.162   0.791  0.00  0.00    -0.299 N 
ATOM     12  H   UNL     1      -0.283  -1.173   0.980  0.00  0.00    +0.156 HD
ATOM     13  H   UNL     1       2.020  -0.782   0.940  0.00  0.00    +0.150 HD
BRANCH   8  17
ATOM     14  C   UNL     1      -4.344   1.255   1.014  0.00  0.00    +0.029 A 
ATOM     15  C   UNL     1      -3.401   1.849   0.185  0.00  0.00    +0.025 A 
ATOM     16  C   UNL     1      -2.111   1.361   0.146  0.00  0.00    +0.025 A 
ATOM     17  C   UNL     1      -1.755   0.276   0.937  0.00  0.00    +0.035 A 
ATOM     18  C   UNL     1      -2.698  -0.321   1.762  0.00  0.00    +0.025 A 
ATOM     19  C   UNL     1      -3.988   0.171   1.805  0.00  0.00    +0.025 A 
BRANCH  14  21
ATOM     20  C   UNL     1      -6.061   2.813   0.132  0.00  0.00    +0.129 C 
ATOM     21  N   UNL     1      -5.652   1.750   1.054  0.00  0.00    -0.336 N 
ATOM     22  C   UNL     1      -6.612   1.207   2.017  0.00  0.00    +0.129 C 
ENDBRANCH  14  21
ENDBRANCH   8  17
ENDBRANCH   7  11
ENDBRANCH   1   7
BRANCH   5  23
ATOM     23  C   UNL     1       6.774  -0.684  -0.494  0.00  0.00    +0.109 C 
BRANCH  23  24
ATOM     24  N   UNL     1       8.076  -1.354  -0.482  0.00  0.00    -0.299 N 
ATOM     25  C   UNL     1       8.301  -2.403  -1.299  0.00  0.00    +0.304 C 
ATOM     26  O   UNL     1       7.423  -2.792  -2.045  0.00  0.00    -0.253 OA
ATOM     27  N   UNL     1       9.499  -3.020  -1.288  0.00  0.00    -0.269 N 
ATOM     28  H   UNL     1       8.776  -1.044   0.113  0.00  0.00    +0.150 HD
ATOM     29  H   UNL     1      10.174  -2.759  -0.642  0.00  0.00    +0.156 HD
BRANCH  27  30
ATOM     30  C   UNL     1       9.771  -4.040  -2.211  0.00  0.00    +0.035 A 
ATOM     31  C   UNL     1      10.590  -5.101  -1.851  0.00  0.00    +0.025 A 
ATOM     32  C   UNL     1      10.854  -6.109  -2.759  0.00  0.00    +0.025 A 
ATOM     33  C   UNL     1      10.307  -6.054  -4.034  0.00  0.00    +0.029 A 
ATOM     34  C   UNL     1       9.492  -4.989  -4.396  0.00  0.00    +0.025 A 
ATOM     35  C   UNL     1       9.225  -3.985  -3.487  0.00  0.00    +0.025 A 
BRANCH  33  36
ATOM     36  N   UNL     1      10.578  -7.072  -4.955  0.00  0.00    -0.336 N 
ATOM     37  C   UNL     1      10.001  -7.015  -6.301  0.00  0.00    +0.129 C 
ATOM     38  C   UNL     1      11.438  -8.195  -4.574  0.00  0.00    +0.129 C 
ENDBRANCH  33  36
ENDBRANCH  27  30
ENDBRANCH  23  24
ENDBRANCH   5  23
TORSDOF 8
