REMARK  Name = ZINC12501464
REMARK  9 active torsions:
REMARK  status: ('A' for Active; 'I' for Inactive)
REMARK    1  A    between atoms: C_1  and  C_2
REMARK    2  A    between atoms: C_2  and  C_3
REMARK    3  A    between atoms: C_3  and  C_4
REMARK    4  A    between atoms: N_6  and  C_7
REMARK    5  A    between atoms: C_10  and  C_13
REMARK    6  A    between atoms: N_15  and  N_16
REMARK    7  A    between atoms: N_16  and  C_17
REMARK    8  A    between atoms: C_17  and  N_19
REMARK    9  A    between atoms: C_20  and  C_22
REMARK                            x       y       z     vdW  Elec       q    Type
REMARK                         _______ _______ _______ _____ _____    ______ ____
ROOT
ATOM      1  C   UNL     1      -0.024   1.194   0.038  0.00  0.00    +0.260 C 
ATOM      2  O   UNL     1      -0.012  -0.022   0.041  0.00  0.00    -0.269 OA
ATOM      3  N   UNL     1       1.136   1.879   0.027  0.00  0.00    -0.231 N 
ATOM      4  H   UNL     1       1.126   2.849   0.024  0.00  0.00    +0.173 HD
ENDROOT
BRANCH   1   8
ATOM      5  C   UNL     1      -3.723   3.281   0.045  0.00  0.00    +0.033 A 
ATOM      6  C   UNL     1      -3.711   1.889   0.048  0.00  0.00    +0.024 A 
ATOM      7  C   UNL     1      -2.514   1.210   0.046  0.00  0.00    +0.015 A 
ATOM      8  C   UNL     1      -1.310   1.919   0.040  0.00  0.00    +0.038 A 
ATOM      9  C   UNL     1      -1.325   3.317   0.043  0.00  0.00    +0.015 A 
ATOM     10  C   UNL     1      -2.526   3.990   0.038  0.00  0.00    +0.024 A 
BRANCH   5  13
ATOM     11  C   UNL     1      -5.996   3.464  -0.620  0.00  0.00    +0.217 C 
ATOM     12  O   UNL     1      -5.917   2.377  -1.153  0.00  0.00    -0.275 OA
ATOM     13  N   UNL     1      -4.938   3.966   0.047  0.00  0.00    -0.285 N 
ATOM     14  H   UNL     1      -5.021   4.803   0.529  0.00  0.00    +0.155 HD
BRANCH  11  15
ATOM     15  C   UNL     1      -7.277   4.253  -0.705  0.00  0.00    +0.096 C 
BRANCH  15  17
ATOM     16  C   UNL     1      -9.611   4.265  -1.597  0.00  0.00    +0.004 C 
ATOM     17  C   UNL     1      -8.310   3.464  -1.511  0.00  0.00    +0.006 C 
ENDBRANCH  15  17
ENDBRANCH  11  15
ENDBRANCH   5  13
ENDBRANCH   1   8
BRANCH   3  18
ATOM     18  N   UNL     1       2.356   1.191   0.018  0.00  0.00    -0.245 N 
ATOM     19  H   UNL     1       2.366   0.221   0.021  0.00  0.00    +0.172 HD
BRANCH  18  20
ATOM     20  C   UNL     1       3.517   1.876   0.007  0.00  0.00    +0.153 C 
ATOM     21  S   UNL     1       5.008   1.035  -0.003  0.00  0.00    -0.017 S 
BRANCH  20  22
ATOM     22  N   UNL     1       3.503   3.224   0.004  0.00  0.00    -0.263 N 
ATOM     23  C   UNL     1       4.664   3.910  -0.007  0.00  0.00    +0.251 C 
ATOM     24  O   UNL     1       5.722   3.312  -0.014  0.00  0.00    -0.270 OA
ATOM     25  H   UNL     1       2.658   3.701   0.010  0.00  0.00    +0.157 HD
BRANCH  23  26
ATOM     26  C   UNL     1       4.649   5.386  -0.011  0.00  0.00    +0.055 A 
ATOM     27  C   UNL     1       3.434   6.075  -0.003  0.00  0.00    +0.016 A 
ATOM     28  C   UNL     1       3.427   7.454  -0.006  0.00  0.00    +0.021 A 
ATOM     29  C   UNL     1       4.621   8.156  -0.017  0.00  0.00    +0.042 A 
ATOM     30  C   UNL     1       5.829   7.480  -0.026  0.00  0.00    +0.040 A 
ATOM     31  C   UNL     1       5.851   6.100  -0.017  0.00  0.00    +0.054 A 
ATOM     32 CL   UNL     1       7.366   5.253  -0.019  0.00  0.00    -0.083 Cl
ATOM     33 CL   UNL     1       4.602   9.892  -0.021  0.00  0.00    -0.083 Cl
ENDBRANCH  23  26
ENDBRANCH  20  22
ENDBRANCH  18  20
ENDBRANCH   3  18
TORSDOF 8
