REMARK  Name = ZINC19075182
REMARK  8 active torsions:
REMARK  status: ('A' for Active; 'I' for Inactive)
REMARK    1  A    between atoms: C_1  and  C_2
REMARK    2  A    between atoms: C_2  and  C_23
REMARK    3  A    between atoms: C_4  and  N_11
REMARK    4  A    between atoms: C_7  and  C_9
REMARK    5  A    between atoms: C_7  and  C_10
REMARK    6  A    between atoms: N_14  and  C_15
REMARK    7  A    between atoms: C_23  and  N_24
REMARK    8  A    between atoms: N_27  and  C_28
REMARK                            x       y       z     vdW  Elec       q    Type
REMARK                         _______ _______ _______ _____ _____    ______ ____
ROOT
ATOM      1  C   UNL     1       0.403   1.819  -0.263  0.00  0.00    +0.013 C 
ATOM      2  C   UNL     1       0.445   0.297  -0.095  0.00  0.00    -0.014 C 
ATOM      3  C   UNL     1       1.103  -0.343  -1.312  0.00  0.00    +0.030 C 
ATOM      4  C   UNL     1       2.608  -0.082  -1.315  0.00  0.00    +0.076 C 
ATOM      5  C   UNL     1       3.221  -0.710  -0.066  0.00  0.00    +0.028 C 
ATOM      6  C   UNL     1       2.640  -0.082   1.196  0.00  0.00    -0.033 C 
ATOM      7  C   UNL     1       1.122  -0.090   1.206  0.00  0.00    +0.014 C 
ATOM      8  C   UNL     1       3.185   1.338   1.374  0.00  0.00    +0.011 C 
ATOM      9  C   UNL     1       3.128  -0.916   2.401  0.00  0.00    +0.011 C 
ENDROOT
BRANCH   4  10
ATOM     10  N   UNL     1       3.201  -0.704  -2.506  0.00  0.00    -0.296 N 
ATOM     11  C   UNL     1       4.355  -0.226  -3.013  0.00  0.00    +0.304 C 
ATOM     12  O   UNL     1       4.905   0.720  -2.483  0.00  0.00    -0.252 OA
ATOM     13  N   UNL     1       4.899  -0.797  -4.105  0.00  0.00    -0.267 N 
ATOM     14  H   UNL     1       2.762  -1.459  -2.929  0.00  0.00    +0.151 HD
ATOM     15  H   UNL     1       4.506  -1.601  -4.479  0.00  0.00    +0.156 HD
BRANCH  13  16
ATOM     16  C   UNL     1       6.033  -0.230  -4.701  0.00  0.00    +0.073 A 
ATOM     17  C   UNL     1       6.301   1.122  -4.538  0.00  0.00    +0.064 A 
ATOM     18  C   UNL     1       7.422   1.679  -5.128  0.00  0.00    +0.125 A 
ATOM     19  C   UNL     1       8.275   0.890  -5.879  0.00  0.00    +0.041 A 
ATOM     20  C   UNL     1       8.011  -0.457  -6.044  0.00  0.00    +0.043 A 
ATOM     21  C   UNL     1       6.895  -1.021  -5.452  0.00  0.00    +0.145 A 
ATOM     22  F   UNL     1       6.640  -2.339  -5.609  0.00  0.00    -0.204 F 
ATOM     23  F   UNL     1       7.683   2.995  -4.970  0.00  0.00    -0.205 F 
ENDBRANCH  13  16
ENDBRANCH   4  10
BRANCH   2  24
ATOM     24  C   UNL     1      -1.016  -0.200  -0.038  0.00  0.00    +0.112 C 
BRANCH  24  25
ATOM     25  N   UNL     1      -1.704   0.161  -1.280  0.00  0.00    -0.299 N 
ATOM     26  C   UNL     1      -2.998  -0.173  -1.456  0.00  0.00    +0.304 C 
ATOM     27  O   UNL     1      -3.594  -0.774  -0.583  0.00  0.00    -0.253 OA
ATOM     28  N   UNL     1      -3.630   0.159  -2.599  0.00  0.00    -0.267 N 
ATOM     29  H   UNL     1      -1.228   0.640  -1.976  0.00  0.00    +0.150 HD
ATOM     30  H   UNL     1      -3.134   0.565  -3.327  0.00  0.00    +0.156 HD
BRANCH  28  31
ATOM     31  C   UNL     1      -5.003  -0.082  -2.735  0.00  0.00    +0.073 A 
ATOM     32  C   UNL     1      -5.810  -0.163  -1.608  0.00  0.00    +0.064 A 
ATOM     33  C   UNL     1      -7.166  -0.401  -1.746  0.00  0.00    +0.125 A 
ATOM     34  C   UNL     1      -7.718  -0.558  -3.006  0.00  0.00    +0.041 A 
ATOM     35  C   UNL     1      -6.917  -0.478  -4.130  0.00  0.00    +0.043 A 
ATOM     36  C   UNL     1      -5.562  -0.234  -3.999  0.00  0.00    +0.145 A 
ATOM     37  F   UNL     1      -4.780  -0.151  -5.098  0.00  0.00    -0.204 F 
ATOM     38  F   UNL     1      -7.951  -0.481  -0.650  0.00  0.00    -0.205 F 
ENDBRANCH  28  31
ENDBRANCH  24  25
ENDBRANCH   2  24
TORSDOF 5
