REMARK  Name = ZINC20681766
REMARK  9 active torsions:
REMARK  status: ('A' for Active; 'I' for Inactive)
REMARK    1  A    between atoms: C_1  and  C_2
REMARK    2  A    between atoms: C_2  and  O_3
REMARK    3  A    between atoms: O_3  and  C_4
REMARK    4  A    between atoms: C_7  and  N_10
REMARK    5  A    between atoms: N_10  and  S_11
REMARK    6  A    between atoms: S_11  and  C_14
REMARK    7  A    between atoms: C_27  and  C_30
REMARK    8  A    between atoms: C_33  and  O_37
REMARK    9  A    between atoms: C_35  and  O_36
REMARK                            x       y       z     vdW  Elec       q    Type
REMARK                         _______ _______ _______ _____ _____    ______ ____
ROOT
ATOM      1  C   UNL     1      -2.711   2.107   2.297  0.00  0.00    +0.109 A 
ATOM      2  C   UNL     1      -1.743   2.013   3.280  0.00  0.00    +0.030 A 
ATOM      3  C   UNL     1      -0.488   1.530   2.973  0.00  0.00    +0.025 A 
ATOM      4  C   UNL     1      -0.187   1.133   1.675  0.00  0.00    +0.031 A 
ATOM      5  C   UNL     1      -1.181   1.238   0.681  0.00  0.00    -0.018 A 
ATOM      6  C   UNL     1      -2.424   1.710   1.004  0.00  0.00    +0.034 A 
ATOM      7  C   UNL     1      -0.821   0.768  -0.675  0.00  0.00    +0.049 C 
ATOM      8  C   UNL     1      -1.500   1.307  -1.881  0.00  0.00    -0.023 C 
ATOM      9  C   UNL     1      -0.637   1.301  -2.891  0.00  0.00    -0.030 C 
ATOM     10  C   UNL     1       0.720   0.779  -2.416  0.00  0.00    +0.033 C 
ATOM     11  C   UNL     1       0.676   1.120  -0.920  0.00  0.00    +0.029 C 
ATOM     12  C   UNL     1       1.462   0.222   0.019  0.00  0.00    +0.108 C 
ATOM     13  N   UNL     1       1.098   0.660   1.384  0.00  0.00    -0.336 N 
ATOM     14  H   UNL     1       1.844   0.618   2.192  0.00  0.00    +0.147 HD
ENDROOT
BRANCH  12  15
ATOM     15  C   UNL     1       2.941   0.399  -0.208  0.00  0.00    +0.015 A 
ATOM     16  C   UNL     1       3.679   1.200   0.642  0.00  0.00    +0.012 A 
ATOM     17  C   UNL     1       5.036   1.364   0.437  0.00  0.00    +0.046 A 
ATOM     18  C   UNL     1       5.661   0.723  -0.624  0.00  0.00    +0.120 A 
ATOM     19  C   UNL     1       4.923  -0.082  -1.478  0.00  0.00    +0.091 A 
ATOM     20  C   UNL     1       3.562  -0.249  -1.267  0.00  0.00    +0.125 A 
BRANCH  20  21
ATOM     21  O   UNL     1       2.837  -1.041  -2.099  0.00  0.00    -0.506 OA
ATOM     22  H   UNL     1       3.330  -1.554  -2.938  0.00  0.00    +0.292 HD
ENDBRANCH  20  21
BRANCH  18  23
ATOM     23  O   UNL     1       6.995   0.884  -0.825  0.00  0.00    -0.507 OA
ATOM     24  H   UNL     1       7.490   0.376  -1.666  0.00  0.00    +0.292 HD
ENDBRANCH  18  23
ENDBRANCH  12  15
BRANCH   1  25
ATOM     25  S   UNL     1      -4.310   2.733   2.692  0.00  0.00    +0.072 S 
ATOM     26  O   UNL     1      -5.180   2.313   1.650  0.00  0.00    -0.150 OA
ATOM     27  O   UNL     1      -4.546   2.413   4.056  0.00  0.00    -0.150 OA
BRANCH  25  28
ATOM     28  N   UNL     1      -4.226   4.385   2.601  0.00  0.00    -0.216 N 
ATOM     29  H   UNL     1      -4.392   4.995   3.502  0.00  0.00    +0.174 HD
BRANCH  28  33
ATOM     30  C   UNL     1      -3.381   6.231  -1.039  0.00  0.00    +0.121 A 
ATOM     31  C   UNL     1      -4.632   5.675  -0.818  0.00  0.00    +0.047 A 
ATOM     32  C   UNL     1      -4.913   5.063   0.388  0.00  0.00    +0.028 A 
ATOM     33  C   UNL     1      -3.942   5.005   1.379  0.00  0.00    +0.048 A 
ATOM     34  C   UNL     1      -2.692   5.567   1.159  0.00  0.00    +0.028 A 
ATOM     35  C   UNL     1      -2.411   6.173  -0.050  0.00  0.00    +0.047 A 
BRANCH  30  36
ATOM     36  O   UNL     1      -3.106   6.834  -2.227  0.00  0.00    -0.492 OA
BRANCH  36  38
ATOM     37  C   UNL     1      -1.675   8.016  -3.775  0.00  0.00    +0.048 C 
ATOM     38  C   UNL     1      -1.797   7.386  -2.386  0.00  0.00    +0.225 C 
ENDBRANCH  36  38
ENDBRANCH  30  36
ENDBRANCH  28  33
ENDBRANCH  25  28
ENDBRANCH   1  25
TORSDOF 8
