REMARK  Name = ZINC39521821
REMARK  4 active torsions:
REMARK  status: ('A' for Active; 'I' for Inactive)
REMARK    1  A    between atoms: C_1  and  O_2
REMARK    2  A    between atoms: O_2  and  N_3
REMARK    3  A    between atoms: C_4  and  O_17
REMARK    4  A    between atoms: C_13  and  O_16
REMARK                            x       y       z     vdW  Elec       q    Type
REMARK                         _______ _______ _______ _____ _____    ______ ____
ROOT
ATOM      1  N   UNL     1       0.667  -0.584  -1.165  0.00  0.00    -0.154 NA
ATOM      2  C   UNL     1       1.932  -1.226  -0.785  0.00  0.00    +0.210 C 
ATOM      3  C   UNL     1       2.668  -1.692  -2.043  0.00  0.00    +0.050 C 
ATOM      4  C   UNL     1       1.783  -2.678  -2.810  0.00  0.00    +0.006 C 
ATOM      5  C   UNL     1       0.454  -1.999  -3.153  0.00  0.00    +0.025 C 
ATOM      6  C   UNL     1      -0.219  -1.524  -1.863  0.00  0.00    +0.052 C 
ATOM      7  C   UNL     1      -0.498  -2.728  -0.961  0.00  0.00    +0.025 C 
ATOM      8  C   UNL     1      -1.174  -2.256   0.328  0.00  0.00    +0.004 C 
ATOM      9  C   UNL     1      -2.492  -1.559  -0.014  0.00  0.00    +0.031 C 
ATOM     10  C   UNL     1      -2.213  -0.354  -0.915  0.00  0.00    +0.116 C 
ATOM     11  C   UNL     1      -1.537  -0.827  -2.204  0.00  0.00    +0.056 C 
ENDROOT
BRANCH   1  13
ATOM     12  C   UNL     1       0.117   1.418   0.090  0.00  0.00    +0.221 C 
ATOM     13  O   UNL     1       0.002  -0.004   0.002  0.00  0.00    -0.297 OA
ENDBRANCH   1  13
BRANCH  10  14
ATOM     14  O   UNL     1      -3.444   0.298  -1.234  0.00  0.00    -0.392 OA
ATOM     15  H   UNL     1      -3.928   0.624  -0.463  0.00  0.00    +0.210 HD
ENDBRANCH  10  14
BRANCH   2  16
ATOM     16  O   UNL     1       2.747  -0.291  -0.075  0.00  0.00    -0.375 OA
ATOM     17  H   UNL     1       3.599  -0.648   0.208  0.00  0.00    +0.212 HD
ENDBRANCH   2  16
TORSDOF 3
