REMARK  Name = ZINC35207772
REMARK  4 active torsions:
REMARK  status: ('A' for Active; 'I' for Inactive)
REMARK    1  A    between atoms: C_1  and  C_2
REMARK    2  A    between atoms: C_7  and  N_16
REMARK    3  A    between atoms: N_11  and  S_12
REMARK    4  A    between atoms: S_12  and  C_15
REMARK                            x       y       z     vdW  Elec       q    Type
REMARK                         _______ _______ _______ _____ _____    ______ ____
ROOT
ATOM      1  C   UNL     1      -0.019   1.526   0.010  0.00  0.00    +0.030 C 
ATOM      2  C   UNL     1       0.002  -0.004   0.002  0.00  0.00    +0.099 C 
ATOM      3  C   UNL     1       0.778  -0.520  -1.221  0.00  0.00    +0.061 C 
ATOM      4  C   UNL     1       1.932  -1.304  -0.637  0.00  0.00    -0.021 A 
ATOM      5  C   UNL     1       2.959  -1.994  -1.251  0.00  0.00    +0.028 A 
ATOM      6  C   UNL     1       3.916  -2.646  -0.485  0.00  0.00    +0.025 A 
ATOM      7  C   UNL     1       3.834  -2.600   0.900  0.00  0.00    +0.024 A 
ATOM      8  C   UNL     1       2.809  -1.911   1.512  0.00  0.00    +0.027 A 
ATOM      9  C   UNL     1       1.845  -1.254   0.745  0.00  0.00    +0.055 A 
ATOM     10  N   UNL     1       0.735  -0.509   1.166  0.00  0.00    -0.204 N 
ENDROOT
BRANCH  10  11
ATOM     11  S   UNL     1       0.315  -0.236   2.744  0.00  0.00    +0.043 S 
ATOM     12  O   UNL     1       1.534  -0.339   3.467  0.00  0.00    -0.155 OA
ATOM     13  O   UNL     1      -0.413   0.984   2.720  0.00  0.00    -0.155 OA
ATOM     14  C   UNL     1      -0.786  -1.612   3.177  0.00  0.00    +0.218 C 
ENDBRANCH  10  11
BRANCH   6  15
ATOM     15  N   UNL     1       4.957  -3.345  -1.106  0.00  0.00    -0.358 N 
ATOM     16  H   UNL     1       5.012  -3.375  -2.074  0.00  0.00    +0.142 HD
ATOM     17  H   UNL     1       5.625  -3.800  -0.569  0.00  0.00    +0.142 HD
ENDBRANCH   6  15
TORSDOF 2
