REMARK  Name = ZINC06861183
REMARK  8 active torsions:
REMARK  status: ('A' for Active; 'I' for Inactive)
REMARK    1  A    between atoms: C_1  and  C_2
REMARK    2  A    between atoms: C_7  and  O_8
REMARK    3  A    between atoms: O_8  and  C_9
REMARK    4  A    between atoms: C_9  and  C_10
REMARK    5  A    between atoms: N_12  and  C_13
REMARK    6  A    between atoms: C_13  and  N_15
REMARK    7  A    between atoms: N_15  and  C_16
REMARK    8  A    between atoms: C_17  and  C_24
REMARK                            x       y       z     vdW  Elec       q    Type
REMARK                         _______ _______ _______ _____ _____    ______ ____
ROOT
ATOM      1  C   UNL     1       0.066   0.380   7.091  0.00  0.00    +0.141 C 
ATOM      2  S   UNL     1       0.041   2.079   6.879  0.00  0.00    -0.018 S 
ENDROOT
BRANCH   1   5
ATOM      3  C   UNL     1       0.047   0.090   4.775  0.00  0.00    +0.256 C 
ATOM      4  O   UNL     1       0.030   1.293   4.625  0.00  0.00    -0.272 OA
ATOM      5  N   UNL     1       0.066  -0.433   6.017  0.00  0.00    -0.265 N 
ATOM      6  H   UNL     1       0.080  -1.396   6.137  0.00  0.00    +0.157 HD
BRANCH   3   7
ATOM      7  C   UNL     1       0.048  -0.820   3.574  0.00  0.00    +0.325 C 
BRANCH   7   8
ATOM      8  O   UNL     1       0.025  -0.033   2.381  0.00  0.00    -0.483 OA
BRANCH   8  15
ATOM      9  C   UNL     1      -0.018   1.503   0.010  0.00  0.00    +0.047 C 
ATOM     10  C   UNL     1       0.002  -0.004   0.002  0.00  0.00    -0.009 A 
ATOM     11  C   UNL     1       0.006  -0.689  -1.198  0.00  0.00    +0.007 A 
ATOM     12  C   UNL     1       0.024  -2.071  -1.206  0.00  0.00    +0.000 A 
ATOM     13  C   UNL     1       0.039  -2.772  -0.014  0.00  0.00    +0.004 A 
ATOM     14  C   UNL     1       0.036  -2.092   1.188  0.00  0.00    +0.046 A 
ATOM     15  C   UNL     1       0.023  -0.705   1.199  0.00  0.00    +0.124 A 
ENDBRANCH   8  15
ENDBRANCH   7   8
ENDBRANCH   3   7
ENDBRANCH   1   5
BRANCH   1  16
ATOM     16  N   UNL     1       0.085  -0.143   8.333  0.00  0.00    -0.291 N 
ATOM     17  H   UNL     1       0.099  -1.106   8.453  0.00  0.00    +0.154 HD
BRANCH  16  18
ATOM     18  C   UNL     1       0.084   0.693   9.438  0.00  0.00    +0.084 A 
ATOM     19  C   UNL     1       0.108   0.337  10.774  0.00  0.00    +0.068 A 
ATOM     20  C   UNL     1       0.102   1.421  11.756  0.00  0.00    -0.023 A 
ATOM     21  C   UNL     1       0.073   2.652  11.214  0.00  0.00    -0.004 A 
ATOM     22  S   UNL     1       0.063   2.370   9.462  0.00  0.00    -0.077 S 
ATOM     23  C   UNL     1       0.064   3.727  12.266  0.00  0.00    +0.043 C 
ATOM     24  C   UNL     1      -0.341   2.998  13.566  0.00  0.00    +0.010 C 
ATOM     25  C   UNL     1       0.123   1.556  13.277  0.00  0.00    +0.037 C 
BRANCH  19  26
ATOM     26  C   UNL     1       0.136  -1.068  11.189  0.00  0.00    +0.244 C 
ATOM     27  O   UNL     1       1.202  -1.634  11.348  0.00  0.00    -0.270 OA
ATOM     28  N   UNL     1      -1.018  -1.734  11.394  0.00  0.00    -0.325 N 
ATOM     29  H   UNL     1      -1.867  -1.283  11.268  0.00  0.00    +0.145 HD
ATOM     30  H   UNL     1      -0.999  -2.664  11.669  0.00  0.00    +0.145 HD
ENDBRANCH  19  26
ENDBRANCH  16  18
ENDBRANCH   1  16
TORSDOF 7
