REMARK  Name = ZINC43450089
REMARK  7 active torsions:
REMARK  status: ('A' for Active; 'I' for Inactive)
REMARK    1  A    between atoms: C_1  and  C_2
REMARK    2  A    between atoms: C_2  and  C_3
REMARK    3  A    between atoms: C_3  and  N_4
REMARK    4  A    between atoms: C_5  and  C_7
REMARK    5  A    between atoms: C_7  and  N_8
REMARK    6  A    between atoms: C_11  and  N_14
REMARK    7  A    between atoms: N_17  and  C_18
REMARK                            x       y       z     vdW  Elec       q    Type
REMARK                         _______ _______ _______ _____ _____    ______ ____
ROOT
ATOM      1  N   UNL     1       2.067  -4.619   3.442  0.00  0.00    +0.385 N 
ATOM      2  C   UNL     1       1.317  -4.252   4.649  0.00  0.00    -0.076 C 
ATOM      3  C   UNL     1       2.097  -4.688   5.891  0.00  0.00    +0.004 C 
ATOM      4  C   UNL     1       2.297  -6.206   5.854  0.00  0.00    +0.071 C 
ATOM      5  C   UNL     1       3.015  -6.585   4.555  0.00  0.00    +0.004 C 
ATOM      6  C   UNL     1       2.201  -6.078   3.363  0.00  0.00    -0.076 C 
ATOM      7  H   UNL     1       2.984  -4.199   3.478  0.00  0.00    -0.081 HD
ENDROOT
BRANCH   4   8
ATOM      8  N   UNL     1       3.109  -6.621   7.001  0.00  0.00    -0.296 N 
ATOM      9  C   UNL     1       3.011  -7.878   7.476  0.00  0.00    +0.304 C 
ATOM     10  O   UNL     1       2.250  -8.669   6.952  0.00  0.00    -0.252 OA
ATOM     11  N   UNL     1       3.757  -8.260   8.531  0.00  0.00    -0.267 N 
ATOM     12  H   UNL     1       3.716  -5.990   7.419  0.00  0.00    +0.151 HD
ATOM     13  H   UNL     1       4.423  -7.657   8.898  0.00  0.00    +0.156 HD
BRANCH  11  14
ATOM     14  C   UNL     1       3.572  -9.527   9.099  0.00  0.00    +0.072 A 
ATOM     15  C   UNL     1       2.354 -10.179   8.962  0.00  0.00    +0.026 A 
ATOM     16  C   UNL     1       2.173 -11.428   9.523  0.00  0.00    +0.003 A 
ATOM     17  C   UNL     1       3.203 -12.032  10.220  0.00  0.00    +0.023 A 
ATOM     18  C   UNL     1       4.419 -11.387  10.359  0.00  0.00    +0.078 A 
ATOM     19  C   UNL     1       4.609 -10.137   9.795  0.00  0.00    +0.163 A 
ATOM     20  F   UNL     1       5.798  -9.509   9.925  0.00  0.00    -0.202 F 
ATOM     21 CL   UNL     1       5.710 -12.148  11.236  0.00  0.00    -0.081 Cl
ENDBRANCH  11  14
ENDBRANCH   4   8
BRANCH   1  22
ATOM     22  C   UNL     1       1.353  -4.129   2.255  0.00  0.00    +0.019 C 
BRANCH  22  24
ATOM     23  N   UNL     1       0.714  -1.949   1.276  0.00  0.00    -0.317 N 
ATOM     24  C   UNL     1       1.322  -2.623   2.273  0.00  0.00    +0.196 C 
ATOM     25  O   UNL     1       1.843  -2.016   3.185  0.00  0.00    -0.278 OA
ATOM     26  H   UNL     1       0.297  -2.434   0.547  0.00  0.00    +0.149 HD
BRANCH  23  27
ATOM     27  C   UNL     1       0.684  -0.484   1.294  0.00  0.00    +0.104 C 
BRANCH  27  29
ATOM     28  C   UNL     1      -0.092   1.555   0.077  0.00  0.00    +0.005 C 
ATOM     29  C   UNL     1      -0.060   0.025   0.059  0.00  0.00    +0.015 C 
ENDBRANCH  27  29
ENDBRANCH  23  27
ENDBRANCH  22  24
ENDBRANCH   1  22
TORSDOF 6
