REMARK  Name = ZINC22865640
REMARK  2 active torsions:
REMARK  status: ('A' for Active; 'I' for Inactive)
REMARK    1  A    between atoms: N_7  and  O_8
REMARK    2  A    between atoms: N_10  and  O_11
REMARK                            x       y       z     vdW  Elec       q    Type
REMARK                         _______ _______ _______ _____ _____    ______ ____
ROOT
ATOM      1  C   UNL     1      -0.019   1.527   0.010  0.00  0.00    +0.098 C 
ATOM      2  N   UNL     1       1.363   2.028  -0.000  0.00  0.00    -0.295 NA
ATOM      3  C   UNL     1       2.089   1.557  -1.184  0.00  0.00    +0.176 C 
ATOM      4  N   UNL     1       1.437   2.065  -2.400  0.00  0.00    -0.306 N 
ATOM      5  C   UNL     1       1.917   1.585  -3.626  0.00  0.00    +0.202 C 
ATOM      6  N   UNL     1       2.083   2.357  -4.659  0.00  0.00    -0.068 NA
ATOM      7  C   UNL     1       2.227   0.122  -3.664  0.00  0.00    +0.202 C 
ATOM      8  N   UNL     1       2.041  -0.601  -4.728  0.00  0.00    -0.068 NA
ATOM      9  N   UNL     1       2.732  -0.417  -2.472  0.00  0.00    -0.306 N 
ATOM     10  C   UNL     1       2.090   0.025  -1.222  0.00  0.00    +0.176 C 
ATOM     11  N   UNL     1       0.705  -0.466  -1.203  0.00  0.00    -0.295 NA
ATOM     12  C   UNL     1       0.002  -0.004   0.002  0.00  0.00    +0.098 C 
ATOM     13  H   UNL     1       1.383   3.035   0.059  0.00  0.00    +0.124 HD
ATOM     14  H   UNL     1       0.708   2.703  -2.356  0.00  0.00    +0.149 HD
ATOM     15  H   UNL     1       3.466  -1.051  -2.473  0.00  0.00    +0.149 HD
ATOM     16  H   UNL     1       0.214  -0.198  -2.042  0.00  0.00    +0.124 HD
ENDROOT
BRANCH   6  17
ATOM     17  O   UNL     1       1.774   3.736  -4.569  0.00  0.00    -0.408 OA
ATOM     18  H   UNL     1       1.929   4.228  -5.386  0.00  0.00    +0.328 HD
ENDBRANCH   6  17
BRANCH   8  19
ATOM     19  O   UNL     1       2.350  -1.982  -4.710  0.00  0.00    -0.408 OA
ATOM     20  H   UNL     1       2.179  -2.435  -5.547  0.00  0.00    +0.328 HD
ENDBRANCH   8  19
TORSDOF 2
