REMARK  Name = ZINC21322372
REMARK  10 active torsions:
REMARK  status: ('A' for Active; 'I' for Inactive)
REMARK    1  A    between atoms: C_1  and  C_2
REMARK    2  A    between atoms: C_2  and  C_29
REMARK    3  A    between atoms: N_3  and  N_4
REMARK    4  A    between atoms: C_8  and  S_11
REMARK    5  A    between atoms: N_9  and  N_10
REMARK    6  A    between atoms: S_11  and  C_12
REMARK    7  A    between atoms: C_12  and  C_13
REMARK    8  A    between atoms: C_19  and  S_21
REMARK    9  A    between atoms: S_21  and  C_22
REMARK   10  A    between atoms: C_22  and  C_23
REMARK                            x       y       z     vdW  Elec       q    Type
REMARK                         _______ _______ _______ _____ _____    ______ ____
ROOT
ATOM      1  N   UNL     1       1.754  -1.723  -0.024  0.00  0.00    -0.204 N 
ATOM      2  C   UNL     1       1.308  -0.409  -0.013  0.00  0.00    +0.254 A 
ATOM      3  N   UNL     1       2.064   0.662  -0.014  0.00  0.00    -0.109 NA
ATOM      4  N   UNL     1       1.225   1.784  -0.000  0.00  0.00    -0.119 NA
ATOM      5  C   UNL     1      -0.016   1.362   0.009  0.00  0.00    +0.210 A 
ATOM      6  N   UNL     1       0.002  -0.004   0.002  0.00  0.00    -0.211 N 
ATOM      7  H   UNL     1       1.029  -2.550  -0.021  0.00  0.00    +0.178 HD
ENDROOT
BRANCH   1  10
ATOM      8  C   UNL     1       2.553  -4.358  -0.044  0.00  0.00    +0.068 C 
ATOM      9  C   UNL     1       3.546  -3.225  -0.048  0.00  0.00    +0.063 C 
ATOM     10  N   UNL     1       3.128  -1.995  -0.038  0.00  0.00    -0.184 NA
BRANCH   9  11
ATOM     11  C   UNL     1       4.992  -3.512  -0.064  0.00  0.00    -0.003 A 
ATOM     12  C   UNL     1       5.446  -4.833  -0.069  0.00  0.00    +0.010 A 
ATOM     13  C   UNL     1       6.800  -5.094  -0.088  0.00  0.00    +0.001 A 
ATOM     14  C   UNL     1       7.709  -4.051  -0.092  0.00  0.00    +0.000 A 
ATOM     15  C   UNL     1       7.267  -2.740  -0.082  0.00  0.00    +0.001 A 
ATOM     16  C   UNL     1       5.916  -2.464  -0.067  0.00  0.00    +0.010 A 
ENDBRANCH   9  11
ENDBRANCH   1  10
BRANCH   6  17
ATOM     17  N   UNL     1      -1.092  -0.822   0.008  0.00  0.00    -0.294 N 
ATOM     18  H   UNL     1      -2.103  -0.388   0.020  0.00  0.00    +0.163 HD
ATOM     19  H   UNL     1      -0.962  -1.914   0.000  0.00  0.00    +0.163 HD
ENDBRANCH   6  17
BRANCH   5  20
ATOM     20  S   UNL     1      -1.456   2.378   0.022  0.00  0.00    -0.075 S 
BRANCH  20  21
ATOM     21  C   UNL     1      -0.799   4.069   0.028  0.00  0.00    +0.173 C 
BRANCH  21  22
ATOM     22  C   UNL     1      -1.942   5.051   0.039  0.00  0.00    +0.229 C 
ATOM     23  O   UNL     1      -3.087   4.650   0.043  0.00  0.00    -0.275 OA
ATOM     24  N   UNL     1      -1.692   6.376   0.045  0.00  0.00    -0.263 N 
ATOM     25  C   UNL     1      -2.748   7.284   0.055  0.00  0.00    +0.189 A 
ATOM     26  N   UNL     1      -4.053   7.070   0.061  0.00  0.00    -0.125 NA
ATOM     27  N   UNL     1      -4.886   8.017   0.070  0.00  0.00    -0.133 NA
ATOM     28  C   UNL     1      -4.504   9.286   0.075  0.00  0.00    +0.160 A 
ATOM     29  S   UNL     1      -2.726   9.074   0.072  0.00  0.00    -0.024 S 
ATOM     30  H   UNL     1      -0.654   6.739   0.042  0.00  0.00    +0.157 HD
BRANCH  28  31
ATOM     31  S   UNL     1      -5.470  10.759   0.089  0.00  0.00    -0.092 S 
BRANCH  31  32
ATOM     32  C   UNL     1      -7.182  10.162   0.095  0.00  0.00    +0.111 C 
BRANCH  32  33
ATOM     33  C   UNL     1      -8.125  11.338   0.107  0.00  0.00    -0.037 A 
ATOM     34  C   UNL     1      -8.555  11.867   1.310  0.00  0.00    +0.004 A 
ATOM     35  C   UNL     1      -9.415  12.949   1.321  0.00  0.00    +0.000 A 
ATOM     36  C   UNL     1      -9.854  13.495   0.130  0.00  0.00    +0.000 A 
ATOM     37  C   UNL     1      -9.428  12.963  -1.073  0.00  0.00    +0.000 A 
ATOM     38  C   UNL     1      -8.563  11.884  -1.084  0.00  0.00    +0.004 A 
ENDBRANCH  32  33
ENDBRANCH  31  32
ENDBRANCH  28  31
ENDBRANCH  21  22
ENDBRANCH  20  21
ENDBRANCH   5  20
TORSDOF 9
