REMARK  Name = ZINC46095414
REMARK  6 active torsions:
REMARK  status: ('A' for Active; 'I' for Inactive)
REMARK    1  A    between atoms: C_1  and  C_2
REMARK    2  A    between atoms: C_2  and  N_9
REMARK    3  A    between atoms: N_9  and  N_10
REMARK    4  A    between atoms: N_13  and  C_14
REMARK    5  A    between atoms: C_14  and  C_15
REMARK    6  A    between atoms: C_20  and  N_21
REMARK                            x       y       z     vdW  Elec       q    Type
REMARK                         _______ _______ _______ _____ _____    ______ ____
ROOT
ATOM      1  N   UNL     1       0.140   0.002  -2.331  0.00  0.00    -0.234 N 
ATOM      2  C   UNL     1       0.663  -0.308  -3.534  0.00  0.00    +0.314 C 
ATOM      3  O   UNL     1       0.136   0.101  -4.550  0.00  0.00    -0.252 OA
ATOM      4  N   UNL     1       1.772  -1.070  -3.610  0.00  0.00    -0.294 N 
ATOM      5  H   UNL     1      -0.658   0.551  -2.276  0.00  0.00    +0.171 HD
ATOM      6  H   UNL     1       2.193  -1.396  -2.799  0.00  0.00    +0.151 HD
ENDROOT
BRANCH   1   7
ATOM      7  N   UNL     1       0.733  -0.457  -1.189  0.00  0.00    -0.232 NA
ATOM      8  H   UNL     1       0.814  -1.462  -1.203  0.00  0.00    +0.145 HD
BRANCH   7  10
ATOM      9  C   UNL     1      -0.019   1.526   0.010  0.00  0.00    +0.031 C 
ATOM     10  C   UNL     1       0.002  -0.004   0.002  0.00  0.00    +0.054 C 
ATOM     11  C   UNL     1      -1.436  -0.513  -0.087  0.00  0.00    +0.047 C 
ATOM     12  C   UNL     1      -1.556  -1.909   0.586  0.00  0.00    +0.168 C 
ATOM     13  S   UNL     1      -0.454  -1.644   2.043  0.00  0.00    -0.029 S 
ATOM     14  O   UNL     1       0.203  -2.864   2.360  0.00  0.00    -0.174 OA
ATOM     15  O   UNL     1      -1.173  -0.950   3.053  0.00  0.00    -0.174 OA
ATOM     16  C   UNL     1       0.751  -0.495   1.257  0.00  0.00    +0.189 C 
ENDBRANCH   7  10
ENDBRANCH   1   7
BRANCH   4  17
ATOM     17  C   UNL     1       2.341  -1.406  -4.917  0.00  0.00    +0.144 C 
BRANCH  17  18
ATOM     18  C   UNL     1       3.568  -2.261  -4.726  0.00  0.00    +0.014 A 
ATOM     19  C   UNL     1       4.832  -1.700  -4.795  0.00  0.00    +0.010 A 
ATOM     20  C   UNL     1       5.933  -2.525  -4.613  0.00  0.00    +0.020 A 
ATOM     21  C   UNL     1       5.736  -3.871  -4.370  0.00  0.00    +0.113 A 
ATOM     22  N   UNL     1       4.519  -4.377  -4.310  0.00  0.00    -0.236 NA
ATOM     23  C   UNL     1       3.445  -3.622  -4.473  0.00  0.00    +0.159 A 
BRANCH  23  24
ATOM     24  N   UNL     1       2.174  -4.199  -4.394  0.00  0.00    -0.222 N 
ATOM     25  C   UNL     1       1.873  -5.504  -4.623  0.00  0.00    +0.116 A 
ATOM     26  C   UNL     1       0.540  -5.654  -4.443  0.00  0.00    +0.041 A 
ATOM     27  C   UNL     1       0.009  -4.407  -4.095  0.00  0.00    +0.135 A 
ATOM     28  N   UNL     1       0.986  -3.537  -4.060  0.00  0.00    -0.173 NA
ENDBRANCH  23  24
ENDBRANCH  17  18
ENDBRANCH   4  17
TORSDOF 5
