REMARK  Name = ZINC00860651
REMARK  10 active torsions:
REMARK  status: ('A' for Active; 'I' for Inactive)
REMARK    1  A    between atoms: N_13  and  C_14
REMARK    2  A    between atoms: C_14  and  C_15
REMARK    3  A    between atoms: C_15  and  C_17
REMARK    4  A    between atoms: C_15  and  O_31
REMARK    5  A    between atoms: C_17  and  O_18
REMARK    6  A    between atoms: O_18  and  C_19
REMARK    7  A    between atoms: C_22  and  C_25
REMARK    8  A    between atoms: N_26  and  N_27
REMARK    9  A    between atoms: N_27  and  C_28
REMARK   10  A    between atoms: C_28  and  N_30
REMARK                            x       y       z     vdW  Elec       q    Type
REMARK                         _______ _______ _______ _____ _____    ______ ____
ROOT
ATOM      1  C   UNL     1      -4.836   3.913   0.069  0.00  0.00    +0.171 C 
ENDROOT
BRANCH   1   2
ATOM      2  O   UNL     1      -4.891   4.661  -1.147  0.00  0.00    -0.387 OA
ATOM      3  H   UNL     1      -4.952   4.114  -1.942  0.00  0.00    +0.210 HD
ENDBRANCH   1   2
BRANCH   1   4
ATOM      4  C   UNL     1      -6.101   3.063   0.203  0.00  0.00    +0.157 C 
BRANCH   4  17
ATOM      5  C   UNL     1      -9.187   5.592   3.617  0.00  0.00    +0.001 A 
ATOM      6  C   UNL     1      -8.087   4.792   3.887  0.00  0.00    +0.002 A 
ATOM      7  C   UNL     1      -7.383   4.198   2.861  0.00  0.00    +0.026 A 
ATOM      8  C   UNL     1      -7.774   4.399   1.541  0.00  0.00    +0.050 A 
ATOM      9  C   UNL     1      -8.886   5.211   1.270  0.00  0.00    +0.008 A 
ATOM     10  C   UNL     1      -9.586   5.808   2.316  0.00  0.00    +0.010 A 
ATOM     11  C   UNL     1      -9.048   5.223  -0.196  0.00  0.00    +0.008 A 
ATOM     12  C   UNL     1      -9.958   5.835  -1.054  0.00  0.00    +0.010 A 
ATOM     13  C   UNL     1      -9.846   5.651  -2.415  0.00  0.00    +0.001 A 
ATOM     14  C   UNL     1      -8.832   4.859  -2.932  0.00  0.00    +0.002 A 
ATOM     15  C   UNL     1      -7.924   4.248  -2.094  0.00  0.00    +0.026 A 
ATOM     16  C   UNL     1      -8.021   4.422  -0.716  0.00  0.00    +0.050 A 
ATOM     17  N   UNL     1      -7.267   3.939   0.339  0.00  0.00    -0.337 N 
ENDBRANCH   4  17
ENDBRANCH   1   4
BRANCH   1  18
ATOM     18  C   UNL     1      -3.608   3.001   0.053  0.00  0.00    +0.262 C 
BRANCH  18  19
ATOM     19  O   UNL     1      -2.422   3.798   0.046  0.00  0.00    -0.489 OA
BRANCH  19  20
ATOM     20  C   UNL     1      -1.235   3.138   0.031  0.00  0.00    +0.121 A 
ATOM     21  C   UNL     1      -1.215   1.750   0.017  0.00  0.00    +0.046 A 
ATOM     22  C   UNL     1      -0.013   1.076   0.008  0.00  0.00    +0.013 A 
ATOM     23  C   UNL     1       1.187   1.792   0.000  0.00  0.00    -0.005 A 
ATOM     24  C   UNL     1       1.162   3.189   0.008  0.00  0.00    +0.013 A 
ATOM     25  C   UNL     1      -0.045   3.854   0.023  0.00  0.00    +0.046 A 
BRANCH  23  26
ATOM     26  C   UNL     1       2.476   1.076  -0.015  0.00  0.00    +0.138 C 
ATOM     27  N   UNL     1       3.589   1.743  -0.022  0.00  0.00    -0.188 NA
BRANCH  27  28
ATOM     28  N   UNL     1       4.814   1.062  -0.037  0.00  0.00    -0.219 N 
ATOM     29  H   UNL     1       4.829   0.092  -0.042  0.00  0.00    +0.176 HD
BRANCH  28  30
ATOM     30  C   UNL     1       5.970   1.755  -0.045  0.00  0.00    +0.147 C 
ATOM     31  S   UNL     1       7.466   0.923  -0.063  0.00  0.00    -0.017 S 
BRANCH  30  32
ATOM     32  N   UNL     1       5.948   3.102  -0.038  0.00  0.00    -0.339 N 
ATOM     33  H   UNL     1       5.100   3.574  -0.027  0.00  0.00    +0.144 HD
ATOM     34  H   UNL     1       6.780   3.601  -0.043  0.00  0.00    +0.144 HD
ENDBRANCH  30  32
ENDBRANCH  28  30
ENDBRANCH  27  28
ENDBRANCH  23  26
ENDBRANCH  19  20
ENDBRANCH  18  19
ENDBRANCH   1  18
TORSDOF 10
