REMARK  Name = ZINC40178726
REMARK  7 active torsions:
REMARK  status: ('A' for Active; 'I' for Inactive)
REMARK    1  A    between atoms: C_1  and  C_2
REMARK    2  A    between atoms: C_5  and  C_8
REMARK    3  A    between atoms: C_10  and  C_14
REMARK    4  A    between atoms: C_11  and  C_13
REMARK    5  A    between atoms: N_16  and  C_17
REMARK    6  A    between atoms: C_20  and  S_23
REMARK    7  A    between atoms: S_23  and  N_26
REMARK                            x       y       z     vdW  Elec       q    Type
REMARK                         _______ _______ _______ _____ _____    ______ ____
ROOT
ATOM      1  C   UNL     1       0.103  -7.662   1.374  0.00  0.00    +0.252 C 
ATOM      2  O   UNL     1       0.109  -8.745   0.819  0.00  0.00    -0.270 OA
ATOM      3  N   UNL     1       0.104  -7.596   2.720  0.00  0.00    -0.281 N 
ATOM      4  H   UNL     1       0.167  -6.735   3.163  0.00  0.00    +0.155 HD
ENDROOT
BRANCH   1   7
ATOM      5  C   UNL     1       0.081  -4.251  -0.021  0.00  0.00    +0.136 A 
ATOM      6  C   UNL     1       0.087  -5.046   1.077  0.00  0.00    +0.063 A 
ATOM      7  C   UNL     1       0.095  -6.424   0.575  0.00  0.00    +0.078 A 
ATOM      8  C   UNL     1       0.092  -6.322  -0.788  0.00  0.00    +0.115 A 
ATOM      9  O   UNL     1       0.079  -5.028  -1.120  0.00  0.00    -0.459 OA
ATOM     10  C   UNL     1       0.098  -7.478  -1.755  0.00  0.00    +0.087 C 
BRANCH   5  15
ATOM     11  C   UNL     1       0.043   1.504   0.011  0.00  0.00    +0.044 C 
ATOM     12  C   UNL     1       0.053  -0.003   0.003  0.00  0.00    -0.050 A 
ATOM     13  C   UNL     1       0.051  -0.685  -1.201  0.00  0.00    +0.004 A 
ATOM     14  C   UNL     1       0.060  -2.065  -1.216  0.00  0.00    +0.012 A 
ATOM     15  C   UNL     1       0.072  -2.772  -0.013  0.00  0.00    +0.017 A 
ATOM     16  C   UNL     1       0.074  -2.078   1.198  0.00  0.00    +0.012 A 
ATOM     17  C   UNL     1       0.070  -0.699   1.199  0.00  0.00    +0.004 A 
ENDBRANCH   5  15
ENDBRANCH   1   7
BRANCH   3  18
ATOM     18  C   UNL     1       0.014  -8.768   3.478  0.00  0.00    +0.034 A 
ATOM     19  C   UNL     1       0.625  -9.933   3.034  0.00  0.00    +0.025 A 
ATOM     20  C   UNL     1       0.535 -11.088   3.785  0.00  0.00    +0.030 A 
ATOM     21  C   UNL     1      -0.164 -11.085   4.979  0.00  0.00    +0.105 A 
ATOM     22  C   UNL     1      -0.774  -9.927   5.423  0.00  0.00    +0.030 A 
ATOM     23  C   UNL     1      -0.682  -8.767   4.680  0.00  0.00    +0.025 A 
BRANCH  21  24
ATOM     24  S   UNL     1      -0.277 -12.562   5.934  0.00  0.00    +0.056 S 
ATOM     25  O   UNL     1      -1.444 -12.438   6.736  0.00  0.00    -0.153 OA
ATOM     26  O   UNL     1      -0.084 -13.644   5.034  0.00  0.00    -0.153 OA
BRANCH  24  27
ATOM     27  N   UNL     1       1.013 -12.573   6.973  0.00  0.00    -0.204 NA
ATOM     28  H   UNL     1       1.649 -11.841   6.963  0.00  0.00    +0.144 HD
ATOM     29  H   UNL     1       1.131 -13.311   7.590  0.00  0.00    +0.144 HD
ENDBRANCH  24  27
ENDBRANCH  21  24
ENDBRANCH   3  18
TORSDOF 5
