REMARK  Name = ZINC00894195
REMARK  6 active torsions:
REMARK  status: ('A' for Active; 'I' for Inactive)
REMARK    1  A    between atoms: C_1  and  C_2
REMARK    2  A    between atoms: C_5  and  C_32
REMARK    3  A    between atoms: C_9  and  C_14
REMARK    4  A    between atoms: C_14  and  C_16
REMARK    5  A    between atoms: C_14  and  N_61
REMARK    6  A    between atoms: N_20  and  C_21
REMARK                            x       y       z     vdW  Elec       q    Type
REMARK                         _______ _______ _______ _____ _____    ______ ____
ROOT
ATOM      1  C   UNL     1       1.750   3.127   0.002  0.00  0.00    +0.039 C 
ENDROOT
BRANCH   1  10
ATOM      2  C   UNL     1       0.347   6.439   3.767  0.00  0.00    +0.044 C 
ATOM      3  C   UNL     1       1.571   5.704   4.250  0.00  0.00    -0.041 A 
ATOM      4  C   UNL     1       2.092   5.977   5.483  0.00  0.00    +0.004 A 
ATOM      5  C   UNL     1       3.218   5.305   5.938  0.00  0.00    +0.005 A 
ATOM      6  C   UNL     1       3.832   4.350   5.156  0.00  0.00    -0.026 A 
ATOM      7  C   UNL     1       3.319   4.056   3.897  0.00  0.00    +0.052 A 
ATOM      8  C   UNL     1       2.176   4.739   3.439  0.00  0.00    +0.002 A 
ATOM      9  C   UNL     1       1.643   4.422   2.113  0.00  0.00    +0.018 A 
ATOM     10  C   UNL     1       2.273   3.477   1.371  0.00  0.00    +0.011 A 
ATOM     11  C   UNL     1       3.412   2.817   1.879  0.00  0.00    +0.251 A 
ATOM     12  O   UNL     1       3.959   1.967   1.198  0.00  0.00    -0.268 OA
ATOM     13  N   UNL     1       3.912   3.105   3.093  0.00  0.00    -0.322 N 
ATOM     14  H   UNL     1       4.726   2.624   3.418  0.00  0.00    +0.169 HD
ATOM     15  C   UNL     1       5.053   3.627   5.662  0.00  0.00    +0.046 C 
ENDBRANCH   1  10
BRANCH   1  21
ATOM     16  C   UNL     1       3.383   4.640  -0.952  0.00  0.00    -0.049 C 
ATOM     17  C   UNL     1       4.537   4.739  -1.953  0.00  0.00    +0.141 C 
ATOM     18  O   UNL     1       4.064   4.380  -3.255  0.00  0.00    -0.383 OA
ATOM     19  C   UNL     1       3.515   3.062  -3.325  0.00  0.00    +0.141 C 
ATOM     20  C   UNL     1       2.351   2.946  -2.338  0.00  0.00    -0.049 C 
ATOM     21  N   UNL     1       2.846   3.263  -0.982  0.00  0.00    +0.392 N 
ATOM     22  H   UNL     1       3.597   2.607  -0.738  0.00  0.00    -0.080 HD
ENDBRANCH   1  21
BRANCH   1  23
ATOM     23  C   UNL     1       1.265   1.700  -0.001  0.00  0.00    +0.143 A 
ATOM     24  N   UNL     1       2.009   0.621  -0.014  0.00  0.00    -0.115 NA
ATOM     25  N   UNL     1       1.226  -0.403  -0.012  0.00  0.00    -0.023 NA
ATOM     26  N   UNL     1       0.002  -0.004   0.002  0.00  0.00    -0.044 NA
ATOM     27  N   UNL     1      -0.015   1.286   0.009  0.00  0.00    -0.227 N 
BRANCH  27  28
ATOM     28  C   UNL     1      -1.206   2.140   0.020  0.00  0.00    +0.111 C 
ATOM     29  C   UNL     1      -2.034   1.845   1.272  0.00  0.00    +0.027 C 
ATOM     30  C   UNL     1      -3.277   2.737   1.283  0.00  0.00    +0.002 C 
ATOM     31  C   UNL     1      -4.118   2.455   0.036  0.00  0.00    +0.000 C 
ATOM     32  C   UNL     1      -3.290   2.750  -1.216  0.00  0.00    +0.002 C 
ATOM     33  C   UNL     1      -2.047   1.858  -1.227  0.00  0.00    +0.027 C 
ENDBRANCH  27  28
ENDBRANCH   1  23
TORSDOF 4
