REMARK  Name = ZINC16320850
REMARK  10 active torsions:
REMARK  status: ('A' for Active; 'I' for Inactive)
REMARK    1  A    between atoms: C_1  and  C_2
REMARK    2  A    between atoms: N_4  and  C_5
REMARK    3  A    between atoms: C_5  and  N_7
REMARK    4  A    between atoms: N_7  and  C_8
REMARK    5  A    between atoms: C_11  and  N_14
REMARK    6  A    between atoms: N_14  and  C_15
REMARK    7  A    between atoms: C_15  and  N_17
REMARK    8  A    between atoms: C_18  and  C_20
REMARK    9  A    between atoms: C_21  and  C_22
REMARK   10  A    between atoms: C_26  and  N_28
REMARK                            x       y       z     vdW  Elec       q    Type
REMARK                         _______ _______ _______ _____ _____    ______ ____
ROOT
ATOM      1  C   UNL     1      -4.918   4.701  -1.358  0.00  0.00    +0.141 C 
ATOM      2  S   UNL     1      -3.523   5.667  -1.589  0.00  0.00    -0.018 S 
ENDROOT
BRANCH   1   3
ATOM      3  N   UNL     1      -6.137   5.196  -1.651  0.00  0.00    -0.264 N 
ATOM      4  C   UNL     1      -6.257   6.452  -2.127  0.00  0.00    +0.242 C 
ATOM      5  O   UNL     1      -5.266   7.138  -2.291  0.00  0.00    -0.270 OA
ATOM      6  H   UNL     1      -6.927   4.649  -1.520  0.00  0.00    +0.157 HD
BRANCH   4   7
ATOM      7  C   UNL     1      -7.580   6.989  -2.445  0.00  0.00    +0.068 C 
ATOM      8  C   UNL     1      -7.701   8.246  -2.921  0.00  0.00    +0.013 C 
BRANCH   8   9
ATOM      9  C   UNL     1      -9.031   8.787  -3.241  0.00  0.00    -0.023 A 
ATOM     10  C   UNL     1     -10.173   8.001  -3.053  0.00  0.00    +0.009 A 
ATOM     11  C   UNL     1     -11.416   8.514  -3.354  0.00  0.00    +0.023 A 
ATOM     12  C   UNL     1     -11.536   9.805  -3.843  0.00  0.00    +0.071 A 
ATOM     13  C   UNL     1     -10.410  10.589  -4.032  0.00  0.00    +0.145 A 
ATOM     14  C   UNL     1      -9.161  10.091  -3.728  0.00  0.00    +0.042 A 
ATOM     15 CL   UNL     1     -13.106  10.443  -4.220  0.00  0.00    -0.081 Cl
BRANCH  13  16
ATOM     16  N   UNL     1     -10.549  11.967  -4.554  0.00  0.00    +0.058 N 
ATOM     17  O   UNL     1      -9.559  12.658  -4.720  0.00  0.00    -0.126 OA
ATOM     18  O   UNL     1     -11.652  12.411  -4.817  0.00  0.00    -0.126 OA
ENDBRANCH  13  16
ENDBRANCH   8   9
ENDBRANCH   4   7
ENDBRANCH   1   3
BRANCH   1  19
ATOM     19  N   UNL     1      -4.797   3.446  -0.883  0.00  0.00    -0.297 N 
ATOM     20  H   UNL     1      -5.590   2.920  -0.694  0.00  0.00    +0.154 HD
BRANCH  19  24
ATOM     21  C   UNL     1      -1.014   1.820  -0.224  0.00  0.00    +0.033 A 
ATOM     22  C   UNL     1      -1.988   1.072  -0.874  0.00  0.00    +0.025 A 
ATOM     23  C   UNL     1      -3.242   1.609  -1.087  0.00  0.00    +0.025 A 
ATOM     24  C   UNL     1      -3.527   2.900  -0.662  0.00  0.00    +0.033 A 
ATOM     25  C   UNL     1      -2.551   3.649  -0.017  0.00  0.00    +0.025 A 
ATOM     26  C   UNL     1      -1.299   3.111   0.201  0.00  0.00    +0.025 A 
BRANCH  21  27
ATOM     27  N   UNL     1       0.256   1.274  -0.003  0.00  0.00    -0.297 N 
ATOM     28  H   UNL     1       0.713   0.802  -0.717  0.00  0.00    +0.154 HD
BRANCH  27  29
ATOM     29  C   UNL     1       0.847   1.408   1.201  0.00  0.00    +0.141 C 
ATOM     30  S   UNL     1       0.090   2.332   2.428  0.00  0.00    -0.018 S 
BRANCH  29  34
ATOM     31  C   UNL     1       3.951   0.287   2.910  0.00  0.00    +0.109 C 
ATOM     32  C   UNL     1       2.624   0.950   2.643  0.00  0.00    +0.215 C 
ATOM     33  O   UNL     1       2.088   1.604   3.512  0.00  0.00    -0.276 OA
ATOM     34  N   UNL     1       2.034   0.815   1.439  0.00  0.00    -0.268 N 
ATOM     35  H   UNL     1       2.462   0.291   0.745  0.00  0.00    +0.156 HD
ENDBRANCH  29  34
ENDBRANCH  27  29
ENDBRANCH  21  27
ENDBRANCH  19  24
ENDBRANCH   1  19
TORSDOF 9
