REMARK  Name = ZINC09491602
REMARK  9 active torsions:
REMARK  status: ('A' for Active; 'I' for Inactive)
REMARK    1  A    between atoms: C_4  and  N_7
REMARK    2  A    between atoms: C_8  and  C_17
REMARK    3  A    between atoms: C_10  and  C_12
REMARK    4  A    between atoms: C_17  and  O_19
REMARK    5  A    between atoms: O_19  and  C_20
REMARK    6  A    between atoms: C_20  and  C_21
REMARK    7  A    between atoms: N_23  and  C_24
REMARK    8  A    between atoms: C_28  and  S_30
REMARK    9  A    between atoms: S_30  and  N_33
REMARK                            x       y       z     vdW  Elec       q    Type
REMARK                         _______ _______ _______ _____ _____    ______ ____
ROOT
ATOM      1  C   UNL     1       3.093   3.860   1.611  0.00  0.00    +0.358 C 
ATOM      2  O   UNL     1       3.712   4.678   2.262  0.00  0.00    -0.243 OA
ENDROOT
BRANCH   1   4
ATOM      3  N   UNL     1       1.152   3.486   0.023  0.00  0.00    -0.225 N 
ATOM      4  C   UNL     1       2.010   4.298   0.719  0.00  0.00    +0.152 A 
ATOM      5  C   UNL     1       1.668   5.601   0.428  0.00  0.00    +0.065 A 
ATOM      6  C   UNL     1       0.582   5.566  -0.462  0.00  0.00    +0.100 A 
ATOM      7  N   UNL     1       0.280   4.305  -0.705  0.00  0.00    -0.165 NA
BRANCH   3  11
ATOM      8  C   UNL     1       1.149  -0.680   0.056  0.00  0.00    +0.000 A 
ATOM      9  C   UNL     1       1.052   0.001  -1.144  0.00  0.00    +0.002 A 
ATOM     10  C   UNL     1       1.053   1.382  -1.158  0.00  0.00    +0.028 A 
ATOM     11  C   UNL     1       1.151   2.087   0.034  0.00  0.00    +0.066 A 
ATOM     12  C   UNL     1       1.247   1.401   1.238  0.00  0.00    +0.028 A 
ATOM     13  C   UNL     1       1.247   0.020   1.245  0.00  0.00    +0.002 A 
ENDBRANCH   3  11
BRANCH   6  14
ATOM     14  C   UNL     1      -0.104   6.745  -1.035  0.00  0.00    +0.039 A 
ATOM     15  C   UNL     1      -1.162   6.790  -1.902  0.00  0.00    +0.018 A 
ATOM     16  C   UNL     1      -1.638   8.020  -2.303  0.00  0.00    +0.008 A 
ATOM     17  C   UNL     1      -1.046   9.145  -1.828  0.00  0.00    +0.046 A 
ATOM     18  S   UNL     1       0.227   8.479  -0.768  0.00  0.00    -0.095 S 
ENDBRANCH   6  14
ENDBRANCH   1   4
BRANCH   1  19
ATOM     19  O   UNL     1       3.400   2.551   1.705  0.00  0.00    -0.451 OA
BRANCH  19  20
ATOM     20  C   UNL     1       4.481   2.191   2.605  0.00  0.00    +0.328 C 
BRANCH  20  21
ATOM     21  C   UNL     1       4.680   0.697   2.580  0.00  0.00    +0.255 C 
ATOM     22  O   UNL     1       3.979   0.004   1.873  0.00  0.00    -0.272 OA
ATOM     23  N   UNL     1       5.636   0.131   3.342  0.00  0.00    -0.283 N 
ATOM     24  H   UNL     1       6.151   0.676   3.958  0.00  0.00    +0.155 HD
BRANCH  23  25
ATOM     25  C   UNL     1       5.886  -1.242   3.247  0.00  0.00    +0.035 A 
ATOM     26  C   UNL     1       4.839  -2.126   3.020  0.00  0.00    +0.023 A 
ATOM     27  C   UNL     1       5.089  -3.481   2.921  0.00  0.00    +0.004 A 
ATOM     28  C   UNL     1       6.380  -3.958   3.057  0.00  0.00    +0.028 A 
ATOM     29  C   UNL     1       7.424  -3.082   3.288  0.00  0.00    +0.107 A 
ATOM     30  C   UNL     1       7.181  -1.725   3.383  0.00  0.00    +0.051 A 
BRANCH  29  31
ATOM     31  S   UNL     1       9.066  -3.695   3.462  0.00  0.00    +0.056 S 
ATOM     32  O   UNL     1       9.106  -4.946   2.789  0.00  0.00    -0.153 OA
ATOM     33  O   UNL     1       9.938  -2.623   3.128  0.00  0.00    -0.153 OA
BRANCH  31  34
ATOM     34  N   UNL     1       9.303  -4.015   5.069  0.00  0.00    -0.204 NA
ATOM     35  H   UNL     1       9.909  -4.722   5.339  0.00  0.00    +0.144 HD
ATOM     36  H   UNL     1       8.834  -3.495   5.741  0.00  0.00    +0.144 HD
ENDBRANCH  31  34
ENDBRANCH  29  31
ENDBRANCH  23  25
ENDBRANCH  20  21
ENDBRANCH  19  20
ENDBRANCH   1  19
TORSDOF 9
