REMARK  Name = ZINC39296709
REMARK  2 active torsions:
REMARK  status: ('A' for Active; 'I' for Inactive)
REMARK    1  A    between atoms: C_8  and  C_12
REMARK    2  A    between atoms: C_12  and  N_13
REMARK                            x       y       z     vdW  Elec       q    Type
REMARK                         _______ _______ _______ _____ _____    ______ ____
ROOT
ATOM      1  C   UNL     1      -0.019   1.528   0.010  0.00  0.00    +0.002 C 
ATOM      2  C   UNL     1       1.399   2.094  -0.000  0.00  0.00    +0.004 C 
ATOM      3  C   UNL     1       2.127   1.690  -1.290  0.00  0.00    +0.033 C 
ATOM      4  C   UNL     1       2.011   0.171  -1.399  0.00  0.00    -0.042 C 
ATOM      5  C   UNL     1       3.041  -0.663  -1.540  0.00  0.00    +0.071 C 
ATOM      6  C   UNL     1       2.783  -2.124  -1.440  0.00  0.00    +0.112 C 
ATOM      7  N   UNL     1       3.743  -3.015  -1.522  0.00  0.00    -0.226 NA
ATOM      8  C   UNL     1       4.986  -2.570  -1.706  0.00  0.00    +0.137 C 
ATOM      9  N   UNL     1       5.334  -1.314  -1.809  0.00  0.00    -0.160 NA
ATOM     10  C   UNL     1       4.478  -0.278  -1.740  0.00  0.00    +0.271 C 
ATOM     11  O   UNL     1       4.841   0.883  -1.833  0.00  0.00    -0.268 OA
ATOM     12  S   UNL     1       1.037  -2.258  -1.218  0.00  0.00    -0.097 S 
ATOM     13  C   UNL     1       0.626  -0.473  -1.314  0.00  0.00    +0.079 C 
ATOM     14  C   UNL     1       0.002  -0.004   0.002  0.00  0.00    +0.019 C 
ENDROOT
BRANCH   8  15
ATOM     15  C   UNL     1       6.081  -3.601  -1.802  0.00  0.00    +0.152 C 
BRANCH  15  16
ATOM     16  N   UNL     1       7.371  -2.927  -2.003  0.00  0.00    -0.324 NA
ATOM     17  H   UNL     1       8.123  -3.597  -2.070  0.00  0.00    +0.119 HD
ATOM     18  H   UNL     1       7.345  -2.330  -2.816  0.00  0.00    +0.119 HD
ENDBRANCH  15  16
ENDBRANCH   8  15
TORSDOF 2
