REMARK  Name = ZINC08600375
REMARK  12 active torsions:
REMARK  status: ('A' for Active; 'I' for Inactive)
REMARK    1  A    between atoms: C_1  and  C_2
REMARK    2  A    between atoms: C_2  and  C_3
REMARK    3  A    between atoms: C_2  and  C_4
REMARK    4  A    between atoms: C_4  and  C_6
REMARK    5  A    between atoms: C_4  and  N_19
REMARK    6  A    between atoms: N_8  and  C_9
REMARK    7  A    between atoms: C_12  and  O_17
REMARK    8  A    between atoms: C_14  and  O_15
REMARK    9  A    between atoms: O_15  and  C_16
REMARK   10  A    between atoms: O_17  and  C_18
REMARK   11  A    between atoms: N_19  and  S_20
REMARK   12  A    between atoms: S_20  and  C_23
REMARK                            x       y       z     vdW  Elec       q    Type
REMARK                         _______ _______ _______ _____ _____    ______ ____
ROOT
ATOM      1  C   UNL     1      -1.338  -0.459   0.027  0.00  0.00    +0.165 C 
ENDROOT
BRANCH   1   2
ATOM      2  C   UNL     1      -1.930  -0.166  -1.328  0.00  0.00    +0.236 C 
ATOM      3  O   UNL     1      -2.974   0.445  -1.414  0.00  0.00    -0.274 OA
ATOM      4  N   UNL     1      -1.299  -0.584  -2.443  0.00  0.00    -0.281 N 
ATOM      5  H   UNL     1      -0.427  -1.004  -2.378  0.00  0.00    +0.155 HD
BRANCH   4   6
ATOM      6  C   UNL     1      -1.903  -0.410  -3.697  0.00  0.00    +0.076 A 
ATOM      7  C   UNL     1      -3.282  -0.299  -3.795  0.00  0.00    +0.030 A 
ATOM      8  C   UNL     1      -3.877  -0.129  -5.030  0.00  0.00    +0.047 A 
ATOM      9  C   UNL     1      -3.097  -0.068  -6.176  0.00  0.00    +0.124 A 
ATOM     10  C   UNL     1      -1.717  -0.178  -6.083  0.00  0.00    +0.093 A 
ATOM     11  C   UNL     1      -1.118  -0.344  -4.846  0.00  0.00    +0.145 A 
BRANCH  11  12
ATOM     12  O   UNL     1       0.235  -0.447  -4.753  0.00  0.00    -0.493 OA
ATOM     13  C   UNL     1       0.977  -0.369  -5.972  0.00  0.00    +0.277 C 
ENDBRANCH  11  12
BRANCH   9  14
ATOM     14  O   UNL     1      -3.685   0.101  -7.390  0.00  0.00    -0.495 OA
ATOM     15  C   UNL     1      -5.110   0.207  -7.411  0.00  0.00    +0.277 C 
ENDBRANCH   9  14
ENDBRANCH   4   6
ENDBRANCH   1   2
BRANCH   1  17
ATOM     16  C   UNL     1      -0.075   1.696  -0.031  0.00  0.00    +0.009 C 
ATOM     17  C   UNL     1       0.049   0.179   0.126  0.00  0.00    +0.010 C 
ATOM     18  C   UNL     1       0.662  -0.143   1.490  0.00  0.00    +0.009 C 
ENDBRANCH   1  17
BRANCH   1  19
ATOM     19  N   UNL     1      -2.206   0.096   1.069  0.00  0.00    -0.178 NA
ATOM     20  H   UNL     1      -2.157   1.039   1.290  0.00  0.00    +0.149 HD
BRANCH  19  21
ATOM     21  S   UNL     1      -3.272  -0.888   1.869  0.00  0.00    +0.059 S 
ATOM     22  O   UNL     1      -3.969  -0.064   2.793  0.00  0.00    -0.153 OA
ATOM     23  O   UNL     1      -3.940  -1.655   0.877  0.00  0.00    -0.153 OA
BRANCH  21  24
ATOM     24  C   UNL     1      -2.318  -2.021   2.824  0.00  0.00    +0.106 A 
ATOM     25  C   UNL     1      -1.836  -3.184   2.250  0.00  0.00    +0.030 A 
ATOM     26  C   UNL     1      -1.091  -4.054   3.007  0.00  0.00    +0.025 A 
ATOM     27  C   UNL     1      -0.809  -3.794   4.359  0.00  0.00    +0.037 A 
ATOM     28  C   UNL     1      -1.296  -2.637   4.927  0.00  0.00    -0.024 A 
ATOM     29  C   UNL     1      -2.042  -1.754   4.145  0.00  0.00    +0.034 A 
ATOM     30  C   UNL     1      -1.096  -2.225   6.349  0.00  0.00    +0.037 C 
ATOM     31  C   UNL     1      -1.088  -3.335   7.354  0.00  0.00    +0.014 C 
ATOM     32  C   UNL     1       0.208  -4.107   7.386  0.00  0.00    +0.096 C 
ATOM     33  C   UNL     1       0.357  -4.992   6.200  0.00  0.00    +0.217 C 
ATOM     34  O   UNL     1       0.906  -6.057   6.387  0.00  0.00    -0.275 OA
ATOM     35  N   UNL     1      -0.038  -4.748   4.983  0.00  0.00    -0.285 N 
ATOM     36  H   UNL     1       0.297  -5.408   4.356  0.00  0.00    +0.155 HD
ENDBRANCH  21  24
ENDBRANCH  19  21
ENDBRANCH   1  19
TORSDOF 8
