REMARK  Name = ZINC33795079
REMARK  6 active torsions:
REMARK  status: ('A' for Active; 'I' for Inactive)
REMARK    1  A    between atoms: C_4  and  N_6
REMARK    2  A    between atoms: C_7  and  C_9
REMARK    3  A    between atoms: C_9  and  O_10
REMARK    4  A    between atoms: O_10  and  C_11
REMARK    5  A    between atoms: C_11  and  C_13
REMARK    6  A    between atoms: C_15  and  N_21
REMARK                            x       y       z     vdW  Elec       q    Type
REMARK                         _______ _______ _______ _____ _____    ______ ____
ROOT
ATOM      1  C   UNL     1       0.865   2.553   7.057  0.00  0.00    +0.360 C 
ATOM      2  O   UNL     1       2.023   2.893   6.923  0.00  0.00    -0.243 OA
ENDROOT
BRANCH   1   3
ATOM      3  C   UNL     1       0.268   2.479   8.409  0.00  0.00    +0.169 A 
ATOM      4  C   UNL     1       1.041   2.796   9.522  0.00  0.00    +0.095 A 
ATOM      5  C   UNL     1       0.461   2.726  10.790  0.00  0.00    +0.067 A 
ATOM      6  C   UNL     1      -0.871   2.329  10.887  0.00  0.00    +0.100 A 
ATOM      7  C   UNL     1      -1.573   2.024   9.731  0.00  0.00    +0.150 A 
ATOM      8  N   UNL     1      -1.000   2.105   8.549  0.00  0.00    -0.226 NA
ATOM      9 CL   UNL     1      -3.233   1.529   9.845  0.00  0.00    -0.060 Cl
ATOM     10 CL   UNL     1      -1.643   2.218  12.438  0.00  0.00    -0.078 Cl
ATOM     11 CL   UNL     1       2.699   3.277   9.337  0.00  0.00    -0.079 Cl
BRANCH   5  12
ATOM     12  N   UNL     1       1.198   3.040  11.930  0.00  0.00    -0.356 N 
ATOM     13  H   UNL     1       0.727   2.981  12.923  0.00  0.00    +0.142 HD
ATOM     14  H   UNL     1       2.250   3.348  11.838  0.00  0.00    +0.142 HD
ENDBRANCH   5  12
ENDBRANCH   1   3
BRANCH   1  15
ATOM     15  O   UNL     1       0.125   2.242   5.976  0.00  0.00    -0.451 OA
BRANCH  15  16
ATOM     16  C   UNL     1       0.776   2.337   4.682  0.00  0.00    +0.328 C 
BRANCH  16  18
ATOM     17  N   UNL     1       0.186   1.969   2.308  0.00  0.00    -0.310 N 
ATOM     18  C   UNL     1      -0.200   1.954   3.599  0.00  0.00    +0.251 C 
ATOM     19  O   UNL     1      -1.333   1.633   3.889  0.00  0.00    -0.272 OA
ATOM     20  H   UNL     1       1.214   2.260   2.044  0.00  0.00    +0.149 HD
BRANCH  17  24
ATOM     21  C   UNL     1      -1.978   2.421  -0.670  0.00  0.00    +0.002 C 
ATOM     22  C   UNL     1      -0.784   1.609  -1.216  0.00  0.00    +0.002 C 
ATOM     23  C   UNL     1      -0.013   1.086   0.008  0.00  0.00    +0.022 C 
ATOM     24  C   UNL     1      -0.763   1.597   1.255  0.00  0.00    +0.073 C 
ATOM     25  C   UNL     1      -1.531   2.845   0.750  0.00  0.00    +0.022 C 
ENDBRANCH  17  24
ENDBRANCH  16  18
ENDBRANCH  15  16
ENDBRANCH   1  15
TORSDOF 6
