REMARK  Name = ZINC22121606
REMARK  6 active torsions:
REMARK  status: ('A' for Active; 'I' for Inactive)
REMARK    1  A    between atoms: C_1  and  C_2
REMARK    2  A    between atoms: C_7  and  C_13
REMARK    3  A    between atoms: C_13  and  S_14
REMARK    4  A    between atoms: S_14  and  C_15
REMARK    5  A    between atoms: C_16  and  C_25
REMARK    6  A    between atoms: C_17  and  C_24
REMARK                            x       y       z     vdW  Elec       q    Type
REMARK                         _______ _______ _______ _____ _____    ______ ____
ROOT
ATOM      1  C   UNL     1       0.095  -6.274   1.112  0.00  0.00    +0.131 C 
ENDROOT
BRANCH   1   8
ATOM      2  C   UNL     1      -0.018   1.503   0.010  0.00  0.00    +0.045 C 
ATOM      3  C   UNL     1       0.002  -0.004   0.002  0.00  0.00    -0.034 A 
ATOM      4  C   UNL     1       0.006  -0.697  -1.217  0.00  0.00    +0.008 A 
ATOM      5  C   UNL     1       0.025  -2.059  -1.216  0.00  0.00    +0.047 A 
ATOM      6  C   UNL     1       0.040  -2.750   0.010  0.00  0.00    +0.141 A 
ATOM      7  N   UNL     1       0.059  -4.082   0.013  0.00  0.00    -0.233 NA
ATOM      8  C   UNL     1       0.074  -4.768   1.145  0.00  0.00    +0.059 A 
ATOM      9  C   UNL     1       0.071  -4.104   2.356  0.00  0.00    +0.094 A 
ATOM     10  C   UNL     1       0.051  -2.704   2.361  0.00  0.00    +0.259 A 
ATOM     11  O   UNL     1       0.048  -2.088   3.415  0.00  0.00    -0.267 OA
ATOM     12  N   UNL     1       0.037  -2.046   1.182  0.00  0.00    -0.268 N 
ATOM     13  C   UNL     1       0.022  -0.685   1.170  0.00  0.00    +0.099 A 
ENDBRANCH   1   8
BRANCH   1  14
ATOM     14  S   UNL     1      -1.551  -6.892   0.665  0.00  0.00    -0.098 S 
BRANCH  14  15
ATOM     15  C   UNL     1      -1.365  -8.644   0.669  0.00  0.00    +0.115 A 
ATOM     16  C   UNL     1      -2.463  -9.465   0.355  0.00  0.00    +0.087 A 
ATOM     17  C   UNL     1      -2.285 -10.852   0.366  0.00  0.00    -0.026 A 
ATOM     18  C   UNL     1      -1.036 -11.358   0.687  0.00  0.00    -0.022 A 
ATOM     19  C   UNL     1      -0.001 -10.489   0.986  0.00  0.00    +0.046 A 
ATOM     20  N   UNL     1      -0.192  -9.180   0.964  0.00  0.00    -0.244 NA
ATOM     21  C   UNL     1       1.252 -11.283   1.299  0.00  0.00    +0.056 C 
ATOM     22  C   UNL     1       0.761 -12.717   1.588  0.00  0.00    +0.011 C 
ATOM     23  C   UNL     1      -0.551 -12.788   0.779  0.00  0.00    +0.037 C 
ATOM     24  C   UNL     1      -3.429 -11.777   0.037  0.00  0.00    +0.045 C 
BRANCH  16  25
ATOM     25  C   UNL     1      -3.735  -8.893   0.030  0.00  0.00    +0.102 C 
ATOM     26  N   UNL     1      -4.744  -8.439  -0.228  0.00  0.00    -0.191 NA
ENDBRANCH  16  25
ENDBRANCH  14  15
ENDBRANCH   1  14
TORSDOF 4
