REMARK  Name = ZINC00943704
REMARK  10 active torsions:
REMARK  status: ('A' for Active; 'I' for Inactive)
REMARK    1  A    between atoms: C_1  and  C_2
REMARK    2  A    between atoms: C_2  and  C_3
REMARK    3  A    between atoms: C_2  and  C_4
REMARK    4  A    between atoms: C_2  and  C_10
REMARK    5  A    between atoms: C_13  and  O_16
REMARK    6  A    between atoms: O_16  and  C_17
REMARK    7  A    between atoms: C_17  and  C_18
REMARK    8  A    between atoms: N_20  and  C_21
REMARK    9  A    between atoms: C_24  and  S_27
REMARK   10  A    between atoms: S_27  and  N_30
REMARK                            x       y       z     vdW  Elec       q    Type
REMARK                         _______ _______ _______ _____ _____    ______ ____
ROOT
ATOM      1  C   UNL     1       6.028   6.406  -0.026  0.00  0.00    +0.324 C 
ENDROOT
BRANCH   1   2
ATOM      2  C   UNL     1       7.206   7.343  -0.112  0.00  0.00    +0.255 C 
ATOM      3  O   UNL     1       8.335   6.904  -0.055  0.00  0.00    -0.272 OA
ATOM      4  N   UNL     1       7.004   8.668  -0.252  0.00  0.00    -0.283 N 
ATOM      5  H   UNL     1       6.103   9.026  -0.228  0.00  0.00    +0.155 HD
BRANCH   4   6
ATOM      6  C   UNL     1       8.094   9.527  -0.432  0.00  0.00    +0.034 A 
ATOM      7  C   UNL     1       8.060  10.813   0.090  0.00  0.00    +0.025 A 
ATOM      8  C   UNL     1       9.140  11.656  -0.083  0.00  0.00    +0.030 A 
ATOM      9  C   UNL     1      10.249  11.225  -0.788  0.00  0.00    +0.105 A 
ATOM     10  C   UNL     1      10.283   9.947  -1.315  0.00  0.00    +0.030 A 
ATOM     11  C   UNL     1       9.209   9.097  -1.139  0.00  0.00    +0.025 A 
BRANCH   9  12
ATOM     12  S   UNL     1      11.622  12.306  -1.014  0.00  0.00    +0.056 S 
ATOM     13  O   UNL     1      11.568  13.256   0.041  0.00  0.00    -0.153 OA
ATOM     14  O   UNL     1      12.756  11.480  -1.239  0.00  0.00    -0.153 OA
BRANCH  12  15
ATOM     15  N   UNL     1      11.360  13.142  -2.419  0.00  0.00    -0.204 NA
ATOM     16  H   UNL     1      11.711  14.040  -2.522  0.00  0.00    +0.144 HD
ATOM     17  H   UNL     1      10.854  12.734  -3.140  0.00  0.00    +0.144 HD
ENDBRANCH  12  15
ENDBRANCH   9  12
ENDBRANCH   4   6
ENDBRANCH   1   2
BRANCH   1  18
ATOM     18  O   UNL     1       6.497   5.064   0.118  0.00  0.00    -0.483 OA
BRANCH  18  22
ATOM     19  C   UNL     1       3.640   2.101   0.398  0.00  0.00    -0.037 A 
ATOM     20  C   UNL     1       3.254   3.421   0.251  0.00  0.00    +0.008 A 
ATOM     21  C   UNL     1       4.209   4.415   0.163  0.00  0.00    +0.046 A 
ATOM     22  C   UNL     1       5.556   4.088   0.210  0.00  0.00    +0.121 A 
ATOM     23  C   UNL     1       5.941   2.762   0.352  0.00  0.00    +0.046 A 
ATOM     24  C   UNL     1       4.982   1.772   0.445  0.00  0.00    +0.008 A 
BRANCH  19  26
ATOM     25  C   UNL     1       3.278  -0.350   0.485  0.00  0.00    +0.021 C 
ATOM     26  C   UNL     1       2.596   1.019   0.500  0.00  0.00    +0.015 C 
ATOM     27  C   UNL     1       1.635   1.124  -0.686  0.00  0.00    +0.021 C 
BRANCH  26  28
ATOM     28  C   UNL     1       1.827   1.183   1.786  0.00  0.00    -0.037 A 
ATOM     29  C   UNL     1       0.731   0.381   2.042  0.00  0.00    +0.004 A 
ATOM     30  C   UNL     1       0.021   0.535   3.219  0.00  0.00    +0.000 A 
ATOM     31  C   UNL     1       0.415   1.484   4.144  0.00  0.00    +0.000 A 
ATOM     32  C   UNL     1       1.511   2.287   3.886  0.00  0.00    +0.000 A 
ATOM     33  C   UNL     1       2.216   2.136   2.708  0.00  0.00    +0.004 A 
ENDBRANCH  26  28
ENDBRANCH  19  26
ENDBRANCH  18  22
ENDBRANCH   1  18
TORSDOF 8
