REMARK  Name = ZINC05687477
REMARK  1 active torsions:
REMARK  status: ('A' for Active; 'I' for Inactive)
REMARK    1  A    between atoms: C_8  and  C_13
REMARK                            x       y       z     vdW  Elec       q    Type
REMARK                         _______ _______ _______ _____ _____    ______ ____
ROOT
ATOM      1  C   UNL     1      -0.015   1.374  -0.007  0.00  0.00    +0.001 A 
ATOM      2  C   UNL     1       1.173   2.090   0.004  0.00  0.00    +0.002 A 
ATOM      3  C   UNL     1       2.387   1.438   0.003  0.00  0.00    +0.026 A 
ATOM      4  C   UNL     1       2.428   0.047  -0.010  0.00  0.00    +0.053 A 
ATOM      5  C   UNL     1       1.225  -0.677  -0.020  0.00  0.00    +0.046 A 
ATOM      6  C   UNL     1       0.003  -0.003  -0.019  0.00  0.00    +0.014 A 
ATOM      7  C   UNL     1       1.281  -2.151  -0.033  0.00  0.00    +0.205 A 
ATOM      8  C   UNL     1       2.563  -2.767  -0.034  0.00  0.00    +0.148 A 
ATOM      9  C   UNL     1       3.706  -1.972  -0.023  0.00  0.00    +0.265 A 
ATOM     10  O   UNL     1       4.916  -2.564  -0.024  0.00  0.00    -0.267 OA
ATOM     11  N   UNL     1       3.636  -0.621  -0.012  0.00  0.00    -0.321 N 
ATOM     12  H   UNL     1       4.459  -0.107  -0.004  0.00  0.00    +0.169 HD
ATOM     13  O   UNL     1       0.261  -2.819  -0.042  0.00  0.00    -0.286 OA
ENDROOT
BRANCH   8  14
ATOM     14  C   UNL     1       2.680  -4.229  -0.046  0.00  0.00    +0.259 C 
ATOM     15  O   UNL     1       3.774  -4.751  -0.154  0.00  0.00    -0.269 OA
ATOM     16  N   UNL     1       1.576  -4.994   0.062  0.00  0.00    -0.260 N 
ATOM     17  C   UNL     1       1.695  -6.375   0.159  0.00  0.00    +0.165 A 
ATOM     18  N   UNL     1       2.791  -7.103   0.167  0.00  0.00    -0.233 NA
ATOM     19  C   UNL     1       2.736  -8.418   0.266  0.00  0.00    +0.120 A 
ATOM     20  C   UNL     1       1.505  -8.978   0.359  0.00  0.00    +0.068 A 
ATOM     21  S   UNL     1       0.472  -7.523   0.301  0.00  0.00    -0.061 S 
ATOM     22  H   UNL     1       0.699  -4.581   0.073  0.00  0.00    +0.157 HD
ENDBRANCH   8  14
TORSDOF 1
