REMARK  Name = ZINC63329478
REMARK  7 active torsions:
REMARK  status: ('A' for Active; 'I' for Inactive)
REMARK    1  A    between atoms: C_1  and  C_2
REMARK    2  A    between atoms: C_10  and  C_11
REMARK    3  A    between atoms: C_11  and  C_12
REMARK    4  A    between atoms: C_11  and  N_13
REMARK    5  A    between atoms: N_16  and  C_17
REMARK    6  A    between atoms: C_20  and  C_23
REMARK    7  A    between atoms: N_25  and  C_26
REMARK                            x       y       z     vdW  Elec       q    Type
REMARK                         _______ _______ _______ _____ _____    ______ ____
ROOT
ATOM      1  N   UNL     1      -0.928  -1.145   3.277  0.00  0.00    -0.290 N 
ATOM      2  C   UNL     1      -1.473  -0.636   4.399  0.00  0.00    +0.300 C 
ATOM      3  O   UNL     1      -1.169   0.481   4.770  0.00  0.00    -0.253 OA
ATOM      4  N   UNL     1      -2.355  -1.366   5.111  0.00  0.00    -0.297 N 
ATOM      5  H   UNL     1      -1.171  -2.037   2.981  0.00  0.00    +0.151 HD
ATOM      6  H   UNL     1      -2.598  -2.257   4.815  0.00  0.00    +0.151 HD
ENDROOT
BRANCH   4   7
ATOM      7  C   UNL     1      -2.948  -0.812   6.331  0.00  0.00    +0.074 C 
ATOM      8  C   UNL     1      -2.009  -1.064   7.513  0.00  0.00    +0.023 C 
ATOM      9  C   UNL     1      -1.799  -2.570   7.686  0.00  0.00    +0.014 C 
ATOM     10  C   UNL     1      -3.145  -3.246   7.951  0.00  0.00    +0.075 C 
ATOM     11  C   UNL     1      -4.084  -2.994   6.769  0.00  0.00    +0.014 C 
ATOM     12  C   UNL     1      -4.294  -1.489   6.596  0.00  0.00    +0.023 C 
BRANCH  10  13
ATOM     13  C   UNL     1      -2.938  -4.729   8.121  0.00  0.00    +0.216 C 
ATOM     14  O   UNL     1      -1.823  -5.199   8.038  0.00  0.00    -0.276 OA
ATOM     15  N   UNL     1      -3.992  -5.533   8.365  0.00  0.00    -0.318 N 
ATOM     16  C   UNL     1      -3.790  -6.975   8.530  0.00  0.00    +0.128 C 
ATOM     17  H   UNL     1      -4.883  -5.157   8.431  0.00  0.00    +0.148 HD
ENDBRANCH  10  13
ENDBRANCH   4   7
BRANCH   1  18
ATOM     18  C   UNL     1       0.030  -0.352   2.503  0.00  0.00    +0.138 C 
ATOM     19  C   UNL     1       1.432  -0.532   3.090  0.00  0.00    +0.036 C 
BRANCH  18  29
ATOM     20  C   UNL     1      -0.018   1.503   0.010  0.00  0.00    +0.048 C 
ATOM     21  C   UNL     1       0.002  -0.004   0.002  0.00  0.00    +0.000 A 
ATOM     22  C   UNL     1       0.009  -0.879  -1.177  0.00  0.00    +0.023 A 
ATOM     23  C   UNL     1       0.000  -0.660  -2.553  0.00  0.00    +0.012 A 
ATOM     24  C   UNL     1       0.011  -1.726  -3.409  0.00  0.00    +0.001 A 
ATOM     25  C   UNL     1       0.031  -3.023  -2.916  0.00  0.00    +0.004 A 
ATOM     26  C   UNL     1       0.040  -3.259  -1.558  0.00  0.00    +0.047 A 
ATOM     27  C   UNL     1       0.029  -2.190  -0.671  0.00  0.00    +0.136 A 
ATOM     28  O   UNL     1       0.033  -2.100   0.674  0.00  0.00    -0.458 OA
ATOM     29  C   UNL     1       0.023  -0.814   1.069  0.00  0.00    +0.129 A 
ENDBRANCH  18  29
ENDBRANCH   1  18
TORSDOF 4
