REMARK  Name = ZINC16072859
REMARK  15 active torsions:
REMARK  status: ('A' for Active; 'I' for Inactive)
REMARK    1  A    between atoms: C_1  and  C_2
REMARK    2  A    between atoms: C_2  and  C_3
REMARK    3  A    between atoms: C_2  and  C_4
REMARK    4  A    between atoms: C_4  and  C_6
REMARK    5  A    between atoms: C_4  and  N_24
REMARK    6  A    between atoms: C_6  and  O_8
REMARK    7  A    between atoms: O_8  and  C_9
REMARK    8  A    between atoms: C_9  and  C_10
REMARK    9  A    between atoms: N_12  and  C_13
REMARK   10  A    between atoms: C_14  and  C_21
REMARK   11  A    between atoms: C_25  and  C_27
REMARK   12  A    between atoms: C_30  and  C_33
REMARK   13  A    between atoms: C_33  and  C_34
REMARK   14  A    between atoms: C_33  and  C_35
REMARK   15  A    between atoms: C_33  and  C_36
REMARK                            x       y       z     vdW  Elec       q    Type
REMARK                         _______ _______ _______ _____ _____    ______ ____
ROOT
ATOM      1  C   UNL     1       2.641   5.415   0.006  0.00  0.00    +0.328 C 
ATOM      2  O   UNL     1       1.673   6.137   0.019  0.00  0.00    -0.249 OA
ENDROOT
BRANCH   1   3
ATOM      3  C   UNL     1       4.025   6.009  -0.004  0.00  0.00    +0.185 C 
BRANCH   3   4
ATOM      4  N   UNL     1       3.929   7.471   0.005  0.00  0.00    -0.298 N 
ATOM      5  C   UNL     1       4.935   8.216  -0.494  0.00  0.00    +0.245 C 
ATOM      6  O   UNL     1       5.923   7.675  -0.952  0.00  0.00    -0.270 OA
ATOM      7  H   UNL     1       3.141   7.903   0.370  0.00  0.00    +0.150 HD
BRANCH   5   8
ATOM      8  C   UNL     1       4.838   9.691  -0.485  0.00  0.00    +0.037 A 
ATOM      9  C   UNL     1       3.703  10.316   0.034  0.00  0.00    +0.013 A 
ATOM     10  C   UNL     1       3.620  11.693   0.043  0.00  0.00    +0.005 A 
ATOM     11  C   UNL     1       4.655  12.454  -0.470  0.00  0.00    -0.042 A 
ATOM     12  C   UNL     1       5.781  11.841  -0.991  0.00  0.00    +0.005 A 
ATOM     13  C   UNL     1       5.878  10.465  -1.001  0.00  0.00    +0.013 A 
BRANCH  11  14
ATOM     14  C   UNL     1       4.555  13.958  -0.462  0.00  0.00    -0.013 C 
ATOM     15  C   UNL     1       4.634  14.482  -1.897  0.00  0.00    +0.015 C 
ATOM     16  C   UNL     1       3.223  14.377   0.162  0.00  0.00    +0.015 C 
ATOM     17  C   UNL     1       5.708  14.541   0.358  0.00  0.00    +0.015 C 
ENDBRANCH  11  14
ENDBRANCH   5   8
ENDBRANCH   3   4
BRANCH   3  19
ATOM     18  C   UNL     1       6.196   6.145   1.225  0.00  0.00    +0.009 C 
ATOM     19  C   UNL     1       4.790   5.541   1.235  0.00  0.00    +0.014 C 
ATOM     20  C   UNL     1       4.049   5.996   2.494  0.00  0.00    +0.009 C 
ENDBRANCH   3  19
ENDBRANCH   1   3
BRANCH   1  21
ATOM     21  O   UNL     1       2.483   4.082   0.000  0.00  0.00    -0.454 OA
BRANCH  21  22
ATOM     22  C   UNL     1       1.121   3.579   0.011  0.00  0.00    +0.328 C 
BRANCH  22  23
ATOM     23  C   UNL     1       1.141   2.072   0.002  0.00  0.00    +0.255 C 
ATOM     24  O   UNL     1       2.200   1.480  -0.011  0.00  0.00    -0.272 OA
ATOM     25  N   UNL     1      -0.017   1.382   0.010  0.00  0.00    -0.277 N 
ATOM     26  H   UNL     1      -0.863   1.856   0.016  0.00  0.00    +0.155 HD
BRANCH  25  27
ATOM     27  C   UNL     1       0.002  -0.004   0.002  0.00  0.00    +0.084 A 
ATOM     28  C   UNL     1      -1.071  -0.879   0.013  0.00  0.00    +0.068 A 
ATOM     29  C   UNL     1      -0.776  -2.312  -0.003  0.00  0.00    -0.023 A 
ATOM     30  C   UNL     1       0.532  -2.626  -0.017  0.00  0.00    -0.004 A 
ATOM     31  S   UNL     1       1.372  -1.061  -0.016  0.00  0.00    -0.077 S 
ATOM     32  C   UNL     1       0.754  -4.114  -0.030  0.00  0.00    +0.043 C 
ATOM     33  C   UNL     1      -0.606  -4.707  -0.459  0.00  0.00    +0.010 C 
ATOM     34  C   UNL     1      -1.586  -3.609  -0.000  0.00  0.00    +0.037 C 
BRANCH  28  35
ATOM     35  C   UNL     1      -2.452  -0.388   0.036  0.00  0.00    +0.244 C 
ATOM     36  O   UNL     1      -3.041  -0.178  -1.008  0.00  0.00    -0.270 OA
ATOM     37  N   UNL     1      -3.069  -0.167   1.214  0.00  0.00    -0.325 N 
ATOM     38  H   UNL     1      -2.600  -0.334   2.046  0.00  0.00    +0.145 HD
ATOM     39  H   UNL     1      -3.983   0.158   1.229  0.00  0.00    +0.145 HD
ENDBRANCH  28  35
ENDBRANCH  25  27
ENDBRANCH  22  23
ENDBRANCH  21  22
ENDBRANCH   1  21
TORSDOF 10
