REMARK  Name = ZINC37456334
REMARK  3 active torsions:
REMARK  status: ('A' for Active; 'I' for Inactive)
REMARK    1  A    between atoms: C_4  and  C_6
REMARK    2  A    between atoms: C_4  and  N_9
REMARK    3  A    between atoms: C_10  and  C_12
REMARK                            x       y       z     vdW  Elec       q    Type
REMARK                         _______ _______ _______ _____ _____    ______ ____
ROOT
ATOM      1  N   UNL     1       1.944  -0.680  -1.378  0.00  0.00    -0.300 N 
ATOM      2  C   UNL     1       1.412  -1.696  -2.087  0.00  0.00    +0.218 C 
ATOM      3  O   UNL     1       0.566  -2.407  -1.586  0.00  0.00    -0.275 OA
ATOM      4  H   UNL     1       2.620  -0.112  -1.778  0.00  0.00    +0.150 HD
ENDROOT
BRANCH   2   5
ATOM      5  C   UNL     1       1.869  -1.949  -3.500  0.00  0.00    +0.092 C 
ATOM      6  C   UNL     1       1.116  -3.152  -4.073  0.00  0.00    +0.016 C 
ATOM      7  C   UNL     1       1.555  -3.389  -5.520  0.00  0.00    +0.020 C 
ATOM      8  C   UNL     1       3.055  -3.699  -5.549  0.00  0.00    +0.109 C 
ATOM      9  N   UNL     1       3.776  -2.614  -4.870  0.00  0.00    -0.285 N 
ATOM     10  C   UNL     1       3.373  -2.242  -3.507  0.00  0.00    +0.122 C 
ATOM     11  C   UNL     1       4.788  -1.971  -5.485  0.00  0.00    +0.300 C 
ATOM     12  O   UNL     1       5.314  -1.013  -4.952  0.00  0.00    -0.253 OA
ATOM     13  N   UNL     1       5.218  -2.390  -6.692  0.00  0.00    -0.313 N 
ATOM     14  H   UNL     1       4.752  -3.107  -7.150  0.00  0.00    +0.146 HD
ATOM     15  H   UNL     1       5.992  -1.974  -7.103  0.00  0.00    +0.146 HD
ENDBRANCH   2   5
BRANCH   1  19
ATOM     16  C   UNL     1      -0.001   1.528   0.030  0.00  0.00    +0.003 C 
ATOM     17  C   UNL     1       1.472   1.986   0.017  0.00  0.00    +0.003 C 
ATOM     18  C   UNL     1       2.249   0.779   0.600  0.00  0.00    +0.037 C 
ATOM     19  C   UNL     1       1.499  -0.434  -0.004  0.00  0.00    +0.136 C 
ATOM     20  C   UNL     1       0.016  -0.011   0.017  0.00  0.00    +0.037 C 
BRANCH  19  21
ATOM     21  C   UNL     1       1.709  -1.661   0.847  0.00  0.00    +0.379 C 
ATOM     22  O   UNL     1       1.353  -1.661   2.013  0.00  0.00    -0.244 OA
ATOM     23  O   UNL     1       2.235  -2.651   0.369  0.00  0.00    -0.244 OA
ENDBRANCH  19  21
ENDBRANCH   1  19
TORSDOF 3
