REMARK  Name = ZINC35400050
REMARK  7 active torsions:
REMARK  status: ('A' for Active; 'I' for Inactive)
REMARK    1  A    between atoms: C_4  and  C_7
REMARK    2  A    between atoms: C_7  and  S_8
REMARK    3  A    between atoms: S_8  and  C_9
REMARK    4  A    between atoms: C_14  and  N_15
REMARK    5  A    between atoms: C_16  and  C_18
REMARK    6  A    between atoms: C_18  and  N_19
REMARK    7  A    between atoms: C_28  and  C_30
REMARK                            x       y       z     vdW  Elec       q    Type
REMARK                         _______ _______ _______ _____ _____    ______ ____
ROOT
ATOM      1  N   UNL     1       5.317  -1.913   4.035  0.00  0.00    -0.284 N 
ATOM      2  C   UNL     1       6.128  -2.377   5.007  0.00  0.00    +0.231 C 
ATOM      3  O   UNL     1       7.234  -2.789   4.729  0.00  0.00    -0.274 OA
ATOM      4  H   UNL     1       4.459  -1.524   4.264  0.00  0.00    +0.155 HD
ENDROOT
BRANCH   1  10
ATOM      5  C   UNL     1       4.762  -2.158   1.689  0.00  0.00    +0.029 A 
ATOM      6  C   UNL     1       5.163  -2.229   0.362  0.00  0.00    +0.016 A 
ATOM      7  C   UNL     1       6.504  -2.140   0.041  0.00  0.00    +0.001 A 
ATOM      8  C   UNL     1       7.450  -1.981   1.037  0.00  0.00    +0.002 A 
ATOM      9  C   UNL     1       7.059  -1.908   2.361  0.00  0.00    +0.024 A 
ATOM     10  C   UNL     1       5.716  -1.991   2.694  0.00  0.00    +0.047 A 
BRANCH   5  11
ATOM     11  S   UNL     1       3.053  -2.270   2.103  0.00  0.00    -0.119 S 
BRANCH  11  12
ATOM     12  C   UNL     1       2.226  -2.476   0.501  0.00  0.00    +0.109 C 
BRANCH  12  16
ATOM     13  C   UNL     1      -1.991  -2.789   1.103  0.00  0.00    +0.000 A 
ATOM     14  C   UNL     1      -1.411  -1.549   0.907  0.00  0.00    +0.000 A 
ATOM     15  C   UNL     1      -0.046  -1.448   0.712  0.00  0.00    +0.004 A 
ATOM     16  C   UNL     1       0.739  -2.586   0.715  0.00  0.00    -0.037 A 
ATOM     17  C   UNL     1       0.159  -3.825   0.912  0.00  0.00    +0.004 A 
ATOM     18  C   UNL     1      -1.206  -3.927   1.105  0.00  0.00    +0.000 A 
ENDBRANCH  12  16
ENDBRANCH  11  12
ENDBRANCH   5  11
ENDBRANCH   1  10
BRANCH   2  19
ATOM     19  C   UNL     1       5.659  -2.384   6.439  0.00  0.00    +0.181 C 
BRANCH  19  20
ATOM     20  N   UNL     1       6.717  -2.934   7.298  0.00  0.00    -0.278 NA
ATOM     21  C   UNL     1       6.826  -4.387   7.132  0.00  0.00    +0.121 C 
ATOM     22  C   UNL     1       7.845  -4.951   8.088  0.00  0.00    -0.030 A 
ATOM     23  C   UNL     1       8.355  -6.216   7.838  0.00  0.00    +0.005 A 
ATOM     24  C   UNL     1       9.288  -6.774   8.688  0.00  0.00    +0.000 A 
ATOM     25  C   UNL     1       9.717  -6.068   9.797  0.00  0.00    +0.000 A 
ATOM     26  C   UNL     1       9.212  -4.808  10.047  0.00  0.00    +0.004 A 
ATOM     27  C   UNL     1       8.276  -4.246   9.191  0.00  0.00    -0.041 A 
ATOM     28  C   UNL     1       7.761  -2.863   9.497  0.00  0.00    +0.063 C 
ATOM     29  C   UNL     1       6.477  -2.598   8.710  0.00  0.00    +0.148 C 
BRANCH  29  30
ATOM     30  C   UNL     1       6.101  -1.143   8.828  0.00  0.00    +0.228 C 
ATOM     31  O   UNL     1       6.610  -0.324   8.093  0.00  0.00    -0.274 OA
ATOM     32  N   UNL     1       5.200  -0.753   9.751  0.00  0.00    -0.328 N 
ATOM     33  H   UNL     1       4.794  -1.408  10.340  0.00  0.00    +0.145 HD
ATOM     34  H   UNL     1       4.959   0.183   9.828  0.00  0.00    +0.145 HD
ENDBRANCH  29  30
ENDBRANCH  19  20
ENDBRANCH   2  19
TORSDOF 7
