REMARK  Name = ZINC03079093
REMARK  6 active torsions:
REMARK  status: ('A' for Active; 'I' for Inactive)
REMARK    1  A    between atoms: C_4  and  C_7
REMARK    2  A    between atoms: C_8  and  C_9
REMARK    3  A    between atoms: N_11  and  C_12
REMARK    4  A    between atoms: C_12  and  N_14
REMARK    5  A    between atoms: N_14  and  C_15
REMARK    6  A    between atoms: C_16  and  C_23
REMARK                            x       y       z     vdW  Elec       q    Type
REMARK                         _______ _______ _______ _____ _____    ______ ____
ROOT
ATOM      1  N   UNL     1       2.323   0.998  -0.015  0.00  0.00    -0.291 N 
ATOM      2  H   UNL     1       2.336   0.028  -0.020  0.00  0.00    +0.154 HD
ENDROOT
BRANCH   1   3
ATOM      3  C   UNL     1       3.513   1.707  -0.022  0.00  0.00    +0.084 A 
ATOM      4  C   UNL     1       4.808   1.215  -0.032  0.00  0.00    +0.068 A 
ATOM      5  C   UNL     1       5.901   2.187  -0.041  0.00  0.00    -0.023 A 
ATOM      6  C   UNL     1       5.519   3.476  -0.031  0.00  0.00    -0.004 A 
ATOM      7  S   UNL     1       3.744   3.422  -0.015  0.00  0.00    -0.077 S 
ATOM      8  C   UNL     1       6.696   4.414  -0.039  0.00  0.00    +0.043 C 
ATOM      9  C   UNL     1       7.886   3.540  -0.493  0.00  0.00    +0.010 C 
ATOM     10  C   UNL     1       7.429   2.134  -0.053  0.00  0.00    +0.037 C 
BRANCH   4  11
ATOM     11  C   UNL     1       5.073  -0.227  -0.036  0.00  0.00    +0.244 C 
ATOM     12  O   UNL     1       5.177  -0.823  -1.092  0.00  0.00    -0.270 OA
ATOM     13  N   UNL     1       5.202  -0.892   1.129  0.00  0.00    -0.325 N 
ATOM     14  H   UNL     1       5.119  -0.416   1.970  0.00  0.00    +0.145 HD
ATOM     15  H   UNL     1       5.377  -1.846   1.126  0.00  0.00    +0.145 HD
ENDBRANCH   4  11
ENDBRANCH   1   3
BRANCH   1  16
ATOM     16  C   UNL     1       1.147   1.655   0.000  0.00  0.00    +0.141 C 
ATOM     17  S   UNL     1       1.124   3.367   0.009  0.00  0.00    -0.018 S 
BRANCH  16  20
ATOM     18  C   UNL     1      -1.187   1.624   0.017  0.00  0.00    +0.242 C 
ATOM     19  O   UNL     1      -1.204   2.840   0.023  0.00  0.00    -0.270 OA
ATOM     20  N   UNL     1      -0.011   0.966   0.007  0.00  0.00    -0.264 N 
ATOM     21  H   UNL     1       0.002  -0.004   0.002  0.00  0.00    +0.157 HD
BRANCH  18  23
ATOM     22  C   UNL     1      -3.622   1.534   0.028  0.00  0.00    +0.013 C 
ATOM     23  C   UNL     1      -2.444   0.875   0.018  0.00  0.00    +0.068 C 
BRANCH  22  27
ATOM     24  C   UNL     1      -7.266  -0.637   0.033  0.00  0.00    +0.000 A 
ATOM     25  C   UNL     1      -7.289   0.747   0.041  0.00  0.00    +0.001 A 
ATOM     26  C   UNL     1      -6.109   1.460   0.039  0.00  0.00    +0.008 A 
ATOM     27  C   UNL     1      -4.886   0.780   0.029  0.00  0.00    -0.025 A 
ATOM     28  C   UNL     1      -4.871  -0.618   0.016  0.00  0.00    +0.008 A 
ATOM     29  C   UNL     1      -6.060  -1.316   0.023  0.00  0.00    +0.001 A 
ENDBRANCH  22  27
ENDBRANCH  18  23
ENDBRANCH  16  20
ENDBRANCH   1  16
TORSDOF 6
