REMARK  Name = ZINC36559601
REMARK  16 active torsions:
REMARK  status: ('A' for Active; 'I' for Inactive)
REMARK    1  A    between atoms: C_1  and  C_2
REMARK    2  A    between atoms: C_2  and  C_3
REMARK    3  A    between atoms: C_3  and  N_4
REMARK    4  A    between atoms: N_4  and  C_5
REMARK    5  A    between atoms: C_5  and  C_7
REMARK    6  A    between atoms: C_5  and  C_16
REMARK    7  A    between atoms: C_8  and  O_15
REMARK    8  A    between atoms: C_10  and  O_14
REMARK    9  A    between atoms: C_12  and  O_13
REMARK   10  A    between atoms: N_18  and  C_19
REMARK   11  A    between atoms: C_19  and  C_20
REMARK   12  A    between atoms: C_19  and  C_21
REMARK   13  A    between atoms: C_19  and  C_22
REMARK   14  A    between atoms: C_23  and  C_25
REMARK   15  A    between atoms: C_25  and  C_33
REMARK   16  A    between atoms: C_26  and  C_27
REMARK                            x       y       z     vdW  Elec       q    Type
REMARK                         _______ _______ _______ _____ _____    ______ ____
ROOT
ATOM      1  C   UNL     1       1.075  -3.320  -2.081  0.00  0.00    +0.199 C 
ENDROOT
BRANCH   1   2
ATOM      2  C   UNL     1      -0.347  -3.026  -1.675  0.00  0.00    +0.065 A 
ATOM      3  C   UNL     1      -0.888  -1.770  -1.905  0.00  0.00    +0.129 A 
ATOM      4  C   UNL     1      -2.196  -1.500  -1.532  0.00  0.00    +0.091 A 
ATOM      5  C   UNL     1      -2.963  -2.486  -0.929  0.00  0.00    +0.124 A 
ATOM      6  C   UNL     1      -2.422  -3.742  -0.700  0.00  0.00    +0.091 A 
ATOM      7  C   UNL     1      -1.115  -4.013  -1.077  0.00  0.00    +0.129 A 
BRANCH   7   8
ATOM      8  O   UNL     1      -0.586  -5.245  -0.857  0.00  0.00    -0.506 OA
ATOM      9  H   UNL     1      -0.152  -5.339   0.002  0.00  0.00    +0.292 HD
ENDBRANCH   7   8
BRANCH   5  10
ATOM     10  O   UNL     1      -4.244  -2.220  -0.563  0.00  0.00    -0.507 OA
ATOM     11  H   UNL     1      -4.897  -2.410  -1.251  0.00  0.00    +0.292 HD
ENDBRANCH   5  10
BRANCH   3  12
ATOM     12  O   UNL     1      -0.137  -0.804  -2.496  0.00  0.00    -0.506 OA
ATOM     13  H   UNL     1      -0.266  -0.734  -3.452  0.00  0.00    +0.292 HD
ENDBRANCH   3  12
ENDBRANCH   1   2
BRANCH   1  14
ATOM     14  C   UNL     1       1.161  -3.408  -3.583  0.00  0.00    +0.239 C 
ATOM     15  O   UNL     1       2.053  -2.837  -4.174  0.00  0.00    -0.273 OA
ATOM     16  N   UNL     1       0.246  -4.122  -4.269  0.00  0.00    -0.309 N 
ATOM     17  H   UNL     1      -0.467  -4.578  -3.796  0.00  0.00    +0.149 HD
BRANCH  16  18
ATOM     18  C   UNL     1       0.330  -4.208  -5.729  0.00  0.00    +0.026 C 
ATOM     19  C   UNL     1       1.665  -4.838  -6.128  0.00  0.00    +0.031 C 
ATOM     20  C   UNL     1      -0.819  -5.071  -6.256  0.00  0.00    +0.031 C 
ATOM     21  C   UNL     1       0.229  -2.804  -6.329  0.00  0.00    +0.031 C 
ENDBRANCH  16  18
ENDBRANCH   1  14
BRANCH   1  22
ATOM     22  N   UNL     1       1.950  -2.246  -1.604  0.00  0.00    -0.282 N 
ATOM     23  C   UNL     1       2.306  -2.193  -0.305  0.00  0.00    +0.248 C 
ATOM     24  O   UNL     1       1.949  -3.070   0.459  0.00  0.00    -0.270 OA
BRANCH  23  25
ATOM     25  C   UNL     1       3.127  -1.076   0.188  0.00  0.00    +0.045 C 
ATOM     26  C   UNL     1       4.291  -1.325   0.845  0.00  0.00    +0.021 C 
BRANCH  26  27
ATOM     27  C   UNL     1       4.990  -0.236   1.541  0.00  0.00    -0.024 A 
ATOM     28  C   UNL     1       6.374  -0.301   1.738  0.00  0.00    +0.008 A 
ATOM     29  C   UNL     1       7.022   0.725   2.392  0.00  0.00    +0.001 A 
ATOM     30  C   UNL     1       6.308   1.817   2.853  0.00  0.00    +0.000 A 
ATOM     31  C   UNL     1       4.939   1.889   2.663  0.00  0.00    +0.001 A 
ATOM     32  C   UNL     1       4.276   0.874   2.006  0.00  0.00    +0.008 A 
ENDBRANCH  26  27
BRANCH  25  33
ATOM     33  C   UNL     1       2.685   0.321  -0.030  0.00  0.00    -0.013 A 
ATOM     34  C   UNL     1       1.394   0.711   0.328  0.00  0.00    +0.008 A 
ATOM     35  C   UNL     1       0.988   2.013   0.122  0.00  0.00    +0.001 A 
ATOM     36  C   UNL     1       1.858   2.931  -0.439  0.00  0.00    +0.000 A 
ATOM     37  C   UNL     1       3.139   2.550  -0.797  0.00  0.00    +0.001 A 
ATOM     38  C   UNL     1       3.559   1.252  -0.590  0.00  0.00    +0.008 A 
ENDBRANCH  25  33
ENDBRANCH  23  25
BRANCH  22  39
ATOM     39  C   UNL     1       2.439  -1.230  -2.539  0.00  0.00    +0.109 C 
BRANCH  39  41
ATOM     40  C   UNL     1       4.281  -0.641  -4.122  0.00  0.00    +0.005 C 
ATOM     41  C   UNL     1       3.831  -1.622  -3.038  0.00  0.00    +0.016 C 
ENDBRANCH  39  41
ENDBRANCH  22  39
ENDBRANCH   1  22
TORSDOF 12
