REMARK  Name = ZINC07485894
REMARK  4 active torsions:
REMARK  status: ('A' for Active; 'I' for Inactive)
REMARK    1  A    between atoms: C_11  and  C_14
REMARK    2  A    between atoms: C_14  and  C_15
REMARK    3  A    between atoms: N_17  and  C_18
REMARK    4  A    between atoms: C_19  and  C_27
REMARK                            x       y       z     vdW  Elec       q    Type
REMARK                         _______ _______ _______ _____ _____    ______ ____
ROOT
ATOM      1  C   UNL     1       2.929   6.013  -1.409  0.00  0.00    +0.222 C 
ATOM      2  O   UNL     1       2.129   6.029  -2.320  0.00  0.00    -0.275 OA
ATOM      3  N   UNL     1       4.241   5.840  -1.667  0.00  0.00    -0.279 N 
ATOM      4  H   UNL     1       4.881   5.827  -0.938  0.00  0.00    +0.155 HD
ENDROOT
BRANCH   3   5
ATOM      5  C   UNL     1       4.675   5.679  -2.974  0.00  0.00    +0.084 A 
ATOM      6  C   UNL     1       5.971   5.496  -3.436  0.00  0.00    +0.068 A 
ATOM      7  C   UNL     1       6.158   5.349  -4.869  0.00  0.00    -0.023 A 
ATOM      8  C   UNL     1       5.029   5.418  -5.607  0.00  0.00    -0.004 A 
ATOM      9  S   UNL     1       3.732   5.667  -4.427  0.00  0.00    -0.077 S 
ATOM     10  C   UNL     1       4.915   5.307  -7.096  0.00  0.00    +0.043 C 
ATOM     11  C   UNL     1       6.315   5.477  -7.702  0.00  0.00    +0.005 C 
ATOM     12  C   UNL     1       7.295   4.582  -6.938  0.00  0.00    +0.005 C 
ATOM     13  C   UNL     1       7.515   5.136  -5.529  0.00  0.00    +0.037 C 
BRANCH   6  14
ATOM     14  C   UNL     1       7.108   5.449  -2.511  0.00  0.00    +0.244 C 
ATOM     15  O   UNL     1       7.464   4.386  -2.039  0.00  0.00    -0.270 OA
ATOM     16  N   UNL     1       7.758   6.583  -2.185  0.00  0.00    -0.325 N 
ATOM     17  H   UNL     1       7.474   7.431  -2.561  0.00  0.00    +0.145 HD
ATOM     18  H   UNL     1       8.511   6.552  -1.573  0.00  0.00    +0.145 HD
ENDBRANCH   6  14
ENDBRANCH   3   5
BRANCH   1  19
ATOM     19  C   UNL     1       2.458   6.188   0.012  0.00  0.00    +0.135 C 
BRANCH  19  30
ATOM     20  C   UNL     1      -0.013   1.076   0.008  0.00  0.00    +0.001 A 
ATOM     21  C   UNL     1       1.189   1.778   0.000  0.00  0.00    +0.001 A 
ATOM     22  C   UNL     1       1.202   3.142   0.007  0.00  0.00    +0.009 A 
ATOM     23  C   UNL     1      -0.006   3.847   0.023  0.00  0.00    -0.007 A 
ATOM     24  C   UNL     1      -1.230   3.135   0.031  0.00  0.00    -0.017 A 
ATOM     25  C   UNL     1      -1.207   1.731   0.017  0.00  0.00    +0.008 A 
ATOM     26  C   UNL     1      -2.445   3.846   0.046  0.00  0.00    +0.012 A 
ATOM     27  C   UNL     1      -2.465   5.202   0.053  0.00  0.00    +0.047 A 
ATOM     28  C   UNL     1      -1.284   5.954   0.045  0.00  0.00    +0.136 A 
ATOM     29  C   UNL     1      -0.047   5.303   0.030  0.00  0.00    +0.031 A 
ATOM     30  C   UNL     1       0.961   6.362   0.026  0.00  0.00    +0.007 A 
ATOM     31  C   UNL     1       0.283   7.522   0.039  0.00  0.00    +0.200 A 
ATOM     32  O   UNL     1      -1.038   7.280   0.050  0.00  0.00    -0.463 OA
ENDBRANCH  19  30
ENDBRANCH   1  19
TORSDOF 4
