REMARK  Name = ZINC01440067
REMARK  5 active torsions:
REMARK  status: ('A' for Active; 'I' for Inactive)
REMARK    1  A    between atoms: C_6  and  C_7
REMARK    2  A    between atoms: N_9  and  N_10
REMARK    3  A    between atoms: C_11  and  C_25
REMARK    4  A    between atoms: N_15  and  C_18
REMARK    5  A    between atoms: C_25  and  C_26
REMARK                            x       y       z     vdW  Elec       q    Type
REMARK                         _______ _______ _______ _____ _____    ______ ____
ROOT
ATOM      1  N   UNL     1      -1.217   1.681   0.007  0.00  0.00    -0.218 N 
ATOM      2  C   UNL     1      -2.169   1.795  -1.111  0.00  0.00    +0.191 C 
ATOM      3  C   UNL     1      -3.319   2.588  -0.521  0.00  0.00    +0.248 C 
ATOM      4  O   UNL     1      -4.340   2.925  -1.081  0.00  0.00    -0.273 OA
ATOM      5  N   UNL     1      -2.970   2.840   0.756  0.00  0.00    -0.219 N 
ATOM      6  C   UNL     1      -1.774   2.317   1.053  0.00  0.00    +0.164 C 
ATOM      7  S   UNL     1      -1.034   2.447   2.592  0.00  0.00    -0.016 S 
ENDROOT
BRANCH   5   8
ATOM      8  C   UNL     1      -3.764   3.555   1.663  0.00  0.00    +0.043 A 
ATOM      9  C   UNL     1      -3.985   4.912   1.473  0.00  0.00    +0.025 A 
ATOM     10  C   UNL     1      -4.773   5.614   2.364  0.00  0.00    +0.022 A 
ATOM     11  C   UNL     1      -5.330   4.968   3.454  0.00  0.00    +0.041 A 
ATOM     12  C   UNL     1      -5.106   3.617   3.649  0.00  0.00    +0.022 A 
ATOM     13  C   UNL     1      -4.324   2.909   2.757  0.00  0.00    +0.025 A 
ATOM     14 CL   UNL     1      -6.314   5.855   4.577  0.00  0.00    -0.084 Cl
ENDBRANCH   5   8
BRANCH   1  17
ATOM     15  C   UNL     1       1.162   1.755  -0.065  0.00  0.00    +0.260 C 
ATOM     16  O   UNL     1       1.110   2.969  -0.089  0.00  0.00    -0.269 OA
ATOM     17  N   UNL     1       0.025   1.033  -0.014  0.00  0.00    -0.228 N 
ATOM     18  H   UNL     1       0.066   0.064   0.005  0.00  0.00    +0.173 HD
BRANCH  15  24
ATOM     19  C   UNL     1       2.534  -0.324  -0.061  0.00  0.00    +0.014 A 
ATOM     20  C   UNL     1       3.759  -0.957  -0.093  0.00  0.00    +0.021 A 
ATOM     21  C   UNL     1       4.925  -0.212  -0.146  0.00  0.00    +0.041 A 
ATOM     22  C   UNL     1       4.869   1.171  -0.173  0.00  0.00    +0.021 A 
ATOM     23  C   UNL     1       3.651   1.816  -0.147  0.00  0.00    +0.014 A 
ATOM     24  C   UNL     1       2.471   1.070  -0.093  0.00  0.00    +0.038 A 
ATOM     25 CL   UNL     1       6.463  -1.016  -0.178  0.00  0.00    -0.084 Cl
ENDBRANCH  15  24
ENDBRANCH   1  17
BRANCH   2  26
ATOM     26  C   UNL     1      -2.644   0.410  -1.557  0.00  0.00    +0.129 C 
BRANCH  26  27
ATOM     27  C   UNL     1      -1.479  -0.363  -2.120  0.00  0.00    +0.213 C 
ATOM     28  O   UNL     1      -0.378   0.144  -2.161  0.00  0.00    -0.276 OA
ATOM     29  N   UNL     1      -1.661  -1.617  -2.578  0.00  0.00    -0.329 N 
ATOM     30  H   UNL     1      -2.541  -2.022  -2.546  0.00  0.00    +0.145 HD
ATOM     31  H   UNL     1      -0.911  -2.114  -2.941  0.00  0.00    +0.145 HD
ENDBRANCH  26  27
ENDBRANCH   2  26
TORSDOF 5
