REMARK  Name = ZINC01373399
REMARK  12 active torsions:
REMARK  status: ('A' for Active; 'I' for Inactive)
REMARK    1  A    between atoms: C_1  and  C_2
REMARK    2  A    between atoms: C_2  and  O_3
REMARK    3  A    between atoms: O_3  and  C_4
REMARK    4  A    between atoms: C_7  and  O_34
REMARK    5  A    between atoms: C_8  and  N_10
REMARK    6  A    between atoms: C_11  and  C_13
REMARK    7  A    between atoms: C_13  and  S_14
REMARK    8  A    between atoms: S_14  and  C_15
REMARK    9  A    between atoms: C_24  and  C_27
REMARK   10  A    between atoms: C_30  and  C_33
REMARK   11  A    between atoms: O_34  and  C_35
REMARK   12  A    between atoms: C_35  and  C_36
REMARK                            x       y       z     vdW  Elec       q    Type
REMARK                         _______ _______ _______ _____ _____    ______ ____
ROOT
ATOM      1  C   UNL     1       0.002  -0.003  -0.031  0.00  0.00    +0.198 A 
ATOM      2  N   UNL     1      -0.017   1.311  -0.030  0.00  0.00    -0.122 NA
ATOM      3  N   UNL     1       1.185   1.774  -0.049  0.00  0.00    -0.128 NA
ATOM      4  C   UNL     1       2.040   0.781  -0.063  0.00  0.00    +0.173 A 
ATOM      5  N   UNL     1       1.313  -0.389  -0.051  0.00  0.00    -0.260 N 
ATOM      6  C   UNL     1       1.947  -1.597  -0.061  0.00  0.00    +0.208 A 
ATOM      7  N   UNL     1       3.246  -1.682  -0.082  0.00  0.00    -0.230 NA
ATOM      8  C   UNL     1       4.033  -0.608  -0.094  0.00  0.00    +0.114 A 
ATOM      9  C   UNL     1       3.514   0.695  -0.086  0.00  0.00    +0.060 A 
ATOM     10  C   UNL     1       4.508   1.758  -0.102  0.00  0.00    +0.002 A 
ATOM     11  C   UNL     1       5.823   1.422  -0.122  0.00  0.00    +0.056 A 
ATOM     12  S   UNL     1       5.790  -0.360  -0.121  0.00  0.00    -0.076 S 
ENDROOT
BRANCH  10  13
ATOM     13  C   UNL     1       4.093   3.181  -0.096  0.00  0.00    -0.017 A 
ATOM     14  C   UNL     1       3.143   3.636  -1.008  0.00  0.00    +0.009 A 
ATOM     15  C   UNL     1       2.756   4.961  -0.995  0.00  0.00    +0.004 A 
ATOM     16  C   UNL     1       3.318   5.839  -0.085  0.00  0.00    -0.050 A 
ATOM     17  C   UNL     1       4.265   5.394   0.819  0.00  0.00    +0.004 A 
ATOM     18  C   UNL     1       4.655   4.070   0.819  0.00  0.00    +0.009 A 
ATOM     19  C   UNL     1       2.897   7.286  -0.080  0.00  0.00    +0.044 C 
ENDBRANCH  10  13
BRANCH   1  20
ATOM     20  S   UNL     1      -1.402  -1.067  -0.008  0.00  0.00    -0.076 S 
BRANCH  20  21
ATOM     21  C   UNL     1      -2.815   0.070   0.014  0.00  0.00    +0.173 C 
BRANCH  21  23
ATOM     22  N   UNL     1      -5.284  -0.084   0.053  0.00  0.00    -0.282 N 
ATOM     23  C   UNL     1      -4.097  -0.722   0.034  0.00  0.00    +0.228 C 
ATOM     24  O   UNL     1      -4.061  -1.935   0.034  0.00  0.00    -0.275 OA
ATOM     25  H   UNL     1      -5.313   0.883   0.134  0.00  0.00    +0.155 HD
BRANCH  22  30
ATOM     26  C   UNL     1      -7.656  -2.784  -0.748  0.00  0.00    +0.122 A 
ATOM     27  C   UNL     1      -8.834  -2.259  -0.237  0.00  0.00    +0.049 A 
ATOM     28  C   UNL     1      -8.835  -1.016   0.368  0.00  0.00    +0.051 A 
ATOM     29  C   UNL     1      -7.659  -0.291   0.466  0.00  0.00    +0.142 A 
ATOM     30  C   UNL     1      -6.475  -0.815  -0.045  0.00  0.00    +0.079 A 
ATOM     31  C   UNL     1      -6.477  -2.060  -0.657  0.00  0.00    +0.072 A 
BRANCH  26  32
ATOM     32  O   UNL     1      -7.658  -4.006  -1.342  0.00  0.00    -0.492 OA
BRANCH  32  34
ATOM     33  C   UNL     1      -8.715  -6.042  -2.104  0.00  0.00    +0.048 C 
ATOM     34  C   UNL     1      -8.909  -4.694  -1.406  0.00  0.00    +0.225 C 
ENDBRANCH  32  34
ENDBRANCH  26  32
BRANCH  29  35
ATOM     35  O   UNL     1      -7.662   0.932   1.062  0.00  0.00    -0.490 OA
BRANCH  35  36
ATOM     36  C   UNL     1      -8.912   1.407   1.564  0.00  0.00    +0.226 C 
ATOM     37  C   UNL     1      -8.718   2.788   2.194  0.00  0.00    +0.048 C 
ENDBRANCH  35  36
ENDBRANCH  29  35
ENDBRANCH  22  30
ENDBRANCH  21  23
ENDBRANCH  20  21
ENDBRANCH   1  20
TORSDOF 9
