REMARK  Name = ZINC24835322
REMARK  8 active torsions:
REMARK  status: ('A' for Active; 'I' for Inactive)
REMARK    1  A    between atoms: C_1  and  C_2
REMARK    2  A    between atoms: C_2  and  O_3
REMARK    3  A    between atoms: O_3  and  C_4
REMARK    4  A    between atoms: C_4  and  C_6
REMARK    5  A    between atoms: C_7  and  C_21
REMARK    6  A    between atoms: C_12  and  C_14
REMARK    7  A    between atoms: C_21  and  S_22
REMARK    8  A    between atoms: S_22  and  C_23
REMARK                            x       y       z     vdW  Elec       q    Type
REMARK                         _______ _______ _______ _____ _____    ______ ____
ROOT
ATOM      1  C   UNL     1       3.290   9.331   1.178  0.00  0.00    +0.079 C 
ATOM      2  C   UNL     1       2.972   8.760  -0.003  0.00  0.00    +0.034 C 
ATOM      3  N   UNL     1       3.061   9.461  -1.172  0.00  0.00    -0.272 N 
ATOM      4  C   UNL     1       3.465  10.735  -1.244  0.00  0.00    +0.304 C 
ATOM      5  O   UNL     1       3.512  11.276  -2.332  0.00  0.00    -0.252 OA
ATOM      6  N   UNL     1       3.822  11.438  -0.151  0.00  0.00    -0.288 N 
ATOM      7  C   UNL     1       3.761  10.772   1.161  0.00  0.00    +0.144 C 
ATOM      8  H   UNL     1       2.793   8.979  -2.124  0.00  0.00    +0.156 HD
ATOM      9  H   UNL     1       4.152  12.485  -0.222  0.00  0.00    +0.151 HD
ENDROOT
BRANCH   7  10
ATOM     10  C   UNL     1       2.834  11.568   2.043  0.00  0.00    -0.022 A 
ATOM     11  C   UNL     1       1.675  12.108   1.519  0.00  0.00    +0.007 A 
ATOM     12  C   UNL     1       0.822  12.833   2.330  0.00  0.00    +0.020 A 
ATOM     13  C   UNL     1       1.135  13.029   3.663  0.00  0.00    +0.041 A 
ATOM     14  C   UNL     1       2.299  12.493   4.186  0.00  0.00    +0.020 A 
ATOM     15  C   UNL     1       3.148  11.763   3.376  0.00  0.00    +0.007 A 
ATOM     16 CL   UNL     1       0.068  13.947   4.680  0.00  0.00    -0.084 Cl
ENDBRANCH   7  10
BRANCH   1  17
ATOM     17  C   UNL     1       3.193   8.608   2.390  0.00  0.00    +0.339 C 
ATOM     18  O   UNL     1       4.194   8.151   2.908  0.00  0.00    -0.245 OA
BRANCH  17  19
ATOM     19  O   UNL     1       1.989   8.426   2.972  0.00  0.00    -0.462 OA
BRANCH  19  21
ATOM     20  C   UNL     1       0.524   7.583   4.700  0.00  0.00    +0.048 C 
ATOM     21  C   UNL     1       1.965   7.686   4.194  0.00  0.00    +0.229 C 
ENDBRANCH  19  21
ENDBRANCH  17  19
ENDBRANCH   1  17
BRANCH   2  22
ATOM     22  C   UNL     1       2.505   7.327  -0.032  0.00  0.00    +0.128 C 
BRANCH  22  23
ATOM     23  S   UNL     1       0.715   7.282  -0.295  0.00  0.00    -0.080 S 
BRANCH  23  24
ATOM     24  C   UNL     1       0.448   5.540  -0.285  0.00  0.00    +0.191 A 
ATOM     25  N   UNL     1      -0.782   5.068  -0.453  0.00  0.00    -0.207 NA
ATOM     26  C   UNL     1      -1.043   3.772  -0.455  0.00  0.00    +0.129 A 
ATOM     27  C   UNL     1       0.022   2.847  -0.272  0.00  0.00    +0.047 A 
ATOM     28  C   UNL     1      -0.006   1.394  -0.241  0.00  0.00    +0.021 A 
ATOM     29  C   UNL     1       1.136   0.721  -0.047  0.00  0.00    +0.048 A 
ATOM     30  S   UNL     1       2.360   2.010   0.097  0.00  0.00    -0.077 S 
ATOM     31  C   UNL     1       1.301   3.418  -0.099  0.00  0.00    +0.114 A 
ATOM     32  N   UNL     1       1.479   4.725  -0.110  0.00  0.00    -0.215 NA
ATOM     33  N   UNL     1      -2.338   3.321  -0.634  0.00  0.00    -0.343 N 
ATOM     34  H   UNL     1      -2.549   2.241  -0.634  0.00  0.00    +0.144 HD
ATOM     35  H   UNL     1      -3.157   4.041  -0.775  0.00  0.00    +0.144 HD
ENDBRANCH  23  24
ENDBRANCH  22  23
ENDBRANCH   2  22
TORSDOF 7
