REMARK  Name = ZINC06664266
REMARK  9 active torsions:
REMARK  status: ('A' for Active; 'I' for Inactive)
REMARK    1  A    between atoms: C_1  and  N_2
REMARK    2  A    between atoms: N_2  and  C_3
REMARK    3  A    between atoms: N_2  and  C_6
REMARK    4  A    between atoms: C_3  and  C_4
REMARK    5  A    between atoms: C_4  and  O_5
REMARK    6  A    between atoms: C_8  and  N_23
REMARK    7  A    between atoms: C_11  and  N_12
REMARK    8  A    between atoms: N_23  and  C_24
REMARK    9  A    between atoms: C_24  and  C_25
REMARK                            x       y       z     vdW  Elec       q    Type
REMARK                         _______ _______ _______ _____ _____    ______ ____
ROOT
ATOM      1  C   UNL     1      -0.009  -0.559  -1.292  0.00  0.00    +0.053 A 
ATOM      2  C   UNL     1       1.190  -0.887  -1.896  0.00  0.00    +0.048 A 
ATOM      3  C   UNL     1       1.212  -1.708  -3.022  0.00  0.00    +0.041 A 
ATOM      4  C   UNL     1       0.013  -2.207  -3.549  0.00  0.00    +0.056 A 
ATOM      5  C   UNL     1      -1.216  -1.875  -2.934  0.00  0.00    +0.057 A 
ATOM      6  C   UNL     1      -1.223  -1.056  -1.803  0.00  0.00    +0.058 A 
ATOM      7  C   UNL     1      -2.478  -2.395  -3.481  0.00  0.00    +0.196 C 
ATOM      8  O   UNL     1      -3.535  -2.110  -2.951  0.00  0.00    -0.287 OA
ATOM      9  C   UNL     1      -2.459  -3.265  -4.675  0.00  0.00    +0.033 A 
ATOM     10  C   UNL     1      -3.649  -3.762  -5.201  0.00  0.00    +0.012 A 
ATOM     11  C   UNL     1      -3.621  -4.575  -6.319  0.00  0.00    +0.001 A 
ATOM     12  C   UNL     1      -2.417  -4.899  -6.920  0.00  0.00    +0.001 A 
ATOM     13  C   UNL     1      -1.227  -4.415  -6.410  0.00  0.00    +0.012 A 
ATOM     14  C   UNL     1      -1.236  -3.594  -5.286  0.00  0.00    +0.033 A 
ATOM     15  C   UNL     1       0.031  -3.071  -4.735  0.00  0.00    +0.196 C 
ATOM     16  O   UNL     1       1.089  -3.356  -5.264  0.00  0.00    -0.287 OA
ENDROOT
BRANCH   6  17
ATOM     17  N   UNL     1      -2.422  -0.729  -1.189  0.00  0.00    -0.356 N 
ATOM     18  H   UNL     1      -2.498   0.095  -0.683  0.00  0.00    +0.142 HD
ATOM     19  H   UNL     1      -3.184  -1.324  -1.266  0.00  0.00    +0.142 HD
ENDBRANCH   6  17
BRANCH   1  21
ATOM     20  C   UNL     1      -0.123   1.713  -0.323  0.00  0.00    +0.129 C 
ATOM     21  N   UNL     1      -0.015   0.261  -0.169  0.00  0.00    -0.329 N 
BRANCH  21  22
ATOM     22  C   UNL     1       0.085  -0.328   1.169  0.00  0.00    +0.132 C 
BRANCH  22  23
ATOM     23  C   UNL     1      -1.318  -0.633   1.698  0.00  0.00    +0.174 C 
BRANCH  23  24
ATOM     24  O   UNL     1      -1.926  -1.640   0.886  0.00  0.00    -0.393 OA
ATOM     25  H   UNL     1      -2.819  -1.883   1.165  0.00  0.00    +0.209 HD
ENDBRANCH  23  24
ENDBRANCH  22  23
ENDBRANCH  21  22
ENDBRANCH   1  21
BRANCH   3  26
ATOM     26  N   UNL     1       2.420  -2.030  -3.621  0.00  0.00    -0.336 N 
ATOM     27  H   UNL     1       2.445  -2.672  -4.347  0.00  0.00    +0.147 HD
BRANCH  26  28
ATOM     28  C   UNL     1       3.658  -1.399  -3.159  0.00  0.00    +0.176 C 
BRANCH  28  29
ATOM     29  C   UNL     1       4.819  -1.917  -3.968  0.00  0.00    +0.122 A 
ATOM     30  C   UNL     1       5.286  -1.377  -5.108  0.00  0.00    +0.046 A 
ATOM     31  C   UNL     1       6.375  -2.177  -5.524  0.00  0.00    +0.041 A 
ATOM     32  C   UNL     1       6.507  -3.158  -4.614  0.00  0.00    +0.195 A 
ATOM     33  O   UNL     1       5.566  -2.992  -3.671  0.00  0.00    -0.466 OA
ENDBRANCH  28  29
ENDBRANCH  26  28
ENDBRANCH   3  26
TORSDOF 8
