REMARK  Name = ZINC43459075
REMARK  3 active torsions:
REMARK  status: ('A' for Active; 'I' for Inactive)
REMARK    1  A    between atoms: C_7  and  N_21
REMARK    2  A    between atoms: N_11  and  C_12
REMARK    3  A    between atoms: C_12  and  C_13
REMARK                            x       y       z     vdW  Elec       q    Type
REMARK                         _______ _______ _______ _____ _____    ______ ____
ROOT
ATOM      1  C   UNL     1      -0.017   1.380   0.010  0.00  0.00    +0.000 A 
ATOM      2  C   UNL     1       1.174   2.084   0.002  0.00  0.00    +0.002 A 
ATOM      3  C   UNL     1       2.380   1.415  -0.013  0.00  0.00    +0.024 A 
ATOM      4  C   UNL     1       2.407   0.021  -0.021  0.00  0.00    +0.042 A 
ATOM      5  C   UNL     1       1.205  -0.674  -0.013  0.00  0.00    -0.000 A 
ATOM      6  C   UNL     1       0.002  -0.004   0.002  0.00  0.00    +0.007 A 
ATOM      7  C   UNL     1       1.563  -2.143  -0.025  0.00  0.00    +0.171 C 
ATOM      8  C   UNL     1       3.077  -2.152  -0.040  0.00  0.00    +0.241 C 
ATOM      9  O   UNL     1       3.791  -3.132  -0.052  0.00  0.00    -0.273 OA
ATOM     10  N   UNL     1       3.480  -0.870  -0.037  0.00  0.00    -0.265 N 
ENDROOT
BRANCH   7  11
ATOM     11  N   UNL     1       1.053  -2.806   1.183  0.00  0.00    -0.316 NA
ATOM     12  H   UNL     1       1.288  -3.787   1.183  0.00  0.00    +0.119 HD
ATOM     13  H   UNL     1       1.395  -2.352   2.017  0.00  0.00    +0.119 HD
ENDBRANCH   7  11
BRANCH  10  14
ATOM     14  C   UNL     1       4.885  -0.456  -0.048  0.00  0.00    +0.151 C 
BRANCH  14  15
ATOM     15  C   UNL     1       5.381  -0.322   1.368  0.00  0.00    +0.008 A 
ATOM     16  C   UNL     1       5.458   0.925   1.958  0.00  0.00    +0.046 A 
ATOM     17  C   UNL     1       5.913   1.049   3.260  0.00  0.00    +0.124 A 
ATOM     18  C   UNL     1       6.292  -0.078   3.970  0.00  0.00    +0.041 A 
ATOM     19  C   UNL     1       6.215  -1.325   3.381  0.00  0.00    +0.041 A 
ATOM     20  C   UNL     1       5.755  -1.449   2.080  0.00  0.00    +0.128 A 
ATOM     21  F   UNL     1       5.676  -2.669   1.505  0.00  0.00    -0.205 F 
ATOM     22  F   UNL     1       5.988   2.268   3.837  0.00  0.00    -0.205 F 
ENDBRANCH  14  15
ENDBRANCH  10  14
TORSDOF 3
