REMARK  Name = ZINC66775225
REMARK  5 active torsions:
REMARK  status: ('A' for Active; 'I' for Inactive)
REMARK    1  A    between atoms: C_6  and  C_7
REMARK    2  A    between atoms: C_7  and  C_8
REMARK    3  A    between atoms: C_8  and  C_10
REMARK    4  A    between atoms: C_8  and  N_16
REMARK    5  A    between atoms: C_17  and  C_19
REMARK                            x       y       z     vdW  Elec       q    Type
REMARK                         _______ _______ _______ _____ _____    ______ ____
ROOT
ATOM      1  C   UNL     1      -1.726  -1.026  -1.424  0.00  0.00    +0.080 C 
ENDROOT
BRANCH   1   2
ATOM      2  C   UNL     1      -2.971  -1.916  -1.413  0.00  0.00    +0.010 C 
ATOM      3  C   UNL     1      -2.638  -3.249  -0.740  0.00  0.00    +0.005 C 
ATOM      4  C   UNL     1      -3.883  -4.139  -0.728  0.00  0.00    +0.000 C 
ATOM      5  C   UNL     1      -4.340  -4.394  -2.166  0.00  0.00    +0.000 C 
ATOM      6  C   UNL     1      -4.673  -3.061  -2.839  0.00  0.00    +0.000 C 
ATOM      7  C   UNL     1      -3.428  -2.171  -2.851  0.00  0.00    +0.005 C 
ENDBRANCH   1   2
BRANCH   1   8
ATOM      8  N   UNL     1      -2.045   0.250  -2.069  0.00  0.00    -0.312 N 
ATOM      9  C   UNL     1      -1.979   0.362  -3.411  0.00  0.00    +0.218 C 
ATOM     10  O   UNL     1      -1.656  -0.593  -4.084  0.00  0.00    -0.275 OA
ATOM     11  H   UNL     1      -2.303   1.015  -1.531  0.00  0.00    +0.149 HD
BRANCH   9  12
ATOM     12  C   UNL     1      -2.306   1.675  -4.074  0.00  0.00    +0.092 C 
ATOM     13  C   UNL     1      -2.153   1.534  -5.590  0.00  0.00    +0.016 C 
ATOM     14  C   UNL     1      -2.517   2.857  -6.267  0.00  0.00    +0.020 C 
ATOM     15  C   UNL     1      -1.561   3.953  -5.785  0.00  0.00    +0.109 C 
ATOM     16  N   UNL     1      -1.595   3.997  -4.317  0.00  0.00    -0.285 N 
ATOM     17  C   UNL     1      -1.348   2.758  -3.566  0.00  0.00    +0.122 C 
ATOM     18  C   UNL     1      -1.846   5.152  -3.670  0.00  0.00    +0.300 C 
ATOM     19  O   UNL     1      -1.965   5.158  -2.460  0.00  0.00    -0.253 OA
ATOM     20  N   UNL     1      -1.966   6.301  -4.364  0.00  0.00    -0.313 N 
ATOM     21  H   UNL     1      -1.943   6.286  -5.334  0.00  0.00    +0.146 HD
ATOM     22  H   UNL     1      -2.075   7.143  -3.894  0.00  0.00    +0.146 HD
ENDBRANCH   9  12
ENDBRANCH   1   8
BRANCH   1  23
ATOM     23  C   UNL     1      -1.269  -0.771   0.013  0.00  0.00    +0.057 C 
BRANCH  23  29
ATOM     24  C   UNL     1       0.004   1.384   0.005  0.00  0.00    +0.005 A 
ATOM     25  C   UNL     1       1.190   2.094  -0.007  0.00  0.00    +0.020 A 
ATOM     26  C   UNL     1       2.398   1.420  -0.026  0.00  0.00    +0.041 A 
ATOM     27  C   UNL     1       2.419   0.037  -0.033  0.00  0.00    +0.020 A 
ATOM     28  C   UNL     1       1.232  -0.671  -0.020  0.00  0.00    +0.005 A 
ATOM     29  C   UNL     1       0.025   0.002  -0.001  0.00  0.00    -0.046 A 
ATOM     30 CL   UNL     1       3.888   2.311  -0.043  0.00  0.00    -0.084 Cl
ENDBRANCH  23  29
ENDBRANCH   1  23
TORSDOF 5
