REMARK  Name = ZINC07091134
REMARK  4 active torsions:
REMARK  status: ('A' for Active; 'I' for Inactive)
REMARK    1  A    between atoms: C_2  and  C_15
REMARK    2  A    between atoms: C_15  and  O_16
REMARK    3  A    between atoms: O_16  and  C_17
REMARK    4  A    between atoms: C_17  and  C_19
REMARK                            x       y       z     vdW  Elec       q    Type
REMARK                         _______ _______ _______ _____ _____    ______ ____
ROOT
ATOM      1  C   UNL     1       0.173   2.258  -6.959  0.00  0.00    +0.097 A 
ATOM      2  C   UNL     1      -0.467   1.391  -6.100  0.00  0.00    +0.087 A 
ATOM      3  N   UNL     1      -1.693   0.973  -6.404  0.00  0.00    -0.224 NA
ATOM      4  C   UNL     1      -2.288   1.370  -7.502  0.00  0.00    +0.181 A 
ATOM      5  N   UNL     1      -1.727   2.223  -8.411  0.00  0.00    -0.259 N 
ATOM      6  C   UNL     1      -0.466   2.671  -8.129  0.00  0.00    +0.259 A 
ATOM      7  O   UNL     1       0.097   3.434  -8.897  0.00  0.00    -0.267 OA
ATOM      8  C   UNL     1      -2.472   2.562  -9.531  0.00  0.00    +0.039 A 
ATOM      9  C   UNL     1      -3.697   2.037  -9.663  0.00  0.00    +0.013 A 
ATOM     10  S   UNL     1      -3.882   1.028  -8.216  0.00  0.00    -0.054 S 
ATOM     11  C   UNL     1      -4.676   2.252 -10.772  0.00  0.00    +0.044 C 
ATOM     12  C   UNL     1      -4.220   3.469 -11.591  0.00  0.00    +0.006 C 
ATOM     13  C   UNL     1      -2.724   3.328 -11.884  0.00  0.00    +0.006 C 
ATOM     14  C   UNL     1      -1.922   3.511 -10.595  0.00  0.00    +0.055 C 
ENDROOT
BRANCH   2  15
ATOM     15  C   UNL     1       0.208   0.928  -4.834  0.00  0.00    +0.287 C 
BRANCH  15  16
ATOM     16  O   UNL     1      -0.522   1.431  -3.684  0.00  0.00    -0.458 OA
BRANCH  16  17
ATOM     17  C   UNL     1      -0.047   1.107  -2.471  0.00  0.00    +0.311 C 
ATOM     18  O   UNL     1       0.945   0.425  -2.374  0.00  0.00    -0.251 OA
BRANCH  17  19
ATOM     19  C   UNL     1      -0.753   1.593  -1.232  0.00  0.00    +0.098 C 
ATOM     20  C   UNL     1      -0.013   1.086   0.008  0.00  0.00    +0.015 C 
ATOM     21  C   UNL     1      -0.729   1.579   1.267  0.00  0.00    +0.001 C 
ATOM     22  C   UNL     1      -2.164   1.050   1.278  0.00  0.00    +0.000 C 
ATOM     23  C   UNL     1      -2.904   1.556   0.038  0.00  0.00    +0.001 C 
ATOM     24  C   UNL     1      -2.188   1.063  -1.221  0.00  0.00    +0.015 C 
ENDBRANCH  17  19
ENDBRANCH  16  17
ENDBRANCH  15  16
ENDBRANCH   2  15
TORSDOF 4
