REMARK  Name = ZINC35360884
REMARK  5 active torsions:
REMARK  status: ('A' for Active; 'I' for Inactive)
REMARK    1  A    between atoms: C_4  and  C_7
REMARK    2  A    between atoms: C_7  and  O_32
REMARK    3  A    between atoms: N_10  and  C_19
REMARK    4  A    between atoms: C_19  and  C_20
REMARK    5  A    between atoms: C_22  and  C_25
REMARK                            x       y       z     vdW  Elec       q    Type
REMARK                         _______ _______ _______ _____ _____    ______ ____
ROOT
ATOM      1  C   UNL     1       3.711  -0.707  -0.038  0.00  0.00    +0.091 C 
ATOM      2  C   UNL     1       4.168  -0.973   1.400  0.00  0.00    +0.021 C 
ATOM      3  C   UNL     1       5.463  -1.789   1.375  0.00  0.00    -0.075 C 
ATOM      4  N   UNL     1       5.227  -3.066   0.690  0.00  0.00    +0.388 N 
ATOM      5  C   UNL     1       4.858  -2.820  -0.709  0.00  0.00    -0.062 C 
ATOM      6  C   UNL     1       3.540  -2.044  -0.764  0.00  0.00    +0.012 C 
ATOM      7  C   UNL     1       3.162  -1.785  -2.224  0.00  0.00    +0.005 C 
ATOM      8  C   UNL     1       2.997  -3.121  -2.952  0.00  0.00    +0.000 C 
ATOM      9  C   UNL     1       4.314  -3.897  -2.897  0.00  0.00    -0.002 C 
ATOM     10  C   UNL     1       4.694  -4.156  -1.438  0.00  0.00    -0.015 C 
ATOM     11  H   UNL     1       4.480  -3.562   1.152  0.00  0.00    -0.081 HD
ENDROOT
BRANCH   1  15
ATOM     12  C   UNL     1      -0.017   1.378   0.010  0.00  0.00    +0.000 A 
ATOM     13  C   UNL     1       1.171   2.086   0.002  0.00  0.00    +0.000 A 
ATOM     14  C   UNL     1       2.377   1.411  -0.013  0.00  0.00    +0.006 A 
ATOM     15  C   UNL     1       2.396   0.029  -0.020  0.00  0.00    -0.016 A 
ATOM     16  C   UNL     1       1.208  -0.679  -0.012  0.00  0.00    +0.006 A 
ATOM     17  C   UNL     1       0.002  -0.004   0.002  0.00  0.00    +0.000 A 
ENDBRANCH   1  15
BRANCH   1  18
ATOM     18  O   UNL     1       4.691   0.083  -0.714  0.00  0.00    -0.384 OA
ATOM     19  H   UNL     1       4.853   0.944  -0.306  0.00  0.00    +0.211 HD
ENDBRANCH   1  18
BRANCH   4  20
ATOM     20  C   UNL     1       6.451  -3.878   0.737  0.00  0.00    +0.022 C 
BRANCH  20  21
ATOM     21  C   UNL     1       6.758  -4.242   2.166  0.00  0.00    +0.211 A 
ATOM     22  N   UNL     1       6.338  -5.307   2.787  0.00  0.00    -0.193 NA
ATOM     23  C   UNL     1       6.801  -5.316   4.050  0.00  0.00    +0.205 A 
ATOM     24  N   UNL     1       7.526  -4.241   4.238  0.00  0.00    -0.056 NA
ATOM     25  O   UNL     1       7.513  -3.528   3.011  0.00  0.00    -0.340 OA
BRANCH  23  26
ATOM     26  C   UNL     1       6.534  -6.368   5.062  0.00  0.00    +0.059 A 
ATOM     27  C   UNL     1       7.066  -6.266   6.350  0.00  0.00    +0.016 A 
ATOM     28  C   UNL     1       6.787  -7.273   7.258  0.00  0.00    +0.020 A 
ATOM     29  C   UNL     1       5.998  -8.339   6.866  0.00  0.00    +0.112 A 
ATOM     30  N   UNL     1       5.509  -8.409   5.643  0.00  0.00    -0.243 NA
ATOM     31  C   UNL     1       5.743  -7.472   4.745  0.00  0.00    +0.140 A 
ATOM     32 CL   UNL     1       5.065  -7.617   3.154  0.00  0.00    -0.061 Cl
ENDBRANCH  23  26
ENDBRANCH  20  21
ENDBRANCH   4  20
TORSDOF 5
