REMARK  Name = ZINC09960437
REMARK  8 active torsions:
REMARK  status: ('A' for Active; 'I' for Inactive)
REMARK    1  A    between atoms: C_1  and  N_2
REMARK    2  A    between atoms: C_3  and  N_35
REMARK    3  A    between atoms: C_4  and  C_11
REMARK    4  A    between atoms: C_11  and  C_13
REMARK    5  A    between atoms: C_13  and  S_14
REMARK    6  A    between atoms: S_14  and  C_15
REMARK    7  A    between atoms: N_28  and  C_29
REMARK    8  A    between atoms: C_29  and  C_30
REMARK                            x       y       z     vdW  Elec       q    Type
REMARK                         _______ _______ _______ _____ _____    ______ ____
ROOT
ATOM      1  C   UNL     1       0.180   3.296   8.512  0.00  0.00    +0.173 A 
ATOM      2  N   UNL     1      -1.131   3.406   8.425  0.00  0.00    -0.216 NA
ATOM      3  C   UNL     1      -1.859   3.718   9.491  0.00  0.00    +0.117 A 
ATOM      4  C   UNL     1      -1.280   3.957  10.748  0.00  0.00    +0.076 A 
ATOM      5  C   UNL     1      -2.210   4.298  11.826  0.00  0.00    -0.023 A 
ATOM      6  C   UNL     1      -3.520   4.348  11.511  0.00  0.00    -0.004 A 
ATOM      7  S   UNL     1      -3.594   3.951   9.785  0.00  0.00    -0.073 S 
ATOM      8  C   UNL     1      -4.662   4.670  12.426  0.00  0.00    +0.043 C 
ATOM      9  C   UNL     1      -4.163   4.576  13.875  0.00  0.00    +0.005 C 
ATOM     10  C   UNL     1      -2.842   5.341  13.991  0.00  0.00    +0.005 C 
ATOM     11  C   UNL     1      -1.738   4.586  13.249  0.00  0.00    +0.037 C 
ATOM     12  C   UNL     1       0.145   3.837  10.811  0.00  0.00    +0.264 A 
ATOM     13  O   UNL     1       0.735   4.027  11.861  0.00  0.00    -0.267 OA
ATOM     14  N   UNL     1       0.824   3.512   9.696  0.00  0.00    -0.280 N 
ENDROOT
BRANCH   1  15
ATOM     15  S   UNL     1       1.113   2.874   7.079  0.00  0.00    -0.080 S 
BRANCH  15  16
ATOM     16  C   UNL     1      -0.223   2.717   5.868  0.00  0.00    +0.157 C 
BRANCH  16  17
ATOM     17  C   UNL     1       0.356   2.349   4.526  0.00  0.00    +0.182 C 
ATOM     18  O   UNL     1       1.555   2.207   4.400  0.00  0.00    -0.291 OA
BRANCH  17  22
ATOM     19  C   UNL     1      -0.351   1.069  -0.147  0.00  0.00    +0.155 C 
ATOM     20  N   UNL     1      -0.861   1.550   1.139  0.00  0.00    -0.285 N 
ATOM     21  C   UNL     1       0.003   1.708   2.185  0.00  0.00    +0.116 A 
ATOM     22  C   UNL     1      -0.496   2.171   3.415  0.00  0.00    +0.120 A 
ATOM     23  C   UNL     1      -1.933   2.462   3.507  0.00  0.00    +0.266 A 
ATOM     24  O   UNL     1      -2.420   2.865   4.548  0.00  0.00    -0.267 OA
ATOM     25  N   UNL     1      -2.702   2.273   2.415  0.00  0.00    -0.274 N 
ATOM     26  H   UNL     1      -3.682   2.464   2.463  0.00  0.00    +0.173 HD
ATOM     27  C   UNL     1      -2.167   1.833   1.264  0.00  0.00    +0.330 A 
ATOM     28  O   UNL     1      -2.894   1.681   0.302  0.00  0.00    -0.246 OA
BRANCH  21  29
ATOM     29  N   UNL     1       1.325   1.421   2.040  0.00  0.00    -0.344 N 
ATOM     30  H   UNL     1       1.646   1.022   1.216  0.00  0.00    +0.144 HD
ATOM     31  H   UNL     1       1.945   1.614   2.760  0.00  0.00    +0.144 HD
ENDBRANCH  21  29
ENDBRANCH  17  22
ENDBRANCH  16  17
ENDBRANCH  15  16
ENDBRANCH   1  15
BRANCH  14  32
ATOM     32  C   UNL     1       2.283   3.387   9.753  0.00  0.00    +0.201 C 
BRANCH  32  33
ATOM     33  C   UNL     1       2.913   4.723   9.451  0.00  0.00    +0.125 A 
ATOM     34  C   UNL     1       3.216   5.671  10.355  0.00  0.00    +0.046 A 
ATOM     35  C   UNL     1       3.789   6.749   9.641  0.00  0.00    +0.041 A 
ATOM     36  C   UNL     1       3.793   6.398   8.342  0.00  0.00    +0.195 A 
ATOM     37  O   UNL     1       3.261   5.169   8.233  0.00  0.00    -0.466 OA
ENDBRANCH  32  33
ENDBRANCH  14  32
TORSDOF 7
