REMARK  Name = ZINC48967772
REMARK  4 active torsions:
REMARK  status: ('A' for Active; 'I' for Inactive)
REMARK    1  A    between atoms: C_4  and  CA_7
REMARK    2  A    between atoms: CA_7  and  C_9
REMARK    3  A    between atoms: CA_7  and  N_12
REMARK    4  A    between atoms: C_19  and  O_22
REMARK                            x       y       z     vdW  Elec       q    Type
REMARK                         _______ _______ _______ _____ _____    ______ ____
ROOT
ATOM      1  N   UNL     1       2.933  -1.953   2.463  0.00  0.00    -0.286 N 
ATOM      2  C   UNL     1       3.059  -2.632   3.620  0.00  0.00    +0.303 C 
ATOM      3  O   UNL     1       3.248  -2.031   4.660  0.00  0.00    -0.253 OA
ATOM      4  N   UNL     1       2.977  -3.977   3.625  0.00  0.00    -0.283 N 
ATOM      5  C   UNL     1       2.869  -4.725   2.365  0.00  0.00    +0.109 C 
ATOM      6  C   UNL     1       3.973  -5.786   2.326  0.00  0.00    +0.022 C 
ATOM      7  C   UNL     1       3.883  -6.656   3.582  0.00  0.00    +0.034 C 
ATOM      8  C   UNL     1       4.094  -5.785   4.823  0.00  0.00    +0.132 C 
ATOM      9  C   UNL     1       2.998  -4.724   4.890  0.00  0.00    +0.140 C 
ATOM     10  H   UNL     1       2.854  -2.434   1.624  0.00  0.00    +0.151 HD
ENDROOT
BRANCH   8  11
ATOM     11  O   UNL     1       4.042  -6.603   5.994  0.00  0.00    -0.390 OA
ATOM     12  H   UNL     1       4.168  -6.116   6.820  0.00  0.00    +0.210 HD
ENDBRANCH   8  11
BRANCH   1  13
ATOM     13  CA  UNL     1       2.913  -0.488   2.471  0.00  0.00    +0.191 C 
BRANCH  13  17
ATOM     14  C   UNL     1      -0.033   1.528   0.025  0.00  0.00    +0.000 C 
ATOM     15  C   UNL     1       1.403   2.057   0.008  0.00  0.00    +0.000 C 
ATOM     16  C   UNL     1       2.148   1.549   1.244  0.00  0.00    +0.006 C 
ATOM     17  C   UNL     1       2.168   0.019   1.235  0.00  0.00    +0.020 C 
ATOM     18  C   UNL     1       0.733  -0.509   1.252  0.00  0.00    +0.006 C 
ATOM     19  C   UNL     1      -0.013  -0.002   0.016  0.00  0.00    +0.000 C 
ENDBRANCH  13  17
BRANCH  13  20
ATOM     20  C   UNL     1       4.327   0.033   2.455  0.00  0.00    +0.376 C 
ATOM     21  O   UNL     1       4.542   1.219   2.642  0.00  0.00    -0.244 OA
ATOM     22  OXT UNL     1       5.256  -0.731   2.254  0.00  0.00    -0.244 OA
ENDBRANCH  13  20
ENDBRANCH   1  13
TORSDOF 4
