REMARK  Name = ZINC13065184
REMARK  17 active torsions:
REMARK  status: ('A' for Active; 'I' for Inactive)
REMARK    1  A    between atoms: C_1  and  C_2
REMARK    2  A    between atoms: C_2  and  C_3
REMARK    3  A    between atoms: C_3  and  C_5
REMARK    4  A    between atoms: C_3  and  N_75
REMARK    5  A    between atoms: N_9  and  C_10
REMARK    6  A    between atoms: C_10  and  C_11
REMARK    7  A    between atoms: C_10  and  C_12
REMARK    8  A    between atoms: C_10  and  C_13
REMARK    9  A    between atoms: C_13  and  C_14
REMARK   10  A    between atoms: C_15  and  C_16
REMARK   11  A    between atoms: C_15  and  N_75
REMARK   12  A    between atoms: C_21  and  O_22
REMARK   13  A    between atoms: O_22  and  C_23
REMARK   14  A    between atoms: C_24  and  C_25
REMARK   15  A    between atoms: C_24  and  N_75
REMARK   16  A    between atoms: C_28  and  C_38
REMARK   17  A    between atoms: C_31  and  C_37
REMARK                            x       y       z     vdW  Elec       q    Type
REMARK                         _______ _______ _______ _____ _____    ______ ____
ROOT
ATOM      1  N   UNL     1      -1.985   1.666   1.704  0.00  0.00    +0.392 N 
ATOM      2  H   UNL     1      -1.402   1.861   2.526  0.00  0.00    -0.080 HD
ENDROOT
BRANCH   1   3
ATOM      3  C   UNL     1      -1.472   2.445   0.556  0.00  0.00    +0.003 C 
BRANCH   3   4
ATOM      4  C   UNL     1       0.024   2.572   0.693  0.00  0.00    +0.139 A 
ATOM      5  N   UNL     1       0.869   1.609   0.968  0.00  0.00    -0.115 NA
ATOM      6  N   UNL     1       2.054   2.115   0.993  0.00  0.00    -0.023 NA
ATOM      7  N   UNL     1       1.986   3.375   0.740  0.00  0.00    -0.043 NA
ATOM      8  N   UNL     1       0.751   3.695   0.550  0.00  0.00    -0.225 N 
BRANCH   8   9
ATOM      9  C   UNL     1       0.236   5.031   0.236  0.00  0.00    +0.061 C 
ATOM     10  C   UNL     1      -0.583   4.972  -1.054  0.00  0.00    +0.036 C 
ATOM     11  C   UNL     1      -0.652   5.517   1.383  0.00  0.00    +0.036 C 
BRANCH   9  12
ATOM     12  C   UNL     1       1.408   5.998   0.053  0.00  0.00    +0.026 C 
ATOM     13  C   UNL     1       0.871   7.393  -0.274  0.00  0.00    +0.006 C 
ENDBRANCH   9  12
ENDBRANCH   8   9
ENDBRANCH   3   4
BRANCH   3  15
ATOM     14  C   UNL     1      -3.325   1.684  -0.937  0.00  0.00    +0.002 C 
ATOM     15  C   UNL     1      -1.806   1.739  -0.759  0.00  0.00    -0.011 C 
ENDBRANCH   3  15
ENDBRANCH   1   3
BRANCH   1  16
ATOM     16  C   UNL     1      -1.922   0.221   1.402  0.00  0.00    -0.038 C 
BRANCH  16  17
ATOM     17  C   UNL     1      -0.495  -0.241   1.546  0.00  0.00    -0.022 A 
ATOM     18  C   UNL     1       0.235  -0.592   0.427  0.00  0.00    +0.005 A 
ATOM     19  C   UNL     1       1.545  -1.012   0.558  0.00  0.00    +0.000 A 
ATOM     20  C   UNL     1       2.126  -1.092   1.811  0.00  0.00    +0.004 A 
ATOM     21  C   UNL     1       1.399  -0.747   2.933  0.00  0.00    +0.046 A 
ATOM     22  C   UNL     1       0.085  -0.321   2.804  0.00  0.00    +0.121 A 
BRANCH  22  23
ATOM     23  O   UNL     1      -0.633   0.019   3.907  0.00  0.00    -0.495 OA
ATOM     24  C   UNL     1       0.029  -0.087   5.169  0.00  0.00    +0.277 C 
ENDBRANCH  22  23
ENDBRANCH  16  17
ENDBRANCH   1  16
BRANCH   1  25
ATOM     25  C   UNL     1      -3.378   2.061   1.999  0.00  0.00    -0.036 C 
BRANCH  25  26
ATOM     26  C   UNL     1      -3.752   1.533   3.360  0.00  0.00    +0.001 A 
ATOM     27  C   UNL     1      -3.608   2.323   4.454  0.00  0.00    +0.017 A 
ATOM     28  C   UNL     1      -3.985   1.782   5.761  0.00  0.00    +0.002 A 
ATOM     29  C   UNL     1      -3.864   2.551   6.924  0.00  0.00    -0.041 A 
ATOM     30  C   UNL     1      -4.221   2.016   8.129  0.00  0.00    +0.004 A 
ATOM     31  C   UNL     1      -4.702   0.716   8.210  0.00  0.00    +0.005 A 
ATOM     32  C   UNL     1      -4.829  -0.059   7.078  0.00  0.00    -0.026 A 
ATOM     33  C   UNL     1      -4.473   0.464   5.840  0.00  0.00    +0.052 A 
ATOM     34  N   UNL     1      -4.591  -0.288   4.691  0.00  0.00    -0.322 N 
ATOM     35  H   UNL     1      -4.927  -1.197   4.747  0.00  0.00    +0.169 HD
ATOM     36  C   UNL     1      -4.246   0.218   3.494  0.00  0.00    +0.251 A 
ATOM     37  O   UNL     1      -4.363  -0.476   2.499  0.00  0.00    -0.268 OA
ATOM     38  C   UNL     1      -5.353  -1.469   7.181  0.00  0.00    +0.046 C 
ATOM     39  C   UNL     1      -3.344   3.963   6.847  0.00  0.00    +0.044 C 
ENDBRANCH  25  26
ENDBRANCH   1  25
TORSDOF 10
