REMARK  Name = ZINC48227749
REMARK  8 active torsions:
REMARK  status: ('A' for Active; 'I' for Inactive)
REMARK    1  A    between atoms: C_1  and  C_2
REMARK    2  A    between atoms: C_2  and  C_4
REMARK    3  A    between atoms: C_2  and  S_16
REMARK    4  A    between atoms: N_6  and  C_7
REMARK    5  A    between atoms: C_10  and  N_14
REMARK    6  A    between atoms: S_16  and  C_17
REMARK    7  A    between atoms: C_20  and  N_23
REMARK    8  A    between atoms: C_24  and  C_26
REMARK                            x       y       z     vdW  Elec       q    Type
REMARK                         _______ _______ _______ _____ _____    ______ ____
ROOT
ATOM      1  C   UNL     1       1.119   0.464  -1.425  0.00  0.00    +0.230 C 
ATOM      2  O   UNL     1       2.295   0.482  -1.128  0.00  0.00    -0.274 OA
ATOM      3  N   UNL     1       0.752   0.384  -2.719  0.00  0.00    -0.285 N 
ATOM      4  H   UNL     1      -0.186   0.441  -2.962  0.00  0.00    +0.155 HD
ENDROOT
BRANCH   3   5
ATOM      5  C   UNL     1       1.724   0.219  -3.715  0.00  0.00    +0.036 A 
ATOM      6  C   UNL     1       1.549   0.806  -4.961  0.00  0.00    +0.045 A 
ATOM      7  C   UNL     1       2.507   0.643  -5.942  0.00  0.00    +0.065 A 
ATOM      8  C   UNL     1       3.647  -0.108  -5.683  0.00  0.00    +0.062 A 
ATOM      9  C   UNL     1       3.822  -0.695  -4.436  0.00  0.00    +0.065 A 
ATOM     10  C   UNL     1       2.866  -0.527  -3.453  0.00  0.00    +0.045 A 
ATOM     11 CL   UNL     1       5.246  -1.634  -4.111  0.00  0.00    -0.082 Cl
ATOM     12 CL   UNL     1       2.287   1.377  -7.501  0.00  0.00    -0.082 Cl
BRANCH   8  13
ATOM     13  N   UNL     1       4.619  -0.274  -6.678  0.00  0.00    -0.356 N 
ATOM     14  H   UNL     1       4.496   0.136  -7.548  0.00  0.00    +0.142 HD
ATOM     15  H   UNL     1       5.414  -0.798  -6.496  0.00  0.00    +0.142 HD
ENDBRANCH   8  13
ENDBRANCH   3   5
BRANCH   1  17
ATOM     16  C   UNL     1      -0.466   1.961  -0.243  0.00  0.00    +0.029 C 
ATOM     17  C   UNL     1       0.069   0.531  -0.346  0.00  0.00    +0.134 C 
BRANCH  17  18
ATOM     18  S   UNL     1       0.799   0.042   1.240  0.00  0.00    -0.113 S 
BRANCH  18  19
ATOM     19  C   UNL     1       1.182  -1.664   1.026  0.00  0.00    +0.009 A 
ATOM     20  C   UNL     1       0.791  -2.324  -0.133  0.00  0.00    +0.016 A 
ATOM     21  C   UNL     1       1.091  -3.661  -0.300  0.00  0.00    +0.024 A 
ATOM     22  C   UNL     1       1.783  -4.347   0.690  0.00  0.00    +0.033 A 
ATOM     23  C   UNL     1       2.174  -3.688   1.848  0.00  0.00    +0.024 A 
ATOM     24  C   UNL     1       1.880  -2.349   2.014  0.00  0.00    +0.016 A 
BRANCH  22  25
ATOM     25  N   UNL     1       2.087  -5.704   0.519  0.00  0.00    -0.286 N 
ATOM     26  C   UNL     1       2.348  -6.187  -0.712  0.00  0.00    +0.214 C 
ATOM     27  O   UNL     1       2.410  -5.432  -1.659  0.00  0.00    -0.276 OA
ATOM     28  C   UNL     1       2.562  -7.665  -0.911  0.00  0.00    +0.109 C 
ATOM     29  H   UNL     1       2.110  -6.296   1.287  0.00  0.00    +0.155 HD
ENDBRANCH  22  25
ENDBRANCH  18  19
ENDBRANCH  17  18
ENDBRANCH   1  17
TORSDOF 6
