REMARK  Name = ZINC33063229
REMARK  6 active torsions:
REMARK  status: ('A' for Active; 'I' for Inactive)
REMARK    1  A    between atoms: C_1  and  C_2
REMARK    2  A    between atoms: C_2  and  C_4
REMARK    3  A    between atoms: C_2  and  C_27
REMARK    4  A    between atoms: C_4  and  N_5
REMARK    5  A    between atoms: C_6  and  C_8
REMARK    6  A    between atoms: C_11  and  C_14
REMARK                            x       y       z     vdW  Elec       q    Type
REMARK                         _______ _______ _______ _____ _____    ______ ____
ROOT
ATOM      1  C   UNL     1      -0.985  -2.256  -4.658  0.00  0.00    +0.037 A 
ATOM      2  C   UNL     1      -1.505  -1.113  -4.048  0.00  0.00    +0.013 A 
ATOM      3  C   UNL     1      -1.625  -1.060  -2.675  0.00  0.00    +0.007 A 
ATOM      4  C   UNL     1      -1.230  -2.138  -1.902  0.00  0.00    -0.011 A 
ATOM      5  C   UNL     1      -0.709  -3.272  -2.499  0.00  0.00    +0.007 A 
ATOM      6  C   UNL     1      -0.589  -3.339  -3.872  0.00  0.00    +0.013 A 
ENDROOT
BRANCH   4   7
ATOM      7  C   UNL     1      -1.362  -2.074  -0.402  0.00  0.00    +0.191 C 
ATOM      8  N   UNL     1      -1.207  -0.692   0.048  0.00  0.00    -0.322 N 
ATOM      9  C   UNL     1       0.002  -0.004   0.002  0.00  0.00    +0.055 A 
ATOM     10  C   UNL     1      -0.017   1.390   0.010  0.00  0.00    +0.025 A 
ATOM     11  C   UNL     1       1.165   2.100   0.002  0.00  0.00    +0.002 A 
ATOM     12  C   UNL     1       2.378   1.435  -0.014  0.00  0.00    +0.002 A 
ATOM     13  C   UNL     1       2.405   0.052  -0.029  0.00  0.00    +0.030 A 
ATOM     14  C   UNL     1       1.225  -0.661  -0.028  0.00  0.00    +0.126 A 
ATOM     15  S   UNL     1       1.263  -2.427  -0.085  0.00  0.00    +0.062 S 
ATOM     16  O   UNL     1       1.550  -2.794  -1.427  0.00  0.00    -0.153 OA
ATOM     17  O   UNL     1       2.050  -2.861   1.016  0.00  0.00    -0.153 OA
ATOM     18  N   UNL     1      -0.307  -2.897   0.224  0.00  0.00    -0.166 NA
ATOM     19  H   UNL     1      -2.073  -0.144   0.447  0.00  0.00    +0.148 HD
ATOM     20  H   UNL     1      -0.575  -3.653   0.977  0.00  0.00    +0.150 HD
ENDBRANCH   4   7
BRANCH   1  22
ATOM     21  N   UNL     1      -0.352  -3.424  -6.715  0.00  0.00    -0.311 N 
ATOM     22  C   UNL     1      -0.855  -2.318  -6.129  0.00  0.00    +0.244 C 
ATOM     23  O   UNL     1      -1.201  -1.373  -6.811  0.00  0.00    -0.270 OA
ATOM     24  H   UNL     1      -0.039  -4.279  -6.098  0.00  0.00    +0.149 HD
BRANCH  21  25
ATOM     25  C   UNL     1      -0.223  -3.486  -8.173  0.00  0.00    +0.112 C 
BRANCH  25  27
ATOM     26  C   UNL     1       1.797  -4.949  -8.037  0.00  0.00    +0.014 C 
ATOM     27  C   UNL     1       0.369  -4.838  -8.575  0.00  0.00    +0.033 C 
BRANCH  27  28
ATOM     28  C   UNL     1       0.388  -4.951 -10.077  0.00  0.00    -0.043 A 
ATOM     29  C   UNL     1       1.096  -4.033 -10.831  0.00  0.00    +0.004 A 
ATOM     30  C   UNL     1       1.117  -4.140 -12.209  0.00  0.00    +0.000 A 
ATOM     31  C   UNL     1       0.423  -5.158 -12.834  0.00  0.00    +0.000 A 
ATOM     32  C   UNL     1      -0.290  -6.073 -12.081  0.00  0.00    +0.000 A 
ATOM     33  C   UNL     1      -0.307  -5.969 -10.703  0.00  0.00    +0.004 A 
ENDBRANCH  27  28
ENDBRANCH  25  27
ENDBRANCH  21  25
ENDBRANCH   1  22
TORSDOF 5
