REMARK  Name = ZINC43743589
REMARK  11 active torsions:
REMARK  status: ('A' for Active; 'I' for Inactive)
REMARK    1  A    between atoms: C_1  and  C_2
REMARK    2  A    between atoms: C_2  and  C_11
REMARK    3  A    between atoms: N_3  and  N_4
REMARK    4  A    between atoms: N_4  and  C_5
REMARK    5  A    between atoms: C_11  and  O_40
REMARK    6  A    between atoms: C_12  and  O_36
REMARK    7  A    between atoms: C_17  and  C_35
REMARK    8  A    between atoms: C_27  and  C_34
REMARK    9  A    between atoms: C_30  and  O_33
REMARK   10  A    between atoms: O_36  and  C_37
REMARK   11  A    between atoms: C_37  and  C_39
REMARK                            x       y       z     vdW  Elec       q    Type
REMARK                         _______ _______ _______ _____ _____    ______ ____
ROOT
ATOM      1  C   UNL     1      -0.287  -0.590  -1.132  0.00  0.00    +0.147 C 
ATOM      2  C   UNL     1      -1.547  -0.153  -1.921  0.00  0.00    +0.214 C 
ATOM      3  C   UNL     1      -2.346  -1.450  -2.223  0.00  0.00    +0.052 C 
ATOM      4  C   UNL     1      -1.269  -2.538  -2.165  0.00  0.00    +0.005 C 
ATOM      5  C   UNL     1      -0.440  -2.094  -0.930  0.00  0.00    +0.009 C 
ATOM      6  C   UNL     1       0.839  -2.910  -0.935  0.00  0.00    +0.010 C 
ATOM      7  C   UNL     1       0.440  -4.378  -0.720  0.00  0.00    +0.005 C 
ATOM      8  C   UNL     1      -0.539  -4.861  -1.787  0.00  0.00    +0.003 C 
ATOM      9  C   UNL     1      -1.768  -3.949  -1.909  0.00  0.00    +0.001 C 
ATOM     10  C   UNL     1      -2.611  -4.417  -3.102  0.00  0.00    +0.031 C 
ATOM     11  C   UNL     1      -2.957  -5.866  -2.923  0.00  0.00    -0.027 C 
ATOM     12  C   UNL     1      -2.227  -6.690  -2.230  0.00  0.00    -0.065 C 
ATOM     13  C   UNL     1      -0.963  -6.289  -1.486  0.00  0.00    -0.008 C 
ATOM     14  C   UNL     1       0.158  -7.260  -1.868  0.00  0.00    +0.014 C 
ATOM     15  C   UNL     1      -0.291  -8.693  -1.576  0.00  0.00    +0.032 C 
ATOM     16  C   UNL     1      -1.503  -9.041  -2.442  0.00  0.00    +0.119 C 
ATOM     17  C   UNL     1      -2.676  -8.138  -2.128  0.00  0.00    +0.062 C 
ATOM     18  C   UNL     1      -1.187  -6.413   0.022  0.00  0.00    +0.016 C 
ATOM     19  C   UNL     1      -1.230  -2.368   0.351  0.00  0.00    +0.015 C 
ENDROOT
BRANCH   1  21
ATOM     20  C   UNL     1       1.096   0.403   0.846  0.00  0.00    +0.065 C 
ATOM     21  C   UNL     1      -0.234   0.113   0.199  0.00  0.00    +0.069 C 
ATOM     22  N   UNL     1      -1.319   0.465   0.781  0.00  0.00    -0.189 NA
BRANCH  22  23
ATOM     23  N   UNL     1      -1.276   1.026   2.064  0.00  0.00    -0.238 N 
ATOM     24  H   UNL     1      -0.421   1.214   2.483  0.00  0.00    +0.174 HD
BRANCH  23  25
ATOM     25  C   UNL     1      -2.462   1.312   2.741  0.00  0.00    +0.048 A 
ATOM     26  C   UNL     1      -3.687   1.105   2.118  0.00  0.00    +0.025 A 
ATOM     27  C   UNL     1      -4.859   1.390   2.791  0.00  0.00    +0.002 A 
ATOM     28  C   UNL     1      -4.815   1.881   4.083  0.00  0.00    +0.000 A 
ATOM     29  C   UNL     1      -3.598   2.088   4.706  0.00  0.00    +0.002 A 
ATOM     30  C   UNL     1      -2.422   1.800   4.042  0.00  0.00    +0.025 A 
ENDBRANCH  23  25
ENDBRANCH  22  23
ENDBRANCH   1  21
BRANCH  16  31
ATOM     31  O   UNL     1      -1.864 -10.407  -2.230  0.00  0.00    -0.391 OA
ATOM     32  H   UNL     1      -2.627 -10.697  -2.749  0.00  0.00    +0.210 HD
ENDBRANCH  16  31
BRANCH   1  33
ATOM     33  O   UNL     1       0.893  -0.309  -1.887  0.00  0.00    -0.378 OA
ATOM     34  H   UNL     1       1.033   0.631  -2.064  0.00  0.00    +0.211 HD
ENDBRANCH   1  33
BRANCH   2  35
ATOM     35  O   UNL     1      -2.336   0.738  -1.129  0.00  0.00    -0.458 OA
BRANCH  35  36
ATOM     36  C   UNL     1      -3.132   1.595  -1.787  0.00  0.00    +0.304 C 
ATOM     37  O   UNL     1      -3.232   1.525  -2.989  0.00  0.00    -0.251 OA
ATOM     38  C   UNL     1      -3.901   2.644  -1.026  0.00  0.00    +0.136 C 
ENDBRANCH  35  36
ENDBRANCH   2  35
TORSDOF 7
