REMARK  Name = ZINC14041893
REMARK  11 active torsions:
REMARK  status: ('A' for Active; 'I' for Inactive)
REMARK    1  A    between atoms: C_4  and  C_7
REMARK    2  A    between atoms: C_7  and  C_8
REMARK    3  A    between atoms: C_8  and  O_9
REMARK    4  A    between atoms: O_9  and  C_10
REMARK    5  A    between atoms: C_13  and  C_16
REMARK    6  A    between atoms: N_18  and  C_19
REMARK    7  A    between atoms: C_19  and  N_21
REMARK    8  A    between atoms: N_21  and  N_22
REMARK    9  A    between atoms: C_23  and  C_25
REMARK   10  A    between atoms: C_28  and  N_31
REMARK   11  A    between atoms: C_32  and  C_34
REMARK                            x       y       z     vdW  Elec       q    Type
REMARK                         _______ _______ _______ _____ _____    ______ ____
ROOT
ATOM      1  C   UNL     1       2.350   1.235  -0.043  0.00  0.00    +0.153 C 
ATOM      2  S   UNL     1       2.379  -0.476  -0.061  0.00  0.00    -0.017 S 
ENDROOT
BRANCH   1   5
ATOM      3  C   UNL     1       0.016   1.195  -0.006  0.00  0.00    +0.250 C 
ATOM      4  O   UNL     1       0.037  -0.020  -0.019  0.00  0.00    -0.270 OA
ATOM      5  N   UNL     1       1.171   1.889  -0.017  0.00  0.00    -0.263 N 
ATOM      6  H   UNL     1       1.155   2.859  -0.007  0.00  0.00    +0.157 HD
BRANCH   3  10
ATOM      7  C   UNL     1      -3.697   3.254   0.056  0.00  0.00    +0.121 A 
ATOM      8  C   UNL     1      -3.675   1.865   0.042  0.00  0.00    +0.046 A 
ATOM      9  C   UNL     1      -2.474   1.193   0.021  0.00  0.00    +0.016 A 
ATOM     10  C   UNL     1      -1.274   1.911   0.016  0.00  0.00    +0.037 A 
ATOM     11  C   UNL     1      -1.300   3.308   0.036  0.00  0.00    +0.016 A 
ATOM     12  C   UNL     1      -2.506   3.972   0.050  0.00  0.00    +0.046 A 
BRANCH   7  13
ATOM     13  O   UNL     1      -4.883   3.913   0.075  0.00  0.00    -0.492 OA
BRANCH  13  14
ATOM     14  C   UNL     1      -4.833   5.341   0.089  0.00  0.00    +0.233 C 
BRANCH  14  15
ATOM     15  C   UNL     1      -6.257   5.901   0.110  0.00  0.00    +0.076 C 
BRANCH  15  19
ATOM     16  C   UNL     1      -6.106  10.170   0.152  0.00  0.00    +0.000 A 
ATOM     17  C   UNL     1      -6.144   9.491  -1.052  0.00  0.00    +0.000 A 
ATOM     18  C   UNL     1      -6.192   8.110  -1.065  0.00  0.00    +0.004 A 
ATOM     19  C   UNL     1      -6.204   7.407   0.125  0.00  0.00    -0.044 A 
ATOM     20  C   UNL     1      -6.172   8.086   1.329  0.00  0.00    +0.004 A 
ATOM     21  C   UNL     1      -6.118   9.467   1.342  0.00  0.00    +0.000 A 
ENDBRANCH  15  19
ENDBRANCH  14  15
ENDBRANCH  13  14
ENDBRANCH   7  13
ENDBRANCH   3  10
ENDBRANCH   1   5
BRANCH   1  22
ATOM     22  N   UNL     1       3.505   1.929  -0.053  0.00  0.00    -0.245 N 
ATOM     23  H   UNL     1       4.353   1.459  -0.072  0.00  0.00    +0.172 HD
BRANCH  22  24
ATOM     24  N   UNL     1       3.481   3.330  -0.039  0.00  0.00    -0.231 N 
ATOM     25  C   UNL     1       4.636   4.024  -0.050  0.00  0.00    +0.260 C 
ATOM     26  O   UNL     1       5.699   3.434  -0.072  0.00  0.00    -0.269 OA
ATOM     27  H   UNL     1       2.633   3.800  -0.020  0.00  0.00    +0.173 HD
BRANCH  25  28
ATOM     28  C   UNL     1       4.611   5.500  -0.034  0.00  0.00    +0.038 A 
ATOM     29  C   UNL     1       3.390   6.179  -0.013  0.00  0.00    +0.015 A 
ATOM     30  C   UNL     1       3.370   7.555   0.007  0.00  0.00    +0.024 A 
ATOM     31  C   UNL     1       4.564   8.270  -0.005  0.00  0.00    +0.033 A 
ATOM     32  C   UNL     1       5.781   7.597  -0.030  0.00  0.00    +0.024 A 
ATOM     33  C   UNL     1       5.808   6.221  -0.045  0.00  0.00    +0.015 A 
BRANCH  31  34
ATOM     34  N   UNL     1       4.540   9.664   0.010  0.00  0.00    -0.285 N 
ATOM     35  C   UNL     1       5.493  10.348   0.674  0.00  0.00    +0.220 C 
ATOM     36  O   UNL     1       6.417   9.755   1.188  0.00  0.00    -0.275 OA
ATOM     37  H   UNL     1       3.837  10.142  -0.458  0.00  0.00    +0.155 HD
BRANCH  35  38
ATOM     38  C   UNL     1       5.410  11.849   0.777  0.00  0.00    +0.075 C 
ATOM     39  C   UNL     1       6.457  12.668   0.018  0.00  0.00    +0.013 C 
ATOM     40  C   UNL     1       6.523  12.567   1.544  0.00  0.00    +0.013 C 
ENDBRANCH  35  38
ENDBRANCH  31  34
ENDBRANCH  25  28
ENDBRANCH  22  24
ENDBRANCH   1  22
TORSDOF 11
