REMARK  Name = ZINC67570873
REMARK  4 active torsions:
REMARK  status: ('A' for Active; 'I' for Inactive)
REMARK    1  A    between atoms: C_1  and  C_2
REMARK    2  A    between atoms: N_10  and  N_14
REMARK    3  A    between atoms: C_15  and  C_17
REMARK    4  A    between atoms: C_20  and  C_22
REMARK                            x       y       z     vdW  Elec       q    Type
REMARK                         _______ _______ _______ _____ _____    ______ ____
ROOT
ATOM      1  C   UNL     1      -0.019   1.526   0.010  0.00  0.00    +0.007 C 
ATOM      2  C   UNL     1       0.002  -0.004   0.002  0.00  0.00    -0.014 C 
ATOM      3  C   UNL     1      -1.433  -0.534   0.012  0.00  0.00    +0.006 C 
ATOM      4  C   UNL     1      -1.411  -2.064  -0.009  0.00  0.00    +0.035 C 
ATOM      5  C   UNL     1      -0.653  -2.581   1.208  0.00  0.00    +0.114 C 
ATOM      6  C   UNL     1       0.773  -2.041   1.226  0.00  0.00    +0.035 C 
ATOM      7  C   UNL     1       0.742  -0.511   1.242  0.00  0.00    +0.006 C 
ATOM      8  C   UNL     1      -1.376  -2.204   2.481  0.00  0.00    +0.263 C 
ATOM      9  O   UNL     1      -1.616  -1.086   2.885  0.00  0.00    -0.271 OA
ATOM     10  N   UNL     1      -1.698  -3.373   3.073  0.00  0.00    -0.137 N 
ATOM     11  C   UNL     1      -1.280  -4.421   2.353  0.00  0.00    +0.326 C 
ATOM     12  O   UNL     1      -1.454  -5.578   2.681  0.00  0.00    -0.251 OA
ATOM     13  N   UNL     1      -0.646  -4.050   1.224  0.00  0.00    -0.284 N 
ATOM     14  H   UNL     1      -0.262  -4.636   0.554  0.00  0.00    +0.151 HD
ENDROOT
BRANCH  10  15
ATOM     15  N   UNL     1      -2.384  -3.476   4.290  0.00  0.00    -0.223 N 
ATOM     16  C   UNL     1      -3.682  -3.837   4.303  0.00  0.00    +0.233 C 
ATOM     17  O   UNL     1      -4.257  -4.072   3.261  0.00  0.00    -0.274 OA
ATOM     18  H   UNL     1      -1.924  -3.288   5.123  0.00  0.00    +0.174 HD
BRANCH  16  19
ATOM     19  C   UNL     1      -4.420  -3.948   5.612  0.00  0.00    +0.084 C 
ATOM     20  C   UNL     1      -5.513  -2.916   5.897  0.00  0.00    +0.022 C 
ATOM     21  C   UNL     1      -5.893  -4.360   5.561  0.00  0.00    +0.032 C 
BRANCH  21  22
ATOM     22  C   UNL     1      -6.494  -4.624   4.204  0.00  0.00    -0.041 A 
ATOM     23  C   UNL     1      -6.516  -3.622   3.252  0.00  0.00    +0.004 A 
ATOM     24  C   UNL     1      -7.068  -3.862   2.007  0.00  0.00    +0.003 A 
ATOM     25  C   UNL     1      -7.598  -5.104   1.714  0.00  0.00    +0.038 A 
ATOM     26  C   UNL     1      -7.577  -6.108   2.667  0.00  0.00    +0.124 A 
ATOM     27  C   UNL     1      -7.019  -5.868   3.911  0.00  0.00    +0.042 A 
ATOM     28  F   UNL     1      -8.096  -7.322   2.381  0.00  0.00    -0.205 F 
ENDBRANCH  21  22
ENDBRANCH  16  19
ENDBRANCH  10  15
TORSDOF 3
