REMARK  Name = ZINC10150105
REMARK  12 active torsions:
REMARK  status: ('A' for Active; 'I' for Inactive)
REMARK    1  A    between atoms: C_1  and  C_2
REMARK    2  A    between atoms: C_2  and  C_3
REMARK    3  A    between atoms: C_4  and  C_27
REMARK    4  A    between atoms: C_6  and  N_11
REMARK    5  A    between atoms: C_7  and  C_8
REMARK    6  A    between atoms: N_11  and  C_12
REMARK    7  A    between atoms: C_12  and  N_14
REMARK    8  A    between atoms: C_15  and  C_17
REMARK    9  A    between atoms: C_21  and  O_23
REMARK   10  A    between atoms: O_23  and  C_24
REMARK   11  A    between atoms: C_24  and  C_25
REMARK   12  A    between atoms: C_24  and  C_26
REMARK                            x       y       z     vdW  Elec       q    Type
REMARK                         _______ _______ _______ _____ _____    ______ ____
ROOT
ATOM      1  C   UNL     1       1.115   7.304   0.701  0.00  0.00    +0.141 C 
ATOM      2  S   UNL     1      -0.342   8.168   0.457  0.00  0.00    -0.018 S 
ENDROOT
BRANCH   1   3
ATOM      3  N   UNL     1       1.111   5.957   0.686  0.00  0.00    -0.264 N 
ATOM      4  C   UNL     1      -0.042   5.289   0.480  0.00  0.00    +0.250 C 
ATOM      5  O   UNL     1      -1.076   5.902   0.307  0.00  0.00    -0.270 OA
ATOM      6  H   UNL     1       1.937   5.467   0.824  0.00  0.00    +0.157 HD
BRANCH   4   7
ATOM      7  C   UNL     1      -0.046   3.811   0.464  0.00  0.00    +0.041 A 
ATOM      8  C   UNL     1       1.141   3.104   0.662  0.00  0.00    +0.013 A 
ATOM      9  C   UNL     1       1.133   1.725   0.647  0.00  0.00    +0.004 A 
ATOM     10  C   UNL     1      -0.049   1.038   0.436  0.00  0.00    +0.046 A 
ATOM     11  C   UNL     1      -1.234   1.732   0.232  0.00  0.00    +0.122 A 
ATOM     12  C   UNL     1      -1.238   3.117   0.251  0.00  0.00    +0.058 A 
BRANCH  11  13
ATOM     13  O   UNL     1      -2.392   1.053   0.019  0.00  0.00    -0.489 OA
BRANCH  13  14
ATOM     14  C   UNL     1      -2.297  -0.368  -0.099  0.00  0.00    +0.167 C 
ATOM     15  C   UNL     1      -2.317  -0.999   1.295  0.00  0.00    +0.051 C 
ATOM     16  C   UNL     1      -3.482  -0.892  -0.913  0.00  0.00    +0.051 C 
ENDBRANCH  13  14
ENDBRANCH  11  13
ENDBRANCH   4   7
ENDBRANCH   1   3
BRANCH   1  17
ATOM     17  N   UNL     1       2.268   7.972   0.907  0.00  0.00    -0.291 N 
ATOM     18  H   UNL     1       3.094   7.483   1.045  0.00  0.00    +0.154 HD
BRANCH  17  22
ATOM     19  C   UNL     1       3.066  11.631   1.081  0.00  0.00    -0.024 A 
ATOM     20  C   UNL     1       1.790  11.996   0.863  0.00  0.00    -0.008 A 
ATOM     21  S   UNL     1       0.941  10.440   0.694  0.00  0.00    -0.078 S 
ATOM     22  C   UNL     1       2.273   9.357   0.922  0.00  0.00    +0.084 A 
ATOM     23  C   UNL     1       3.349  10.215   1.117  0.00  0.00    +0.068 A 
ATOM     24  C   UNL     1       1.218  13.388   0.777  0.00  0.00    +0.052 C 
BRANCH  23  25
ATOM     25  C   UNL     1       4.705   9.708   1.348  0.00  0.00    +0.244 C 
ATOM     26  O   UNL     1       5.448   9.508   0.405  0.00  0.00    -0.270 OA
ATOM     27  N   UNL     1       5.128   9.464   2.604  0.00  0.00    -0.325 N 
ATOM     28  H   UNL     1       4.535   9.624   3.355  0.00  0.00    +0.145 HD
ATOM     29  H   UNL     1       6.025   9.128   2.757  0.00  0.00    +0.145 HD
ENDBRANCH  23  25
BRANCH  19  31
ATOM     30  C   UNL     1       4.769  13.015  -0.073  0.00  0.00    +0.009 C 
ATOM     31  C   UNL     1       4.153  12.655   1.280  0.00  0.00    +0.033 C 
ENDBRANCH  19  31
ENDBRANCH  17  22
ENDBRANCH   1  17
TORSDOF 8
