REMARK  Name = ZINC39948774
REMARK  11 active torsions:
REMARK  status: ('A' for Active; 'I' for Inactive)
REMARK    1  A    between atoms: C_1  and  C_2
REMARK    2  A    between atoms: C_2  and  N_3
REMARK    3  A    between atoms: N_3  and  C_4
REMARK    4  A    between atoms: N_3  and  C_6
REMARK    5  A    between atoms: C_4  and  C_5
REMARK    6  A    between atoms: C_9  and  C_12
REMARK    7  A    between atoms: N_13  and  N_14
REMARK    8  A    between atoms: C_15  and  C_17
REMARK    9  A    between atoms: C_18  and  C_28
REMARK   10  A    between atoms: C_28  and  N_29
REMARK   11  A    between atoms: C_34  and  C_36
REMARK                            x       y       z     vdW  Elec       q    Type
REMARK                         _______ _______ _______ _____ _____    ______ ____
ROOT
ATOM      1  C   UNL     1       1.871  -2.458  -8.133  0.00  0.00    +0.170 A 
ATOM      2  C   UNL     1       2.653  -2.708  -9.225  0.00  0.00    +0.063 A 
ATOM      3  N   UNL     1       3.917  -2.860  -8.773  0.00  0.00    -0.194 N 
ATOM      4  N   UNL     1       3.872  -2.694  -7.381  0.00  0.00    -0.058 NA
ATOM      5  N   UNL     1       2.654  -2.453  -7.040  0.00  0.00    -0.124 NA
ATOM      6  C   UNL     1       5.053  -3.131  -9.544  0.00  0.00    +0.240 A 
ATOM      7  C   UNL     1       6.417  -3.298  -9.033  0.00  0.00    +0.206 A 
ATOM      8  N   UNL     1       7.207  -3.539 -10.044  0.00  0.00    -0.032 NA
ATOM      9  O   UNL     1       6.417  -3.539 -11.220  0.00  0.00    -0.239 OA
ATOM     10  N   UNL     1       5.078  -3.283 -10.838  0.00  0.00    -0.027 NA
ATOM     11  N   UNL     1       6.803  -3.214  -7.700  0.00  0.00    -0.337 N 
ATOM     12  H   UNL     1       6.142  -3.030  -7.015  0.00  0.00    +0.144 HD
ATOM     13  H   UNL     1       7.734  -3.339  -7.456  0.00  0.00    +0.144 HD
ENDROOT
BRANCH   1  15
ATOM     14  N   UNL     1      -0.244  -1.982  -7.001  0.00  0.00    -0.202 N 
ATOM     15  C   UNL     1       0.414  -2.226  -8.152  0.00  0.00    +0.285 C 
ATOM     16  O   UNL     1      -0.193  -2.254  -9.205  0.00  0.00    -0.267 OA
ATOM     17  H   UNL     1       0.241  -1.960  -6.161  0.00  0.00    +0.178 HD
BRANCH  14  19
ATOM     18  C   UNL     1      -2.241  -1.403  -5.932  0.00  0.00    +0.138 C 
ATOM     19  N   UNL     1      -1.627  -1.762  -7.018  0.00  0.00    -0.187 NA
BRANCH  18  23
ATOM     20  C   UNL     1      -0.122   0.641  -2.873  0.00  0.00    +0.030 A 
ATOM     21  C   UNL     1       0.431   0.529  -4.144  0.00  0.00    +0.024 A 
ATOM     22  C   UNL     1      -0.253  -0.134  -5.139  0.00  0.00    +0.011 A 
ATOM     23  C   UNL     1      -1.505  -0.694  -4.870  0.00  0.00    -0.005 A 
ATOM     24  C   UNL     1      -2.058  -0.579  -3.591  0.00  0.00    +0.011 A 
ATOM     25  C   UNL     1      -1.365   0.081  -2.600  0.00  0.00    +0.024 A 
BRANCH  20  26
ATOM     26  N   UNL     1       0.574   1.313  -1.868  0.00  0.00    -0.330 N 
BRANCH  26  28
ATOM     27  C   UNL     1       2.980   0.876  -1.871  0.00  0.00    +0.024 C 
ATOM     28  C   UNL     1       1.883   1.905  -2.154  0.00  0.00    +0.102 C 
ENDBRANCH  26  28
BRANCH  26  29
ATOM     29  C   UNL     1      -0.005   1.428  -0.527  0.00  0.00    +0.102 C 
ATOM     30  C   UNL     1      -0.847   2.703  -0.443  0.00  0.00    +0.024 C 
ENDBRANCH  26  29
ENDBRANCH  20  26
ENDBRANCH  18  23
ENDBRANCH  14  19
ENDBRANCH   1  15
BRANCH   2  31
ATOM     31  C   UNL     1       2.194  -2.799 -10.658  0.00  0.00    -0.019 C 
BRANCH  31  32
ATOM     32  N   UNL     1       1.826  -4.187 -10.967  0.00  0.00    +0.385 N 
ATOM     33  C   UNL     1       0.668  -4.578 -10.155  0.00  0.00    -0.078 C 
ATOM     34  C   UNL     1       0.331  -6.048 -10.414  0.00  0.00    -0.019 C 
ATOM     35  C   UNL     1       0.002  -6.237 -11.897  0.00  0.00    -0.003 C 
ATOM     36  C   UNL     1       1.189  -5.756 -12.738  0.00  0.00    -0.016 C 
ATOM     37  C   UNL     1       1.494  -4.297 -12.393  0.00  0.00    -0.071 C 
ATOM     38  C   UNL     1       2.679  -3.813 -13.231  0.00  0.00    -0.013 C 
ATOM     39  H   UNL     1       2.603  -4.795 -10.756  0.00  0.00    -0.081 HD
ENDBRANCH  31  32
ENDBRANCH   2  31
TORSDOF 8
