REMARK  Name = ZINC44244496
REMARK  3 active torsions:
REMARK  status: ('A' for Active; 'I' for Inactive)
REMARK    1  A    between atoms: C_4  and  N_8
REMARK    2  A    between atoms: N_8  and  S_9
REMARK    3  A    between atoms: S_9  and  C_12
REMARK                            x       y       z     vdW  Elec       q    Type
REMARK                         _______ _______ _______ _____ _____    ______ ____
ROOT
ATOM      1  S   UNL     1       3.651  -2.302   0.079  0.00  0.00    +0.093 S 
ATOM      2  O   UNL     1       3.065  -2.631   1.330  0.00  0.00    -0.148 OA
ATOM      3  O   UNL     1       3.151  -2.804  -1.153  0.00  0.00    -0.148 OA
ENDROOT
BRANCH   1   4
ATOM      4  C   UNL     1       5.342  -2.788   0.171  0.00  0.00    +0.129 A 
ATOM      5  C   UNL     1       6.059  -3.059  -0.985  0.00  0.00    +0.047 A 
ATOM      6  C   UNL     1       7.387  -3.439  -0.864  0.00  0.00    +0.038 A 
ATOM      7  C   UNL     1       7.949  -3.534   0.397  0.00  0.00    +0.126 A 
ATOM      8  N   UNL     1       7.236  -3.268   1.474  0.00  0.00    -0.260 NA
ATOM      9  C   UNL     1       5.972  -2.899   1.396  0.00  0.00    +0.139 A 
ATOM     10 BR   UNL     1       8.418  -3.823  -2.402  0.00  0.00    -0.049 Br
ENDBRANCH   1   4
BRANCH   1  11
ATOM     11  N   UNL     1       3.622  -0.650  -0.037  0.00  0.00    -0.095 NA
BRANCH  11  15
ATOM     12  C   UNL     1       0.034   1.411   0.447  0.00  0.00    +0.003 A 
ATOM     13  C   UNL     1       1.067   1.605   1.345  0.00  0.00    +0.022 A 
ATOM     14  C   UNL     1       2.259   0.923   1.188  0.00  0.00    +0.067 A 
ATOM     15  C   UNL     1       2.418   0.041   0.125  0.00  0.00    +0.111 A 
ATOM     16  C   UNL     1       1.377  -0.151  -0.775  0.00  0.00    +0.067 A 
ATOM     17  C   UNL     1       0.189   0.535  -0.612  0.00  0.00    +0.022 A 
ATOM     18 CL   UNL     1       1.571  -1.251  -2.105  0.00  0.00    -0.081 Cl
ATOM     19 CL   UNL     1       3.556   1.167   2.316  0.00  0.00    -0.081 Cl
ENDBRANCH  11  15
ENDBRANCH   1  11
TORSDOF 3
