REMARK  Name = ZINC52509463
REMARK  11 active torsions:
REMARK  status: ('A' for Active; 'I' for Inactive)
REMARK    1  A    between atoms: C_1  and  C_2
REMARK    2  A    between atoms: C_2  and  C_3
REMARK    3  A    between atoms: C_2  and  C_4
REMARK    4  A    between atoms: C_2  and  C_5
REMARK    5  A    between atoms: C_7  and  C_27
REMARK    6  A    between atoms: C_8  and  O_26
REMARK    7  A    between atoms: C_10  and  N_11
REMARK    8  A    between atoms: C_12  and  C_14
REMARK    9  A    between atoms: C_27  and  C_28
REMARK   10  A    between atoms: C_27  and  C_29
REMARK   11  A    between atoms: C_27  and  C_30
REMARK                            x       y       z     vdW  Elec       q    Type
REMARK                         _______ _______ _______ _____ _____    ______ ____
ROOT
ATOM      1  C   UNL     1       0.502  -0.532  -1.425  0.00  0.00    -0.020 A 
ATOM      2  C   UNL     1       1.120   0.373  -2.266  0.00  0.00    +0.013 A 
ATOM      3  C   UNL     1       2.104  -0.052  -3.139  0.00  0.00    -0.000 A 
ATOM      4  C   UNL     1       2.473  -1.389  -3.173  0.00  0.00    +0.122 A 
ATOM      5  C   UNL     1       1.855  -2.300  -2.332  0.00  0.00    +0.069 A 
ATOM      6  C   UNL     1       0.871  -1.871  -1.451  0.00  0.00    +0.041 A 
ENDROOT
BRANCH   1   8
ATOM      7  C   UNL     1      -0.911   1.397  -0.768  0.00  0.00    +0.015 C 
ATOM      8  C   UNL     1      -0.571  -0.066  -0.475  0.00  0.00    -0.011 C 
ATOM      9  C   UNL     1      -0.067  -0.193   0.964  0.00  0.00    +0.015 C 
ATOM     10  C   UNL     1      -1.822  -0.926  -0.656  0.00  0.00    +0.015 C 
ENDBRANCH   1   8
BRANCH   6  11
ATOM     11  N   UNL     1       0.249  -2.786  -0.596  0.00  0.00    -0.281 N 
ATOM     12  C   UNL     1       0.193  -4.090  -0.931  0.00  0.00    +0.253 C 
ATOM     13  O   UNL     1       0.735  -4.481  -1.947  0.00  0.00    -0.270 OA
ATOM     14  H   UNL     1      -0.142  -2.482   0.238  0.00  0.00    +0.155 HD
BRANCH  12  15
ATOM     15  C   UNL     1      -0.525  -5.041  -0.068  0.00  0.00    +0.100 A 
ATOM     16  C   UNL     1      -0.468  -6.396  -0.317  0.00  0.00    +0.100 A 
ATOM     17  N   UNL     1      -1.108  -7.291   0.447  0.00  0.00    -0.360 N 
ATOM     18  H   UNL     1      -1.032  -8.232   0.224  0.00  0.00    +0.165 HD
ATOM     19  C   UNL     1      -1.871  -6.931   1.537  0.00  0.00    +0.050 A 
ATOM     20  C   UNL     1      -2.516  -7.902   2.300  0.00  0.00    +0.026 A 
ATOM     21  C   UNL     1      -3.275  -7.530   3.388  0.00  0.00    +0.002 A 
ATOM     22  C   UNL     1      -3.406  -6.193   3.737  0.00  0.00    +0.001 A 
ATOM     23  C   UNL     1      -2.777  -5.217   2.997  0.00  0.00    +0.014 A 
ATOM     24  C   UNL     1      -2.005  -5.579   1.893  0.00  0.00    +0.046 A 
ATOM     25  C   UNL     1      -1.311  -4.562   1.081  0.00  0.00    +0.201 A 
ATOM     26  O   UNL     1      -1.389  -3.375   1.347  0.00  0.00    -0.286 OA
ENDBRANCH  12  15
ENDBRANCH   6  11
BRANCH   3  27
ATOM     27  C   UNL     1       2.776   0.938  -4.055  0.00  0.00    -0.009 C 
ATOM     28  C   UNL     1       2.189   2.331  -3.819  0.00  0.00    +0.015 C 
ATOM     29  C   UNL     1       4.278   0.962  -3.766  0.00  0.00    +0.015 C 
ATOM     30  C   UNL     1       2.543   0.527  -5.510  0.00  0.00    +0.015 C 
ENDBRANCH   3  27
BRANCH   4  31
ATOM     31  O   UNL     1       3.441  -1.806  -4.033  0.00  0.00    -0.506 OA
ATOM     32  H   UNL     1       4.334  -1.772  -3.665  0.00  0.00    +0.292 HD
ENDBRANCH   4  31
TORSDOF 5
