REMARK  Name = ZINC00834483
REMARK  12 active torsions:
REMARK  status: ('A' for Active; 'I' for Inactive)
REMARK    1  A    between atoms: C_1  and  C_2
REMARK    2  A    between atoms: C_2  and  C_3
REMARK    3  A    between atoms: C_2  and  C_4
REMARK    4  A    between atoms: C_2  and  C_5
REMARK    5  A    between atoms: C_10  and  C_17
REMARK    6  A    between atoms: C_12  and  S_13
REMARK    7  A    between atoms: S_13  and  N_16
REMARK    8  A    between atoms: C_17  and  C_18
REMARK    9  A    between atoms: C_17  and  C_19
REMARK   10  A    between atoms: C_17  and  C_20
REMARK   11  A    between atoms: C_21  and  S_23
REMARK   12  A    between atoms: S_23  and  N_26
REMARK                            x       y       z     vdW  Elec       q    Type
REMARK                         _______ _______ _______ _____ _____    ______ ____
ROOT
ATOM      1  C   UNL     1      -2.242  -1.046  -3.261  0.00  0.00    -0.039 A 
ATOM      2  C   UNL     1      -2.055  -0.203  -2.209  0.00  0.00    +0.014 A 
ATOM      3  C   UNL     1      -2.896  -0.293  -1.087  0.00  0.00    +0.011 A 
ATOM      4  C   UNL     1      -3.928  -1.264  -1.069  0.00  0.00    +0.011 A 
ATOM      5  C   UNL     1      -4.769  -1.355   0.053  0.00  0.00    +0.014 A 
ATOM      6  C   UNL     1      -4.582  -0.511   1.105  0.00  0.00    -0.039 A 
ATOM      7  C   UNL     1      -3.562   0.439   1.090  0.00  0.00    +0.033 A 
ATOM      8  C   UNL     1      -2.733   0.560   0.018  0.00  0.00    +0.113 A 
ATOM      9  C   UNL     1      -4.091  -2.117  -2.174  0.00  0.00    +0.113 A 
ATOM     10  C   UNL     1      -3.258  -2.000  -3.243  0.00  0.00    +0.033 A 
ENDROOT
BRANCH   1  12
ATOM     11  C   UNL     1       0.109  -1.195  -4.034  0.00  0.00    +0.015 C 
ATOM     12  C   UNL     1      -1.338  -0.946  -4.463  0.00  0.00    -0.013 C 
ATOM     13  C   UNL     1      -1.750  -1.993  -5.499  0.00  0.00    +0.015 C 
ATOM     14  C   UNL     1      -1.456   0.451  -5.074  0.00  0.00    +0.015 C 
ENDBRANCH   1  12
BRANCH   6  15
ATOM     15  C   UNL     1      -5.486  -0.611   2.307  0.00  0.00    -0.013 C 
ATOM     16  C   UNL     1      -5.368  -2.009   2.919  0.00  0.00    +0.015 C 
ATOM     17  C   UNL     1      -5.074   0.436   3.343  0.00  0.00    +0.015 C 
ATOM     18  C   UNL     1      -6.933  -0.362   1.878  0.00  0.00    +0.015 C 
ENDBRANCH   6  15
BRANCH   8  19
ATOM     19  S   UNL     1      -1.456   1.774   0.019  0.00  0.00    +0.057 S 
ATOM     20  O   UNL     1      -1.536   2.446   1.268  0.00  0.00    -0.153 OA
ATOM     21  O   UNL     1      -1.548   2.460  -1.223  0.00  0.00    -0.153 OA
BRANCH  19  22
ATOM     22  N   UNL     1      -0.011   0.966   0.007  0.00  0.00    -0.203 NA
ATOM     23  H   UNL     1       0.002  -0.004   0.002  0.00  0.00    +0.144 HD
ATOM     24  H   UNL     1       0.822   1.462   0.002  0.00  0.00    +0.144 HD
ENDBRANCH  19  22
ENDBRANCH   8  19
BRANCH   9  25
ATOM     25  S   UNL     1      -5.368  -3.331  -2.175  0.00  0.00    +0.057 S 
ATOM     26  O   UNL     1      -6.562  -2.665  -1.787  0.00  0.00    -0.153 OA
ATOM     27  O   UNL     1      -5.255  -4.039  -3.401  0.00  0.00    -0.153 OA
BRANCH  25  28
ATOM     28  N   UNL     1      -5.017  -4.412  -0.970  0.00  0.00    -0.203 NA
ATOM     29  H   UNL     1      -4.222  -4.292  -0.428  0.00  0.00    +0.144 HD
ATOM     30  H   UNL     1      -5.607  -5.165  -0.807  0.00  0.00    +0.144 HD
ENDBRANCH  25  28
ENDBRANCH   9  25
TORSDOF 6
