REMARK  Name = ZINC01641531
REMARK  2 active torsions:
REMARK  status: ('A' for Active; 'I' for Inactive)
REMARK    1  A    between atoms: C_6  and  N_7
REMARK    2  A    between atoms: C_15  and  N_16
REMARK                            x       y       z     vdW  Elec       q    Type
REMARK                         _______ _______ _______ _____ _____    ______ ____
ROOT
ATOM      1  N   UNL     1      -2.429   1.038   0.019  0.00  0.00    -0.283 N 
ATOM      2  C   UNL     1      -2.770   0.025  -0.833  0.00  0.00    +0.206 A 
ATOM      3  N   UNL     1      -3.960  -0.415  -0.545  0.00  0.00    -0.230 NA
ATOM      4  C   UNL     1      -4.463   0.290   0.498  0.00  0.00    +0.148 A 
ATOM      5  C   UNL     1      -3.489   1.230   0.873  0.00  0.00    +0.172 A 
ATOM      6  N   UNL     1      -3.738   2.054   1.885  0.00  0.00    -0.195 NA
ATOM      7  C   UNL     1      -4.890   1.993   2.534  0.00  0.00    +0.216 A 
ATOM      8  N   UNL     1      -5.838   1.122   2.215  0.00  0.00    -0.198 NA
ATOM      9  C   UNL     1      -5.671   0.261   1.216  0.00  0.00    +0.149 A 
ATOM     10  N   UNL     1      -5.113   2.869   3.584  0.00  0.00    -0.327 N 
ATOM     11  H   UNL     1      -5.951   2.838   4.072  0.00  0.00    +0.145 HD
ATOM     12  H   UNL     1      -4.431   3.513   3.832  0.00  0.00    +0.145 HD
ENDROOT
BRANCH   1  18
ATOM     13  C   UNL     1      -0.013   1.076   0.008  0.00  0.00    +0.027 A 
ATOM     14  C   UNL     1       1.174   1.783   0.000  0.00  0.00    +0.022 A 
ATOM     15  C   UNL     1       1.155   3.167   0.008  0.00  0.00    +0.041 A 
ATOM     16  C   UNL     1      -0.051   3.845   0.023  0.00  0.00    +0.022 A 
ATOM     17  C   UNL     1      -1.239   3.142   0.031  0.00  0.00    +0.027 A 
ATOM     18  C   UNL     1      -1.224   1.754   0.017  0.00  0.00    +0.050 A 
ATOM     19 CL   UNL     1       2.648   4.053  -0.003  0.00  0.00    -0.084 Cl
ENDBRANCH   1  18
BRANCH   9  20
ATOM     20  N   UNL     1      -6.666  -0.644   0.890  0.00  0.00    -0.341 N 
ATOM     21  H   UNL     1      -6.957  -0.492  -0.054  0.00  0.00    +0.144 HD
ATOM     22  H   UNL     1      -7.495  -0.654   1.392  0.00  0.00    +0.144 HD
ENDBRANCH   9  20
TORSDOF 2
