REMARK  Name = ZINC20682267
REMARK  8 active torsions:
REMARK  status: ('A' for Active; 'I' for Inactive)
REMARK    1  A    between atoms: C_1  and  C_2
REMARK    2  A    between atoms: C_2  and  C_3
REMARK    3  A    between atoms: C_3  and  C_5
REMARK    4  A    between atoms: C_3  and  N_6
REMARK    5  A    between atoms: C_7  and  C_9
REMARK    6  A    between atoms: C_16  and  C_25
REMARK    7  A    between atoms: C_28  and  O_32
REMARK    8  A    between atoms: C_30  and  O_31
REMARK                            x       y       z     vdW  Elec       q    Type
REMARK                         _______ _______ _______ _____ _____    ______ ____
ROOT
ATOM      1  C   UNL     1      -3.392   0.860   3.248  0.00  0.00    +0.058 A 
ATOM      2  C   UNL     1      -4.177  -0.144   2.681  0.00  0.00    +0.015 A 
ATOM      3  C   UNL     1      -3.980  -0.502   1.365  0.00  0.00    +0.001 A 
ATOM      4  C   UNL     1      -3.010   0.130   0.610  0.00  0.00    +0.006 A 
ATOM      5  C   UNL     1      -2.219   1.131   1.155  0.00  0.00    -0.019 A 
ATOM      6  C   UNL     1      -2.405   1.503   2.475  0.00  0.00    +0.044 A 
ATOM      7  N   UNL     1      -1.655   2.501   3.077  0.00  0.00    -0.336 N 
ATOM      8  C   UNL     1      -0.331   2.686   2.457  0.00  0.00    +0.108 C 
ATOM      9  C   UNL     1      -0.520   2.980   0.967  0.00  0.00    +0.029 C 
ATOM     10  C   UNL     1      -1.186   1.769   0.273  0.00  0.00    +0.049 C 
ATOM     11  C   UNL     1      -0.041   0.817   0.018  0.00  0.00    -0.023 C 
ATOM     12  C   UNL     1       1.101   1.458   0.029  0.00  0.00    -0.030 C 
ATOM     13  C   UNL     1       0.878   2.935   0.290  0.00  0.00    +0.033 C 
ATOM     14  H   UNL     1      -1.955   3.127   3.931  0.00  0.00    +0.147 HD
ENDROOT
BRANCH   8  15
ATOM     15  C   UNL     1       0.398   3.833   3.106  0.00  0.00    +0.015 A 
ATOM     16  C   UNL     1       1.719   3.685   3.486  0.00  0.00    +0.012 A 
ATOM     17  C   UNL     1       2.391   4.735   4.082  0.00  0.00    +0.046 A 
ATOM     18  C   UNL     1       1.741   5.942   4.299  0.00  0.00    +0.120 A 
ATOM     19  C   UNL     1       0.416   6.093   3.919  0.00  0.00    +0.091 A 
ATOM     20  C   UNL     1      -0.254   5.040   3.317  0.00  0.00    +0.125 A 
BRANCH  20  21
ATOM     21  O   UNL     1      -1.551   5.186   2.938  0.00  0.00    -0.506 OA
ATOM     22  H   UNL     1      -2.068   6.143   3.105  0.00  0.00    +0.292 HD
ENDBRANCH  20  21
BRANCH  18  23
ATOM     23  O   UNL     1       2.402   6.975   4.884  0.00  0.00    -0.507 OA
ATOM     24  H   UNL     1       1.887   7.931   5.057  0.00  0.00    +0.292 HD
ENDBRANCH  18  23
ENDBRANCH   8  15
BRANCH   1  26
ATOM     25  N   UNL     1      -4.434   0.538   5.436  0.00  0.00    -0.309 N 
ATOM     26  C   UNL     1      -3.594   1.247   4.656  0.00  0.00    +0.246 C 
ATOM     27  O   UNL     1      -3.003   2.207   5.114  0.00  0.00    -0.270 OA
ATOM     28  H   UNL     1      -4.968  -0.330   5.022  0.00  0.00    +0.149 HD
BRANCH  25  29
ATOM     29  C   UNL     1      -4.635   0.923   6.835  0.00  0.00    +0.070 C 
ATOM     30  C   UNL     1      -3.538   0.297   7.699  0.00  0.00    +0.028 C 
BRANCH  29  32
ATOM     31  C   UNL     1      -7.104   1.147   6.529  0.00  0.00    +0.005 C 
ATOM     32  C   UNL     1      -6.002   0.427   7.309  0.00  0.00    +0.018 C 
ENDBRANCH  29  32
ENDBRANCH  25  29
ENDBRANCH   1  26
TORSDOF 6
