REMARK  Name = ZINC60062259
REMARK  13 active torsions:
REMARK  status: ('A' for Active; 'I' for Inactive)
REMARK    1  A    between atoms: C_1  and  C_2
REMARK    2  A    between atoms: C_5  and  C_8
REMARK    3  A    between atoms: C_8  and  N_9
REMARK    4  A    between atoms: N_12  and  C_13
REMARK    5  A    between atoms: C_13  and  C_15
REMARK    6  A    between atoms: C_13  and  C_19
REMARK    7  A    between atoms: C_15  and  C_16
REMARK    8  A    between atoms: C_16  and  C_17
REMARK    9  A    between atoms: C_16  and  C_18
REMARK   10  A    between atoms: N_21  and  C_22
REMARK   11  A    between atoms: C_25  and  C_28
REMARK   12  A    between atoms: C_28  and  C_29
REMARK   13  A    between atoms: C_29  and  O_30
REMARK                            x       y       z     vdW  Elec       q    Type
REMARK                         _______ _______ _______ _____ _____    ______ ____
ROOT
ATOM      1  C   UNL     1       3.276  -7.937  -0.053  0.00  0.00    +0.161 C 
ENDROOT
BRANCH   1   5
ATOM      2  N   UNL     1       1.446  -4.748  -0.025  0.00  0.00    -0.295 N 
ATOM      3  C   UNL     1       1.711  -6.069  -0.031  0.00  0.00    +0.300 C 
ATOM      4  O   UNL     1       0.798  -6.872  -0.021  0.00  0.00    -0.253 OA
ATOM      5  N   UNL     1       2.988  -6.500  -0.047  0.00  0.00    -0.288 N 
ATOM      6  H   UNL     1       2.174  -4.107  -0.033  0.00  0.00    +0.151 HD
ATOM      7  H   UNL     1       3.716  -5.860  -0.054  0.00  0.00    +0.151 HD
BRANCH   2   8
ATOM      8  C   UNL     1       0.058  -4.279  -0.007  0.00  0.00    +0.141 C 
BRANCH   8  13
ATOM      9  C   UNL     1      -0.027   1.499   0.003  0.00  0.00    +0.044 C 
ATOM     10  C   UNL     1      -0.005  -0.008   0.001  0.00  0.00    -0.050 A 
ATOM     11  C   UNL     1      -0.008  -0.697  -1.198  0.00  0.00    +0.003 A 
ATOM     12  C   UNL     1       0.012  -2.079  -1.200  0.00  0.00    +0.005 A 
ATOM     13  C   UNL     1       0.037  -2.772  -0.005  0.00  0.00    -0.030 A 
ATOM     14  C   UNL     1       0.041  -2.083   1.194  0.00  0.00    +0.005 A 
ATOM     15  C   UNL     1       0.025  -0.701   1.196  0.00  0.00    +0.003 A 
ENDBRANCH   8  13
ENDBRANCH   2   8
ENDBRANCH   1   5
BRANCH   1  16
ATOM     16  C   UNL     1       4.630  -8.175  -0.670  0.00  0.00    +0.238 C 
ATOM     17  O   UNL     1       5.289  -7.237  -1.066  0.00  0.00    -0.273 OA
ATOM     18  N   UNL     1       5.108  -9.430  -0.782  0.00  0.00    -0.284 N 
ATOM     19  H   UNL     1       4.611 -10.174  -0.406  0.00  0.00    +0.155 HD
BRANCH  18  20
ATOM     20  C   UNL     1       6.320  -9.661  -1.441  0.00  0.00    +0.033 A 
ATOM     21  C   UNL     1       6.493 -10.812  -2.198  0.00  0.00    +0.023 A 
ATOM     22  C   UNL     1       7.691 -11.037  -2.847  0.00  0.00    +0.005 A 
ATOM     23  C   UNL     1       8.718 -10.117  -2.745  0.00  0.00    -0.045 A 
ATOM     24  C   UNL     1       8.549  -8.969  -1.992  0.00  0.00    +0.005 A 
ATOM     25  C   UNL     1       7.351  -8.736  -1.345  0.00  0.00    +0.023 A 
BRANCH  23  26
ATOM     26  C   UNL     1      10.024 -10.365  -3.455  0.00  0.00    +0.063 C 
BRANCH  26  27
ATOM     27  C   UNL     1       9.964  -9.760  -4.859  0.00  0.00    +0.160 C 
BRANCH  27  28
ATOM     28  O   UNL     1      11.202  -9.995  -5.532  0.00  0.00    -0.395 OA
ATOM     29  H   UNL     1      11.235  -9.638  -6.431  0.00  0.00    +0.209 HD
ENDBRANCH  27  28
ENDBRANCH  26  27
ENDBRANCH  23  26
ENDBRANCH  18  20
ENDBRANCH   1  16
BRANCH   1  30
ATOM     30  C   UNL     1       3.270  -8.464   1.384  0.00  0.00    +0.034 C 
BRANCH  30  31
ATOM     31  C   UNL     1       1.862  -8.336   1.968  0.00  0.00    -0.015 C 
ATOM     32  C   UNL     1       0.905  -9.248   1.198  0.00  0.00    +0.007 C 
ATOM     33  C   UNL     1       1.883  -8.746   3.442  0.00  0.00    +0.007 C 
ENDBRANCH  30  31
ENDBRANCH   1  30
TORSDOF 10
