REMARK  Name = ZINC40957752
REMARK  5 active torsions:
REMARK  status: ('A' for Active; 'I' for Inactive)
REMARK    1  A    between atoms: C_4  and  C_31
REMARK    2  A    between atoms: C_6  and  N_7
REMARK    3  A    between atoms: N_10  and  C_11
REMARK    4  A    between atoms: C_14  and  O_18
REMARK    5  A    between atoms: O_18  and  C_19
REMARK                            x       y       z     vdW  Elec       q    Type
REMARK                         _______ _______ _______ _____ _____    ______ ____
ROOT
ATOM      1  C   UNL     1      -4.804  -0.182   0.218  0.00  0.00    +0.070 A 
ATOM      2  C   UNL     1      -4.831   1.205   0.223  0.00  0.00    +0.030 A 
ATOM      3  C   UNL     1      -6.039   1.873   0.234  0.00  0.00    +0.048 A 
ATOM      4  C   UNL     1      -7.229   1.158   0.241  0.00  0.00    +0.131 A 
ATOM      5  C   UNL     1      -7.205  -0.229   0.236  0.00  0.00    +0.086 A 
ATOM      6  C   UNL     1      -5.996  -0.899   0.219  0.00  0.00    +0.148 A 
ATOM      7  F   UNL     1      -5.972  -2.250   0.209  0.00  0.00    -0.203 F 
ENDROOT
BRANCH   1  11
ATOM      8  N   UNL     1      -1.271  -0.864   0.569  0.00  0.00    -0.269 N 
ATOM      9  C   UNL     1      -2.470  -0.261   0.687  0.00  0.00    +0.308 C 
ATOM     10  O   UNL     1      -2.554   0.825   1.228  0.00  0.00    -0.252 OA
ATOM     11  N   UNL     1      -3.577  -0.861   0.206  0.00  0.00    -0.267 N 
ATOM     12  H   UNL     1      -1.191  -1.689   0.064  0.00  0.00    +0.156 HD
ATOM     13  H   UNL     1      -3.525  -1.762  -0.149  0.00  0.00    +0.156 HD
BRANCH   8  19
ATOM     14  C   UNL     1      -0.283   0.511   2.291  0.00  0.00    +0.025 A 
ATOM     15  C   UNL     1       0.833   1.065   2.887  0.00  0.00    +0.022 A 
ATOM     16  C   UNL     1       2.091   0.812   2.371  0.00  0.00    +0.053 A 
ATOM     17  C   UNL     1       2.236   0.003   1.258  0.00  0.00    +0.075 A 
ATOM     18  C   UNL     1       1.123  -0.553   0.658  0.00  0.00    +0.037 A 
ATOM     19  C   UNL     1      -0.141  -0.301   1.174  0.00  0.00    +0.035 A 
ATOM     20 CL   UNL     1       3.492   1.511   3.122  0.00  0.00    -0.083 Cl
BRANCH  17  21
ATOM     21  C   UNL     1       3.608  -0.271   0.698  0.00  0.00    +0.419 C 
ATOM     22  F   UNL     1       3.498  -1.107  -0.418  0.00  0.00    -0.166 F 
ATOM     23  F   UNL     1       4.206   0.936   0.320  0.00  0.00    -0.166 F 
ATOM     24  F   UNL     1       4.393  -0.894   1.674  0.00  0.00    -0.166 F 
ENDBRANCH  17  21
ENDBRANCH   8  19
ENDBRANCH   1  11
BRANCH   4  25
ATOM     25  O   UNL     1      -8.417   1.817   0.253  0.00  0.00    -0.454 OA
BRANCH  25  26
ATOM     26  C   UNL     1      -9.114   1.854   1.418  0.00  0.00    +0.157 A 
ATOM     27  C   UNL     1      -8.578   1.326   2.591  0.00  0.00    +0.068 A 
ATOM     28  C   UNL     1      -9.317   1.382   3.755  0.00  0.00    +0.117 A 
ATOM     29  N   UNL     1     -10.519   1.924   3.778  0.00  0.00    -0.236 NA
ATOM     30  C   UNL     1     -11.072   2.439   2.689  0.00  0.00    +0.162 A 
ATOM     31  C   UNL     1     -10.383   2.424   1.476  0.00  0.00    +0.129 A 
ATOM     32  N   UNL     1     -11.208   3.034   0.533  0.00  0.00    -0.302 N 
ATOM     33  H   UNL     1     -10.999   3.167  -0.405  0.00  0.00    +0.171 HD
ATOM     34  C   UNL     1     -12.346   3.408   1.149  0.00  0.00    +0.326 A 
ATOM     35  O   UNL     1     -13.282   3.970   0.613  0.00  0.00    -0.247 OA
ATOM     36  N   UNL     1     -12.294   3.053   2.447  0.00  0.00    -0.291 N 
ATOM     37  H   UNL     1     -12.989   3.211   3.105  0.00  0.00    +0.172 HD
ENDBRANCH  25  26
ENDBRANCH   4  25
TORSDOF 5
