REMARK  Name = ZINC36525563
REMARK  19 active torsions:
REMARK  status: ('A' for Active; 'I' for Inactive)
REMARK    1  A    between atoms: C_1  and  C_2
REMARK    2  A    between atoms: C_4  and  C_15
REMARK    3  A    between atoms: C_12  and  C_13
REMARK    4  A    between atoms: C_12  and  C_14
REMARK    5  A    between atoms: N_17  and  C_18
REMARK    6  A    between atoms: N_17  and  C_19
REMARK    7  A    between atoms: C_19  and  C_21
REMARK    8  A    between atoms: C_19  and  C_30
REMARK    9  A    between atoms: C_22  and  O_29
REMARK   10  A    between atoms: C_24  and  O_28
REMARK   11  A    between atoms: C_26  and  O_27
REMARK   12  A    between atoms: N_32  and  C_33
REMARK   13  A    between atoms: C_33  and  C_34
REMARK   14  A    between atoms: C_33  and  C_35
REMARK   15  A    between atoms: C_33  and  C_36
REMARK   16  A    between atoms: C_36  and  C_37
REMARK   17  A    between atoms: C_37  and  C_38
REMARK   18  A    between atoms: C_37  and  C_39
REMARK   19  A    between atoms: C_37  and  C_40
REMARK                            x       y       z     vdW  Elec       q    Type
REMARK                         _______ _______ _______ _____ _____    ______ ____
ROOT
ATOM      1  C   UNL     1      -1.113  -4.901  -4.133  0.00  0.00    +0.199 C 
ENDROOT
BRANCH   1   2
ATOM      2  C   UNL     1      -1.763  -4.113  -5.241  0.00  0.00    +0.065 A 
ATOM      3  C   UNL     1      -0.989  -3.314  -6.070  0.00  0.00    +0.129 A 
ATOM      4  C   UNL     1      -1.587  -2.589  -7.089  0.00  0.00    +0.091 A 
ATOM      5  C   UNL     1      -2.959  -2.663  -7.281  0.00  0.00    +0.124 A 
ATOM      6  C   UNL     1      -3.732  -3.462  -6.452  0.00  0.00    +0.091 A 
ATOM      7  C   UNL     1      -3.134  -4.191  -5.436  0.00  0.00    +0.129 A 
BRANCH   7   8
ATOM      8  O   UNL     1      -3.891  -4.978  -4.627  0.00  0.00    -0.506 OA
ATOM      9  H   UNL     1      -4.227  -4.526  -3.841  0.00  0.00    +0.292 HD
ENDBRANCH   7   8
BRANCH   5  10
ATOM     10  O   UNL     1      -3.545  -1.951  -8.279  0.00  0.00    -0.507 OA
ATOM     11  H   UNL     1      -3.601  -2.426  -9.120  0.00  0.00    +0.292 HD
ENDBRANCH   5  10
BRANCH   3  12
ATOM     12  O   UNL     1       0.355  -3.243  -5.883  0.00  0.00    -0.506 OA
ATOM     13  H   UNL     1       0.863  -3.847  -6.441  0.00  0.00    +0.292 HD
ENDBRANCH   3  12
ENDBRANCH   1   2
BRANCH   1  16
ATOM     14  C   UNL     1      -1.436  -4.243  -1.810  0.00  0.00    +0.220 C 
ATOM     15  O   UNL     1      -2.081  -5.256  -1.637  0.00  0.00    -0.275 OA
ATOM     16  N   UNL     1      -0.843  -4.016  -2.998  0.00  0.00    -0.289 N 
ATOM     17  C   UNL     1       0.073  -2.884  -3.154  0.00  0.00    +0.133 C 
BRANCH  14  20
ATOM     18  C   UNL     1      -3.183  -2.008   0.455  0.00  0.00    +0.008 C 
ATOM     19  C   UNL     1      -2.468  -3.343   0.277  0.00  0.00    +0.001 C 
ATOM     20  C   UNL     1      -1.300  -3.238  -0.694  0.00  0.00    +0.079 C 
ATOM     21  C   UNL     1       0.058  -3.369  -0.013  0.00  0.00    +0.017 C 
ATOM     22  C   UNL     1      -0.026  -4.159   1.294  0.00  0.00    -0.004 C 
ATOM     23  C   UNL     1      -1.150  -5.208   1.309  0.00  0.00    +0.008 C 
ATOM     24  C   UNL     1      -2.075  -3.995   1.597  0.00  0.00    -0.001 C 
ATOM     25  C   UNL     1      -0.876  -3.417   2.345  0.00  0.00    -0.029 C 
ATOM     26  C   UNL     1      -0.708  -1.901   2.345  0.00  0.00    +0.011 C 
ATOM     27  C   UNL     1      -0.702  -3.988   3.765  0.00  0.00    +0.011 C 
ENDBRANCH  14  20
ENDBRANCH   1  16
BRANCH   1  28
ATOM     28  C   UNL     1       0.181  -5.492  -4.629  0.00  0.00    +0.239 C 
ATOM     29  O   UNL     1       1.227  -5.202  -4.088  0.00  0.00    -0.273 OA
ATOM     30  N   UNL     1       0.177  -6.343  -5.675  0.00  0.00    -0.308 N 
ATOM     31  H   UNL     1      -0.659  -6.575  -6.108  0.00  0.00    +0.149 HD
BRANCH  30  32
ATOM     32  C   UNL     1       1.435  -6.917  -6.157  0.00  0.00    +0.030 C 
ATOM     33  C   UNL     1       2.261  -5.829  -6.847  0.00  0.00    +0.031 C 
ATOM     34  C   UNL     1       2.224  -7.483  -4.975  0.00  0.00    +0.031 C 
BRANCH  32  35
ATOM     35  C   UNL     1       1.135  -8.039  -7.154  0.00  0.00    +0.031 C 
BRANCH  35  36
ATOM     36  C   UNL     1      -0.007  -8.904  -6.619  0.00  0.00    -0.036 C 
ATOM     37  C   UNL     1      -1.347  -8.300  -7.043  0.00  0.00    +0.010 C 
ATOM     38  C   UNL     1       0.117 -10.320  -7.186  0.00  0.00    +0.010 C 
ATOM     39  C   UNL     1       0.067  -8.959  -5.091  0.00  0.00    +0.010 C 
ENDBRANCH  35  36
ENDBRANCH  32  35
ENDBRANCH  30  32
ENDBRANCH   1  28
TORSDOF 10
