REMARK  Name = ZINC21319441
REMARK  9 active torsions:
REMARK  status: ('A' for Active; 'I' for Inactive)
REMARK    1  A    between atoms: C_1  and  C_2
REMARK    2  A    between atoms: C_5  and  C_8
REMARK    3  A    between atoms: C_8  and  C_10
REMARK    4  A    between atoms: C_10  and  S_11
REMARK    5  A    between atoms: S_11  and  C_12
REMARK    6  A    between atoms: N_16  and  N_17
REMARK    7  A    between atoms: N_18  and  N_19
REMARK    8  A    between atoms: C_20  and  C_21
REMARK    9  A    between atoms: C_26  and  O_27
REMARK                            x       y       z     vdW  Elec       q    Type
REMARK                         _______ _______ _______ _____ _____    ______ ____
ROOT
ATOM      1  C   UNL     1      -0.257   1.797  -2.281  0.00  0.00    +0.210 A 
ATOM      2  N   UNL     1      -1.258   2.230  -3.010  0.00  0.00    -0.119 NA
ATOM      3  N   UNL     1      -2.412   2.209  -2.217  0.00  0.00    -0.109 NA
ATOM      4  C   UNL     1      -2.081   1.760  -1.031  0.00  0.00    +0.254 A 
ATOM      5  N   UNL     1      -0.741   1.490  -1.041  0.00  0.00    -0.211 N 
ATOM      6  N   UNL     1      -2.939   1.589   0.045  0.00  0.00    -0.204 N 
ATOM      7  H   UNL     1      -2.554   1.202   1.000  0.00  0.00    +0.177 HD
ENDROOT
BRANCH   5   8
ATOM      8  N   UNL     1      -0.012   1.005   0.008  0.00  0.00    -0.294 N 
ATOM      9  H   UNL     1      -0.504   0.791   0.968  0.00  0.00    +0.163 HD
ATOM     10  H   UNL     1       1.068   0.828  -0.108  0.00  0.00    +0.163 HD
ENDBRANCH   5   8
BRANCH   6  11
ATOM     11  N   UNL     1      -4.298   1.907  -0.085  0.00  0.00    -0.187 NA
ATOM     12  C   UNL     1      -5.101   1.746   0.923  0.00  0.00    +0.142 C 
BRANCH  12  13
ATOM     13  C   UNL     1      -6.530   2.081   0.786  0.00  0.00    +0.037 A 
ATOM     14  C   UNL     1      -7.398   1.910   1.867  0.00  0.00    +0.028 A 
ATOM     15  C   UNL     1      -8.734   2.226   1.733  0.00  0.00    +0.019 A 
ATOM     16  C   UNL     1      -9.219   2.712   0.530  0.00  0.00    +0.019 A 
ATOM     17  C   UNL     1      -8.369   2.885  -0.547  0.00  0.00    +0.047 A 
ATOM     18  C   UNL     1      -7.024   2.579  -0.427  0.00  0.00    +0.126 A 
ATOM     19 BR   UNL     1      -9.909   1.994   3.197  0.00  0.00    -0.050 Br
BRANCH  18  20
ATOM     20  O   UNL     1      -6.188   2.754  -1.483  0.00  0.00    -0.506 OA
ATOM     21  H   UNL     1      -6.578   3.144  -2.435  0.00  0.00    +0.292 HD
ENDBRANCH  18  20
ENDBRANCH  12  13
ENDBRANCH   6  11
BRANCH   1  22
ATOM     22  S   UNL     1       1.416   1.635  -2.809  0.00  0.00    -0.076 S 
BRANCH  22  23
ATOM     23  C   UNL     1       1.388   2.201  -4.533  0.00  0.00    +0.157 C 
BRANCH  23  24
ATOM     24  C   UNL     1       2.776   2.113  -5.113  0.00  0.00    +0.173 C 
ATOM     25  O   UNL     1       3.694   1.708  -4.431  0.00  0.00    -0.291 OA
BRANCH  24  30
ATOM     26  C   UNL     1       3.723   3.694 -10.558  0.00  0.00    +0.044 C 
ATOM     27  C   UNL     1       3.474   3.279  -9.131  0.00  0.00    -0.050 A 
ATOM     28  C   UNL     1       4.524   2.818  -8.356  0.00  0.00    +0.004 A 
ATOM     29  C   UNL     1       4.306   2.437  -7.049  0.00  0.00    +0.011 A 
ATOM     30  C   UNL     1       3.019   2.518  -6.507  0.00  0.00    +0.018 A 
ATOM     31  C   UNL     1       1.962   2.979  -7.298  0.00  0.00    +0.011 A 
ATOM     32  C   UNL     1       2.198   3.361  -8.602  0.00  0.00    +0.004 A 
ENDBRANCH  24  30
ENDBRANCH  23  24
ENDBRANCH  22  23
ENDBRANCH   1  22
TORSDOF 8
