REMARK  Name = ZINC48460687
REMARK  4 active torsions:
REMARK  status: ('A' for Active; 'I' for Inactive)
REMARK    1  A    between atoms: C_2  and  N_20
REMARK    2  A    between atoms: C_6  and  S_7
REMARK    3  A    between atoms: S_7  and  N_10
REMARK    4  A    between atoms: C_14  and  O_17
REMARK                            x       y       z     vdW  Elec       q    Type
REMARK                         _______ _______ _______ _____ _____    ______ ____
ROOT
ATOM      1  C   UNL     1      -0.017   1.377   0.010  0.00  0.00    +0.055 A 
ATOM      2  C   UNL     1       1.176   2.087   0.002  0.00  0.00    +0.062 A 
ATOM      3  C   UNL     1       2.388   1.404  -0.013  0.00  0.00    +0.145 A 
ATOM      4  C   UNL     1       2.400   0.022  -0.021  0.00  0.00    +0.062 A 
ATOM      5  C   UNL     1       1.208  -0.682  -0.014  0.00  0.00    +0.070 A 
ATOM      6  C   UNL     1       0.002  -0.004   0.002  0.00  0.00    +0.126 A 
ATOM      7 CL   UNL     1       1.227  -2.417  -0.024  0.00  0.00    -0.081 Cl
ATOM      8  F   UNL     1       3.551   2.091  -0.021  0.00  0.00    -0.204 F 
ENDROOT
BRANCH   6   9
ATOM      9  S   UNL     1      -1.512  -0.904   0.012  0.00  0.00    +0.062 S 
ATOM     10  O   UNL     1      -1.394  -1.887   1.031  0.00  0.00    -0.153 OA
ATOM     11  O   UNL     1      -2.557   0.058  -0.000  0.00  0.00    -0.153 OA
BRANCH   9  12
ATOM     12  N   UNL     1      -1.605  -1.722  -1.426  0.00  0.00    -0.174 NA
ATOM     13  C   UNL     1      -2.232  -1.101  -2.600  0.00  0.00    +0.109 C 
ATOM     14  C   UNL     1      -3.314  -2.043  -3.138  0.00  0.00    +0.020 C 
ATOM     15  C   UNL     1      -2.699  -3.419  -3.407  0.00  0.00    +0.034 C 
ATOM     16  C   UNL     1      -2.157  -4.001  -2.099  0.00  0.00    +0.130 C 
ATOM     17  C   UNL     1      -1.057  -3.079  -1.552  0.00  0.00    +0.140 C 
BRANCH  16  18
ATOM     18  O   UNL     1      -1.611  -5.299  -2.346  0.00  0.00    -0.390 OA
ATOM     19  H   UNL     1      -2.249  -5.934  -2.698  0.00  0.00    +0.210 HD
ENDBRANCH  16  18
ENDBRANCH   9  12
ENDBRANCH   6   9
BRANCH   2  20
ATOM     20  N   UNL     1       1.160   3.486   0.009  0.00  0.00    -0.356 N 
ATOM     21  H   UNL     1       0.314   3.961   0.019  0.00  0.00    +0.142 HD
ATOM     22  H   UNL     1       1.994   3.981   0.004  0.00  0.00    +0.142 HD
ENDBRANCH   2  20
TORSDOF 4
