REMARK  Name = ZINC03771035
REMARK  6 active torsions:
REMARK  status: ('A' for Active; 'I' for Inactive)
REMARK    1  A    between atoms: C_2  and  C_24
REMARK    2  A    between atoms: C_6  and  N_7
REMARK    3  A    between atoms: N_7  and  C_8
REMARK    4  A    between atoms: C_8  and  N_10
REMARK    5  A    between atoms: N_10  and  N_11
REMARK    6  A    between atoms: C_15  and  C_18
REMARK                            x       y       z     vdW  Elec       q    Type
REMARK                         _______ _______ _______ _____ _____    ______ ____
ROOT
ATOM      1  C   UNL     1      -3.623   3.797  -0.046  0.00  0.00    +0.151 C 
ATOM      2  S   UNL     1      -3.609   2.086  -0.056  0.00  0.00    -0.017 S 
ENDROOT
BRANCH   1   3
ATOM      3  N   UNL     1      -2.464   4.480   0.049  0.00  0.00    -0.296 N 
ATOM      4  H   UNL     1      -2.477   5.446   0.136  0.00  0.00    +0.154 HD
BRANCH   3  10
ATOM      5  C   UNL     1      -0.223   4.161   0.888  0.00  0.00    +0.035 A 
ATOM      6  C   UNL     1       0.981   3.483   0.860  0.00  0.00    +0.058 A 
ATOM      7  C   UNL     1       1.169   2.442  -0.029  0.00  0.00    +0.032 A 
ATOM      8  C   UNL     1       0.152   2.074  -0.894  0.00  0.00    +0.043 A 
ATOM      9  C   UNL     1      -1.052   2.752  -0.874  0.00  0.00    +0.043 A 
ATOM     10  C   UNL     1      -1.245   3.796   0.022  0.00  0.00    +0.035 A 
ATOM     11 CL   UNL     1       0.392   0.766  -2.009  0.00  0.00    -0.083 Cl
BRANCH   6  12
ATOM     12  C   UNL     1       2.090   3.880   1.800  0.00  0.00    +0.418 C 
ATOM     13  F   UNL     1       3.200   3.055   1.585  0.00  0.00    -0.166 F 
ATOM     14  F   UNL     1       2.446   5.212   1.565  0.00  0.00    -0.166 F 
ATOM     15  F   UNL     1       1.654   3.740   3.122  0.00  0.00    -0.166 F 
ENDBRANCH   6  12
ENDBRANCH   3  10
ENDBRANCH   1   3
BRANCH   1  16
ATOM     16  N   UNL     1      -4.792   4.463  -0.132  0.00  0.00    -0.247 N 
ATOM     17  H   UNL     1      -5.625   3.971  -0.201  0.00  0.00    +0.172 HD
BRANCH  16  18
ATOM     18  N   UNL     1      -4.803   5.863  -0.124  0.00  0.00    -0.248 N 
ATOM     19  C   UNL     1      -6.009   6.550  -0.214  0.00  0.00    +0.153 A 
ATOM     20  C   UNL     1      -6.014   7.942  -0.199  0.00  0.00    +0.083 A 
ATOM     21  C   UNL     1      -7.221   8.611  -0.295  0.00  0.00    +0.037 A 
ATOM     22  C   UNL     1      -8.388   7.864  -0.391  0.00  0.00    +0.074 A 
ATOM     23  C   UNL     1      -8.309   6.486  -0.394  0.00  0.00    +0.125 A 
ATOM     24  N   UNL     1      -7.143   5.873  -0.307  0.00  0.00    -0.237 NA
ATOM     25 CL   UNL     1      -4.525   8.826  -0.070  0.00  0.00    -0.080 Cl
ATOM     26  H   UNL     1      -3.969   6.355  -0.056  0.00  0.00    +0.172 HD
BRANCH  22  27
ATOM     27  C   UNL     1      -9.726   8.550  -0.492  0.00  0.00    +0.419 C 
ATOM     28  F   UNL     1     -10.738   7.588  -0.577  0.00  0.00    -0.166 F 
ATOM     29  F   UNL     1      -9.930   9.342   0.643  0.00  0.00    -0.166 F 
ATOM     30  F   UNL     1      -9.751   9.357  -1.635  0.00  0.00    -0.166 F 
ENDBRANCH  22  27
ENDBRANCH  16  18
ENDBRANCH   1  16
TORSDOF 6
