REMARK  Name = ZINC01143943
REMARK  7 active torsions:
REMARK  status: ('A' for Active; 'I' for Inactive)
REMARK    1  A    between atoms: C_1  and  C_2
REMARK    2  A    between atoms: C_9  and  N_31
REMARK    3  A    between atoms: C_10  and  C_29
REMARK    4  A    between atoms: C_11  and  C_13
REMARK    5  A    between atoms: C_16  and  O_20
REMARK    6  A    between atoms: O_20  and  C_21
REMARK    7  A    between atoms: C_21  and  C_22
REMARK                            x       y       z     vdW  Elec       q    Type
REMARK                         _______ _______ _______ _____ _____    ______ ____
ROOT
ATOM      1  C   UNL     1      -4.953   7.663   3.087  0.00  0.00    +0.068 C 
ATOM      2  C   UNL     1      -5.842   7.546   1.875  0.00  0.00    +0.068 A 
ATOM      3  C   UNL     1      -6.548   6.415   1.488  0.00  0.00    +0.049 A 
ATOM      4  C   UNL     1      -7.231   6.713   0.343  0.00  0.00    +0.222 A 
ATOM      5  N   UNL     1      -6.956   7.989   0.027  0.00  0.00    -0.246 N 
ATOM      6  H   UNL     1      -7.311   8.489  -0.763  0.00  0.00    +0.192 HD
ATOM      7  N   UNL     1      -6.083   8.495   1.002  0.00  0.00    -0.176 NA
ATOM      8  O   UNL     1      -8.022   5.813  -0.293  0.00  0.00    -0.423 OA
ATOM      9  C   UNL     1      -8.348   4.687   0.373  0.00  0.00    +0.200 C 
ATOM     10  C   UNL     1      -7.737   4.282   1.509  0.00  0.00    +0.098 C 
ATOM     11  C   UNL     1      -6.613   5.060   2.145  0.00  0.00    +0.101 C 
ENDROOT
BRANCH  11  12
ATOM     12  C   UNL     1      -5.310   4.331   1.938  0.00  0.00    -0.033 A 
ATOM     13  C   UNL     1      -4.855   4.081   0.657  0.00  0.00    +0.008 A 
ATOM     14  C   UNL     1      -3.658   3.418   0.464  0.00  0.00    +0.047 A 
ATOM     15  C   UNL     1      -2.917   2.995   1.558  0.00  0.00    +0.139 A 
ATOM     16  C   UNL     1      -3.375   3.247   2.843  0.00  0.00    +0.083 A 
ATOM     17  C   UNL     1      -4.571   3.915   3.030  0.00  0.00    +0.028 A 
ATOM     18 CL   UNL     1      -2.448   2.724   4.215  0.00  0.00    -0.080 Cl
BRANCH  15  19
ATOM     19  O   UNL     1      -1.742   2.338   1.370  0.00  0.00    -0.486 OA
BRANCH  19  20
ATOM     20  C   UNL     1      -1.332   2.113   0.020  0.00  0.00    +0.264 C 
BRANCH  20  21
ATOM     21  C   UNL     1      -0.017   1.378   0.010  0.00  0.00    -0.010 A 
ATOM     22  C   UNL     1       1.170   2.087   0.002  0.00  0.00    +0.010 A 
ATOM     23  C   UNL     1       2.377   1.414  -0.013  0.00  0.00    +0.039 A 
ATOM     24  C   UNL     1       2.397   0.029  -0.021  0.00  0.00    +0.123 A 
ATOM     25  C   UNL     1       1.208  -0.679  -0.013  0.00  0.00    +0.039 A 
ATOM     26  C   UNL     1       0.002  -0.004   0.002  0.00  0.00    +0.010 A 
ATOM     27  F   UNL     1       3.577  -0.630  -0.035  0.00  0.00    -0.205 F 
ENDBRANCH  20  21
ENDBRANCH  19  20
ENDBRANCH  15  19
ENDBRANCH  11  12
BRANCH   9  28
ATOM     28  N   UNL     1      -9.359   3.907  -0.131  0.00  0.00    -0.328 N 
ATOM     29  H   UNL     1      -9.616   3.091   0.326  0.00  0.00    +0.145 HD
ATOM     30  H   UNL     1      -9.816   4.172  -0.945  0.00  0.00    +0.145 HD
ENDBRANCH   9  28
BRANCH  10  31
ATOM     31  C   UNL     1      -8.175   3.068   2.131  0.00  0.00    +0.101 C 
ATOM     32  N   UNL     1      -8.521   2.105   2.624  0.00  0.00    -0.191 NA
ENDBRANCH  10  31
TORSDOF 6
