REMARK  Name = ZINC64370062
REMARK  8 active torsions:
REMARK  status: ('A' for Active; 'I' for Inactive)
REMARK    1  A    between atoms: C_1  and  C_2
REMARK    2  A    between atoms: C_5  and  N_8
REMARK    3  A    between atoms: C_9  and  C_11
REMARK    4  A    between atoms: C_11  and  S_12
REMARK    5  A    between atoms: S_12  and  C_13
REMARK    6  A    between atoms: C_16  and  C_23
REMARK    7  A    between atoms: N_17  and  C_18
REMARK    8  A    between atoms: C_24  and  N_32
REMARK                            x       y       z     vdW  Elec       q    Type
REMARK                         _______ _______ _______ _____ _____    ______ ____
ROOT
ATOM      1  C   UNL     1       0.593  -8.709   2.636  0.00  0.00    +0.193 A 
ATOM      2  N   UNL     1       0.603  -9.372   1.503  0.00  0.00    -0.122 NA
ATOM      3  N   UNL     1       0.725 -10.632   1.728  0.00  0.00    -0.128 NA
ATOM      4  C   UNL     1       0.800 -10.852   3.023  0.00  0.00    +0.174 A 
ATOM      5  N   UNL     1       0.724  -9.624   3.644  0.00  0.00    -0.299 N 
ENDROOT
BRANCH   4   6
ATOM      6  C   UNL     1       0.943 -12.157   3.681  0.00  0.00    +0.080 A 
ATOM      7  C   UNL     1       1.033 -13.387   3.104  0.00  0.00    +0.052 A 
ATOM      8  C   UNL     1       1.171 -14.554   3.961  0.00  0.00    +0.029 A 
ATOM      9  C   UNL     1       1.281 -15.918   3.594  0.00  0.00    +0.014 A 
ATOM     10  C   UNL     1       1.404 -16.866   4.582  0.00  0.00    +0.020 A 
ATOM     11  C   UNL     1       1.420 -16.491   5.917  0.00  0.00    +0.112 A 
ATOM     12  N   UNL     1       1.318 -15.220   6.255  0.00  0.00    -0.248 NA
ATOM     13  C   UNL     1       1.199 -14.276   5.348  0.00  0.00    +0.111 A 
ATOM     14  S   UNL     1       1.050 -12.509   5.425  0.00  0.00    -0.064 S 
BRANCH   7  15
ATOM     15  N   UNL     1       0.992 -13.527   1.710  0.00  0.00    -0.356 N 
ATOM     16  H   UNL     1       0.899 -12.742   1.147  0.00  0.00    +0.142 HD
ATOM     17  H   UNL     1       1.056 -14.407   1.309  0.00  0.00    +0.142 HD
ENDBRANCH   7  15
ENDBRANCH   4   6
BRANCH   5  18
ATOM     18  C   UNL     1       0.770  -9.356   5.084  0.00  0.00    +0.091 C 
ATOM     19  C   UNL     1      -0.500  -8.598   5.522  0.00  0.00    +0.025 C 
ATOM     20  C   UNL     1       0.002  -7.604   6.597  0.00  0.00    +0.002 C 
ATOM     21  C   UNL     1       1.376  -7.158   6.036  0.00  0.00    +0.002 C 
ATOM     22  C   UNL     1       1.963  -8.440   5.411  0.00  0.00    +0.025 C 
ENDBRANCH   5  18
BRANCH   1  23
ATOM     23  S   UNL     1       0.446  -6.963   2.823  0.00  0.00    -0.077 S 
BRANCH  23  24
ATOM     24  C   UNL     1       0.309  -6.349   1.121  0.00  0.00    +0.173 C 
BRANCH  24  26
ATOM     25  N   UNL     1       0.059  -4.170  -0.021  0.00  0.00    -0.285 N 
ATOM     26  C   UNL     1       0.175  -4.848   1.138  0.00  0.00    +0.227 C 
ATOM     27  O   UNL     1       0.173  -4.251   2.193  0.00  0.00    -0.275 OA
ATOM     28  H   UNL     1      -0.017  -4.651  -0.860  0.00  0.00    +0.155 HD
BRANCH  25  33
ATOM     29  C   UNL     1       0.008   1.503   0.007  0.00  0.00    +0.044 C 
ATOM     30  C   UNL     1       0.022  -0.004  -0.001  0.00  0.00    -0.050 A 
ATOM     31  C   UNL     1       0.777  -0.692   0.931  0.00  0.00    +0.005 A 
ATOM     32  C   UNL     1       0.791  -2.073   0.927  0.00  0.00    +0.023 A 
ATOM     33  C   UNL     1       0.046  -2.771  -0.014  0.00  0.00    +0.033 A 
ATOM     34  C   UNL     1      -0.712  -2.077  -0.948  0.00  0.00    +0.023 A 
ATOM     35  C   UNL     1      -0.726  -0.696  -0.936  0.00  0.00    +0.005 A 
ENDBRANCH  25  33
ENDBRANCH  24  26
ENDBRANCH  23  24
ENDBRANCH   1  23
TORSDOF 7
