REMARK  Name = ZINC04202331
REMARK  3 active torsions:
REMARK  status: ('A' for Active; 'I' for Inactive)
REMARK    1  A    between atoms: C_3  and  C_9
REMARK    2  A    between atoms: C_3  and  N_24
REMARK    3  A    between atoms: C_6  and  C_7
REMARK                            x       y       z     vdW  Elec       q    Type
REMARK                         _______ _______ _______ _____ _____    ______ ____
ROOT
ATOM      1  C   UNL     1      -2.193   1.442  -1.219  0.00  0.00    +0.014 C 
ATOM      2  C   UNL     1      -0.758   1.972  -1.229  0.00  0.00    -0.001 C 
ATOM      3  C   UNL     1      -0.018   1.465   0.010  0.00  0.00    +0.033 C 
ATOM      4  C   UNL     1      -0.734   1.958   1.269  0.00  0.00    -0.001 C 
ATOM      5  C   UNL     1      -2.169   1.429   1.280  0.00  0.00    +0.014 C 
ATOM      6  C   UNL     1      -2.909   1.935   0.040  0.00  0.00    +0.102 C 
ENDROOT
BRANCH   3   9
ATOM      7  H   UNL     1       0.486  -0.364   0.811  0.00  0.00    -0.088 HD
ATOM      8  H   UNL     1      -0.933  -0.378  -0.056  0.00  0.00    -0.088 HD
ATOM      9  N   UNL     1       0.015  -0.008  -0.019  0.00  0.00    +0.389 N 
ATOM     10  H   UNL     1       0.528  -0.318  -0.853  0.00  0.00    -0.088 HD
ENDBRANCH   3   9
BRANCH   6  11
ATOM     11  C   UNL     1      -4.323   1.414   0.051  0.00  0.00    +0.359 C 
ATOM     12  O   UNL     1      -4.718   0.719  -0.855  0.00  0.00    -0.246 OA
ATOM     13  O   UNL     1      -5.144   1.721   1.067  0.00  0.00    -0.246 OA
ENDBRANCH   6  11
BRANCH   3  14
ATOM     14  C   UNL     1       1.396   1.986  -0.001  0.00  0.00    +0.345 C 
ATOM     15  O   UNL     1       1.660   3.003  -0.598  0.00  0.00    -0.248 OA
ATOM     16  O   UNL     1       2.361   1.322   0.653  0.00  0.00    -0.248 OA
ENDBRANCH   3  14
TORSDOF 3
