REMARK  Name = ZINC29566303
REMARK  11 active torsions:
REMARK  status: ('A' for Active; 'I' for Inactive)
REMARK    1  A    between atoms: C_1  and  C_2
REMARK    2  A    between atoms: C_2  and  C_4
REMARK    3  A    between atoms: C_2  and  N_17
REMARK    4  A    between atoms: N_6  and  C_7
REMARK    5  A    between atoms: C_11  and  N_13
REMARK    6  A    between atoms: C_14  and  C_16
REMARK    7  A    between atoms: N_17  and  C_18
REMARK    8  A    between atoms: C_21  and  N_24
REMARK    9  A    between atoms: C_25  and  C_27
REMARK   10  A    between atoms: C_27  and  C_28
REMARK   11  A    between atoms: C_27  and  C_29
REMARK                            x       y       z     vdW  Elec       q    Type
REMARK                         _______ _______ _______ _____ _____    ______ ____
ROOT
ATOM      1  C   UNL     1      -0.243   1.129   0.125  0.00  0.00    +0.038 C 
ATOM      2  C   UNL     1      -0.142  -0.397   0.180  0.00  0.00    +0.154 C 
ENDROOT
BRANCH   2   3
ATOM      3  C   UNL     1      -1.526  -0.990   0.250  0.00  0.00    +0.237 C 
ATOM      4  O   UNL     1      -1.844  -1.676   1.198  0.00  0.00    -0.273 OA
ATOM      5  N   UNL     1      -2.409  -0.758  -0.741  0.00  0.00    -0.284 N 
ATOM      6  H   UNL     1      -2.185  -0.143  -1.457  0.00  0.00    +0.155 HD
BRANCH   5   7
ATOM      7  C   UNL     1      -3.649  -1.406  -0.739  0.00  0.00    +0.035 A 
ATOM      8  C   UNL     1      -4.736  -0.829  -1.384  0.00  0.00    +0.023 A 
ATOM      9  C   UNL     1      -5.961  -1.468  -1.382  0.00  0.00    +0.004 A 
ATOM     10  C   UNL     1      -6.110  -2.681  -0.738  0.00  0.00    +0.023 A 
ATOM     11  C   UNL     1      -5.027  -3.263  -0.091  0.00  0.00    +0.035 A 
ATOM     12  C   UNL     1      -3.794  -2.627  -0.096  0.00  0.00    +0.046 A 
BRANCH  11  13
ATOM     13  N   UNL     1      -5.178  -4.492   0.560  0.00  0.00    -0.286 N 
ATOM     14  C   UNL     1      -6.005  -5.427   0.052  0.00  0.00    +0.214 C 
ATOM     15  O   UNL     1      -6.681  -5.173  -0.922  0.00  0.00    -0.276 OA
ATOM     16  C   UNL     1      -6.089  -6.788   0.694  0.00  0.00    +0.109 C 
ATOM     17  H   UNL     1      -4.688  -4.671   1.378  0.00  0.00    +0.155 HD
ENDBRANCH  11  13
ENDBRANCH   5   7
ENDBRANCH   2   3
BRANCH   2  18
ATOM     18  N   UNL     1       0.620  -0.793   1.367  0.00  0.00    -0.333 N 
ATOM     19  H   UNL     1       0.155  -1.025   2.186  0.00  0.00    +0.147 HD
BRANCH  18  20
ATOM     20  C   UNL     1       2.017  -0.836   1.320  0.00  0.00    +0.028 A 
ATOM     21  C   UNL     1       2.683  -0.497   0.149  0.00  0.00    +0.025 A 
ATOM     22  C   UNL     1       4.062  -0.539   0.102  0.00  0.00    +0.025 A 
ATOM     23  C   UNL     1       4.784  -0.921   1.225  0.00  0.00    +0.034 A 
ATOM     24  C   UNL     1       4.118  -1.260   2.396  0.00  0.00    +0.025 A 
ATOM     25  C   UNL     1       2.739  -1.211   2.445  0.00  0.00    +0.025 A 
BRANCH  23  26
ATOM     26  N   UNL     1       6.184  -0.964   1.177  0.00  0.00    -0.285 N 
ATOM     27  C   UNL     1       6.861  -0.063   0.438  0.00  0.00    +0.220 C 
ATOM     28  O   UNL     1       6.267   0.843  -0.107  0.00  0.00    -0.275 OA
ATOM     29  H   UNL     1       6.665  -1.643   1.676  0.00  0.00    +0.155 HD
BRANCH  27  30
ATOM     30  C   UNL     1       8.356  -0.182   0.289  0.00  0.00    +0.069 C 
ATOM     31  C   UNL     1       8.698  -1.525  -0.359  0.00  0.00    +0.017 C 
ATOM     32  C   UNL     1       8.872   0.957  -0.592  0.00  0.00    +0.017 C 
ENDBRANCH  27  30
ENDBRANCH  23  26
ENDBRANCH  18  20
ENDBRANCH   2  18
TORSDOF 7
