REMARK  Name = ZINC18053650
REMARK  10 active torsions:
REMARK  status: ('A' for Active; 'I' for Inactive)
REMARK    1  A    between atoms: C_1  and  C_2
REMARK    2  A    between atoms: C_2  and  O_3
REMARK    3  A    between atoms: O_3  and  C_4
REMARK    4  A    between atoms: C_6  and  C_21
REMARK    5  A    between atoms: C_9  and  O_10
REMARK    6  A    between atoms: O_10  and  C_11
REMARK    7  A    between atoms: C_11  and  C_12
REMARK    8  A    between atoms: C_15  and  C_17
REMARK    9  A    between atoms: C_17  and  O_19
REMARK   10  A    between atoms: O_19  and  C_20
REMARK                            x       y       z     vdW  Elec       q    Type
REMARK                         _______ _______ _______ _____ _____    ______ ____
ROOT
ATOM      1  C   UNL     1      -1.498  -1.849   0.006  0.00  0.00    +0.162 A 
ATOM      2  C   UNL     1      -0.389  -2.680  -0.003  0.00  0.00    +0.056 A 
ATOM      3  C   UNL     1      -0.553  -4.052  -0.008  0.00  0.00    -0.003 A 
ATOM      4  C   UNL     1      -1.823  -4.600  -0.005  0.00  0.00    +0.011 A 
ATOM      5  C   UNL     1      -2.934  -3.777   0.004  0.00  0.00    +0.050 A 
ATOM      6  C   UNL     1      -2.776  -2.400   0.016  0.00  0.00    +0.163 A 
ENDROOT
BRANCH   3   7
ATOM      7  C   UNL     1       0.654  -4.954  -0.018  0.00  0.00    +0.209 C 
ATOM      8  N   UNL     1       0.406  -6.110  -0.899  0.00  0.00    -0.294 N 
ATOM      9  C   UNL     1      -0.337  -7.165  -0.391  0.00  0.00    +0.159 C 
ATOM     10  N   UNL     1       0.083  -7.686   0.834  0.00  0.00    -0.259 N 
ATOM     11  C   UNL     1       0.620  -6.757   1.720  0.00  0.00    +0.205 A 
ATOM     12  N   UNL     1       0.904  -5.464   1.335  0.00  0.00    -0.288 N 
ATOM     13  C   UNL     1       1.425  -4.823   2.421  0.00  0.00    +0.072 A 
ATOM     14  C   UNL     1       1.892  -3.529   2.622  0.00  0.00    +0.028 A 
ATOM     15  C   UNL     1       2.361  -3.216   3.888  0.00  0.00    +0.002 A 
ATOM     16  C   UNL     1       2.371  -4.143   4.916  0.00  0.00    +0.002 A 
ATOM     17  C   UNL     1       1.913  -5.436   4.743  0.00  0.00    +0.030 A 
ATOM     18  C   UNL     1       1.434  -5.775   3.472  0.00  0.00    +0.091 A 
ATOM     19  N   UNL     1       0.929  -6.926   2.977  0.00  0.00    -0.214 NA
ATOM     20  N   UNL     1      -1.371  -7.644  -1.022  0.00  0.00    -0.375 N 
ATOM     21  H   UNL     1       0.752  -6.132  -1.806  0.00  0.00    +0.151 HD
ATOM     22  H   UNL     1      -1.640  -7.261  -1.872  0.00  0.00    +0.158 HD
ATOM     23  H   UNL     1       0.006  -8.629   1.052  0.00  0.00    +0.158 HD
ATOM     24  H   UNL     1      -1.872  -8.383  -0.642  0.00  0.00    +0.158 HD
ENDBRANCH   3   7
BRANCH   1  25
ATOM     25  O   UNL     1      -1.339  -0.499   0.012  0.00  0.00    -0.489 OA
BRANCH  25  27
ATOM     26  C   UNL     1      -0.019   1.526   0.010  0.00  0.00    +0.048 C 
ATOM     27  C   UNL     1       0.002  -0.004   0.002  0.00  0.00    +0.226 C 
ENDBRANCH  25  27
ENDBRANCH   1  25
BRANCH   6  28
ATOM     28  O   UNL     1      -3.868  -1.589   0.030  0.00  0.00    -0.481 OA
BRANCH  28  29
ATOM     29  C   UNL     1      -5.148  -2.225   0.039  0.00  0.00    +0.303 C 
BRANCH  29  30
ATOM     30  C   UNL     1      -6.229  -1.175   0.055  0.00  0.00    +0.143 A 
ATOM     31  C   UNL     1      -6.808  -0.625  -1.036  0.00  0.00    +0.049 A 
ATOM     32  C   UNL     1      -7.758   0.300  -0.577  0.00  0.00    +0.057 A 
ATOM     33  C   UNL     1      -7.710   0.269   0.788  0.00  0.00    +0.212 A 
ATOM     34  O   UNL     1      -6.779  -0.638   1.152  0.00  0.00    -0.450 OA
BRANCH  33  35
ATOM     35  C   UNL     1      -8.528   1.074   1.698  0.00  0.00    +0.375 C 
ATOM     36  O   UNL     1      -9.342   1.859   1.250  0.00  0.00    -0.241 OA
BRANCH  35  37
ATOM     37  O   UNL     1      -8.380   0.944   3.032  0.00  0.00    -0.462 OA
ATOM     38  C   UNL     1      -9.211   1.760   3.860  0.00  0.00    +0.280 C 
ENDBRANCH  35  37
ENDBRANCH  33  35
ENDBRANCH  29  30
ENDBRANCH  28  29
ENDBRANCH   6  28
TORSDOF 8
