REMARK  Name = ZINC20917327
REMARK  12 active torsions:
REMARK  status: ('A' for Active; 'I' for Inactive)
REMARK    1  A    between atoms: C_1  and  C_2
REMARK    2  A    between atoms: C_2  and  O_3
REMARK    3  A    between atoms: O_3  and  C_4
REMARK    4  A    between atoms: C_4  and  C_6
REMARK    5  A    between atoms: C_10  and  N_11
REMARK    6  A    between atoms: C_12  and  C_14
REMARK    7  A    between atoms: C_14  and  S_15
REMARK    8  A    between atoms: S_15  and  C_16
REMARK    9  A    between atoms: N_20  and  N_21
REMARK   10  A    between atoms: N_22  and  N_23
REMARK   11  A    between atoms: C_24  and  C_25
REMARK   12  A    between atoms: C_28  and  C_31
REMARK                            x       y       z     vdW  Elec       q    Type
REMARK                         _______ _______ _______ _____ _____    ______ ____
ROOT
ATOM      1  S   UNL     1      -1.024   3.867   0.028  0.00  0.00    -0.075 S 
ENDROOT
BRANCH   1   2
ATOM      2  C   UNL     1      -2.637   4.577   0.039  0.00  0.00    +0.210 A 
ATOM      3  N   UNL     1      -3.770   3.916   0.035  0.00  0.00    -0.119 NA
ATOM      4  N   UNL     1      -4.815   4.849   0.050  0.00  0.00    -0.109 NA
ATOM      5  C   UNL     1      -4.287   6.049   0.055  0.00  0.00    +0.254 A 
ATOM      6  N   UNL     1      -2.927   5.911   0.048  0.00  0.00    -0.211 N 
ATOM      7  N   UNL     1      -4.986   7.247   0.064  0.00  0.00    -0.204 N 
ATOM      8  H   UNL     1      -4.440   8.202   0.067  0.00  0.00    +0.177 HD
BRANCH   6   9
ATOM      9  N   UNL     1      -2.017   6.930   0.050  0.00  0.00    -0.294 N 
ATOM     10  H   UNL     1      -2.361   7.975   0.058  0.00  0.00    +0.163 HD
ATOM     11  H   UNL     1      -0.940   6.706   0.045  0.00  0.00    +0.163 HD
ENDBRANCH   6   9
BRANCH   7  12
ATOM     12  N   UNL     1      -6.387   7.241   0.070  0.00  0.00    -0.188 NA
ATOM     13  C   UNL     1      -7.041   8.363   0.080  0.00  0.00    +0.138 C 
BRANCH  13  14
ATOM     14  C   UNL     1      -8.515   8.357   0.086  0.00  0.00    -0.005 A 
ATOM     15  C   UNL     1      -9.212   7.146   0.076  0.00  0.00    +0.010 A 
ATOM     16  C   UNL     1     -10.591   7.148   0.086  0.00  0.00    +0.004 A 
ATOM     17  C   UNL     1     -11.285   8.345   0.097  0.00  0.00    -0.050 A 
ATOM     18  C   UNL     1     -10.601   9.549   0.101  0.00  0.00    +0.004 A 
ATOM     19  C   UNL     1      -9.222   9.562   0.096  0.00  0.00    +0.010 A 
ATOM     20  C   UNL     1     -12.792   8.339   0.102  0.00  0.00    +0.044 C 
ENDBRANCH  13  14
ENDBRANCH   7  12
ENDBRANCH   1   2
BRANCH   1  21
ATOM     21  C   UNL     1      -1.331   2.079   0.020  0.00  0.00    +0.173 C 
BRANCH  21  23
ATOM     22  N   UNL     1       0.002  -0.004   0.002  0.00  0.00    -0.279 N 
ATOM     23  C   UNL     1      -0.016   1.344   0.009  0.00  0.00    +0.228 C 
ATOM     24  O   UNL     1       1.026   1.964   0.003  0.00  0.00    -0.275 OA
ATOM     25  H   UNL     1      -0.943  -0.567   0.008  0.00  0.00    +0.155 HD
BRANCH  22  30
ATOM     26  C   UNL     1       1.434  -2.052  -0.017  0.00  0.00    +0.091 A 
ATOM     27  C   UNL     1       2.813  -2.508  -0.039  0.00  0.00    -0.021 A 
ATOM     28  C   UNL     1       3.743  -1.528  -0.042  0.00  0.00    -0.004 A 
ATOM     29  S   UNL     1       2.814  -0.021  -0.024  0.00  0.00    -0.077 S 
ATOM     30  C   UNL     1       1.212  -0.681  -0.013  0.00  0.00    +0.086 A 
ATOM     31  C   UNL     1       5.231  -1.696  -0.055  0.00  0.00    +0.043 C 
ATOM     32  C   UNL     1       5.558  -3.151   0.312  0.00  0.00    +0.005 C 
ATOM     33  C   UNL     1       4.672  -4.081  -0.522  0.00  0.00    +0.005 C 
ATOM     34  C   UNL     1       3.220  -3.976  -0.051  0.00  0.00    +0.037 C 
BRANCH  26  35
ATOM     35  C   UNL     1       0.319  -3.002  -0.004  0.00  0.00    +0.342 C 
ATOM     36  O   UNL     1      -0.156  -3.396  -1.052  0.00  0.00    -0.245 OA
BRANCH  35  37
ATOM     37  O   UNL     1      -0.179  -3.440   1.170  0.00  0.00    -0.461 OA
BRANCH  37  39
ATOM     38  C   UNL     1      -1.711  -4.761   2.526  0.00  0.00    +0.048 C 
ATOM     39  C   UNL     1      -1.284  -4.380   1.107  0.00  0.00    +0.229 C 
ENDBRANCH  37  39
ENDBRANCH  35  37
ENDBRANCH  26  35
ENDBRANCH  22  30
ENDBRANCH  21  23
ENDBRANCH   1  21
TORSDOF 10
