REMARK  Name = ZINC61751924
REMARK  10 active torsions:
REMARK  status: ('A' for Active; 'I' for Inactive)
REMARK    1  A    between atoms: C_1  and  C_2
REMARK    2  A    between atoms: C_5  and  N_23
REMARK    3  A    between atoms: C_7  and  N_8
REMARK    4  A    between atoms: C_9  and  C_11
REMARK    5  A    between atoms: N_13  and  C_14
REMARK    6  A    between atoms: C_14  and  C_15
REMARK    7  A    between atoms: C_14  and  C_16
REMARK    8  A    between atoms: C_24  and  C_26
REMARK    9  A    between atoms: C_26  and  C_27
REMARK   10  A    between atoms: C_26  and  C_28
REMARK                            x       y       z     vdW  Elec       q    Type
REMARK                         _______ _______ _______ _____ _____    ______ ____
ROOT
ATOM      1  N   UNL     1      -0.131  -0.221   4.067  0.00  0.00    -0.277 N 
ATOM      2  C   UNL     1       0.154  -0.726   5.284  0.00  0.00    +0.303 C 
ATOM      3  O   UNL     1       0.218  -1.927   5.442  0.00  0.00    -0.265 OA
ATOM      4  H   UNL     1      -0.123   0.739   3.926  0.00  0.00    +0.155 HD
ENDROOT
BRANCH   1  11
ATOM      5  C   UNL     1      -1.856   0.741   2.021  0.00  0.00    +0.045 C 
ATOM      6  C   UNL     1      -1.279  -0.651   1.988  0.00  0.00    -0.029 A 
ATOM      7  C   UNL     1      -1.580  -1.498   0.938  0.00  0.00    +0.007 A 
ATOM      8  C   UNL     1      -1.053  -2.775   0.904  0.00  0.00    +0.024 A 
ATOM      9  C   UNL     1      -0.217  -3.211   1.925  0.00  0.00    +0.035 A 
ATOM     10  C   UNL     1       0.087  -2.363   2.980  0.00  0.00    +0.047 A 
ATOM     11  C   UNL     1      -0.440  -1.079   3.009  0.00  0.00    +0.038 A 
BRANCH   9  12
ATOM     12  N   UNL     1       0.316  -4.504   1.889  0.00  0.00    -0.285 N 
ATOM     13  C   UNL     1       0.619  -5.076   0.707  0.00  0.00    +0.220 C 
ATOM     14  O   UNL     1       0.511  -4.439  -0.320  0.00  0.00    -0.275 OA
ATOM     15  H   UNL     1       0.467  -4.989   2.716  0.00  0.00    +0.155 HD
BRANCH  13  16
ATOM     16  C   UNL     1       1.091  -6.506   0.661  0.00  0.00    +0.069 C 
ATOM     17  C   UNL     1       0.013  -7.419   1.247  0.00  0.00    +0.017 C 
ATOM     18  C   UNL     1       1.365  -6.906  -0.791  0.00  0.00    +0.017 C 
ENDBRANCH  13  16
ENDBRANCH   9  12
ENDBRANCH   1  11
BRANCH   2  19
ATOM     19  C   UNL     1       0.392   0.194   6.437  0.00  0.00    +0.300 C 
ATOM     20  O   UNL     1       0.329   1.395   6.278  0.00  0.00    -0.265 OA
ATOM     21  N   UNL     1       0.678  -0.312   7.653  0.00  0.00    -0.305 N 
ATOM     22  H   UNL     1       0.729  -1.272   7.780  0.00  0.00    +0.149 HD
BRANCH  21  23
ATOM     23  C   UNL     1       0.911   0.590   8.784  0.00  0.00    +0.074 C 
ATOM     24  C   UNL     1      -0.428   0.970   9.418  0.00  0.00    +0.028 C 
BRANCH  23  25
ATOM     25  C   UNL     1       1.787  -0.113   9.824  0.00  0.00    +0.012 C 
ATOM     26  C   UNL     1       3.228  -0.278   9.291  0.00  0.00    +0.009 C 
ATOM     27  C   UNL     1       4.113   0.525  10.293  0.00  0.00    -0.010 C 
ATOM     28  C   UNL     1       3.760   2.018  10.016  0.00  0.00    +0.004 C 
ATOM     29  C   UNL     1       2.318   2.184  10.549  0.00  0.00    +0.004 C 
ATOM     30  C   UNL     1       1.937   0.775  11.097  0.00  0.00    -0.006 C 
ATOM     31  C   UNL     1       3.329   0.284  11.631  0.00  0.00    +0.007 C 
ENDBRANCH  23  25
ENDBRANCH  21  23
ENDBRANCH   2  19
TORSDOF 6
