REMARK  Name = ZINC12465486
REMARK  13 active torsions:
REMARK  status: ('A' for Active; 'I' for Inactive)
REMARK    1  A    between atoms: C_1  and  C_2
REMARK    2  A    between atoms: C_2  and  O_3
REMARK    3  A    between atoms: O_3  and  C_4
REMARK    4  A    between atoms: C_4  and  C_5
REMARK    5  A    between atoms: C_5  and  N_6
REMARK    6  A    between atoms: C_9  and  O_34
REMARK    7  A    between atoms: C_10  and  O_32
REMARK    8  A    between atoms: N_15  and  C_16
REMARK    9  A    between atoms: C_16  and  C_18
REMARK   10  A    between atoms: N_23  and  S_24
REMARK   11  A    between atoms: S_24  and  C_27
REMARK   12  A    between atoms: O_32  and  C_33
REMARK   13  A    between atoms: O_34  and  C_35
REMARK                            x       y       z     vdW  Elec       q    Type
REMARK                         _______ _______ _______ _____ _____    ______ ____
ROOT
ATOM      1  N   UNL     1      -1.571   5.246   2.690  0.00  0.00    -0.319 N 
ATOM      2  C   UNL     1      -0.566   5.945   3.336  0.00  0.00    +0.061 A 
ATOM      3  C   UNL     1       0.594   5.437   3.944  0.00  0.00    +0.076 A 
ATOM      4  C   UNL     1       1.500   6.279   4.549  0.00  0.00    +0.164 A 
ATOM      5  C   UNL     1       1.294   7.657   4.575  0.00  0.00    +0.163 A 
ATOM      6  C   UNL     1       0.161   8.181   3.971  0.00  0.00    +0.066 A 
ATOM      7  C   UNL     1      -0.744   7.335   3.374  0.00  0.00    +0.043 A 
ATOM      8  S   UNL     1      -2.288   7.571   2.529  0.00  0.00    -0.052 S 
ATOM      9  C   UNL     1      -2.632   5.911   2.162  0.00  0.00    +0.167 A 
ATOM     10  N   UNL     1      -3.684   5.409   1.518  0.00  0.00    -0.155 NA
ENDROOT
BRANCH  10  11
ATOM     11  C   UNL     1      -4.635   6.219   1.067  0.00  0.00    +0.257 C 
ATOM     12  O   UNL     1      -4.545   7.419   1.242  0.00  0.00    -0.272 OA
BRANCH  11  13
ATOM     13  C   UNL     1      -5.825   5.651   0.338  0.00  0.00    +0.168 C 
ATOM     14  C   UNL     1      -5.361   4.934  -0.948  0.00  0.00    +0.031 C 
ATOM     15  C   UNL     1      -6.472   5.303  -1.970  0.00  0.00    +0.019 C 
ATOM     16  C   UNL     1      -6.827   6.748  -1.538  0.00  0.00    +0.110 C 
ATOM     17  N   UNL     1      -6.729   6.737  -0.067  0.00  0.00    -0.164 NA
BRANCH  17  18
ATOM     18  S   UNL     1      -7.508   7.777   0.959  0.00  0.00    +0.068 S 
ATOM     19  O   UNL     1      -8.649   8.258   0.261  0.00  0.00    -0.152 OA
ATOM     20  O   UNL     1      -7.605   7.115   2.212  0.00  0.00    -0.152 OA
BRANCH  18  21
ATOM     21  C   UNL     1      -6.446   9.162   1.202  0.00  0.00    +0.143 A 
ATOM     22  C   UNL     1      -6.369  10.314   0.491  0.00  0.00    +0.036 A 
ATOM     23  C   UNL     1      -5.452  11.275   0.871  0.00  0.00    +0.010 A 
ATOM     24  C   UNL     1      -4.648  11.034   1.935  0.00  0.00    +0.047 A 
ATOM     25  S   UNL     1      -5.187   9.409   2.443  0.00  0.00    -0.077 S 
ENDBRANCH  18  21
ENDBRANCH  17  18
ENDBRANCH  11  13
ENDBRANCH  10  11
BRANCH   5  26
ATOM     26  O   UNL     1       2.197   8.479   5.176  0.00  0.00    -0.491 OA
ATOM     27  C   UNL     1       1.912   9.879   5.160  0.00  0.00    +0.277 C 
ENDBRANCH   5  26
BRANCH   4  28
ATOM     28  O   UNL     1       2.614   5.758   5.130  0.00  0.00    -0.491 OA
ATOM     29  C   UNL     1       2.772   4.339   5.073  0.00  0.00    +0.277 C 
ENDBRANCH   4  28
BRANCH   1  30
ATOM     30  C   UNL     1      -1.494   3.787   2.582  0.00  0.00    +0.152 C 
BRANCH  30  31
ATOM     31  C   UNL     1      -0.762   3.410   1.292  0.00  0.00    +0.181 C 
BRANCH  31  32
ATOM     32  O   UNL     1      -0.688   1.987   1.186  0.00  0.00    -0.378 OA
BRANCH  32  34
ATOM     33  C   UNL     1       0.002  -0.004   0.002  0.00  0.00    +0.034 C 
ATOM     34  C   UNL     1      -0.019   1.526   0.010  0.00  0.00    +0.156 C 
ENDBRANCH  32  34
ENDBRANCH  31  32
ENDBRANCH  30  31
ENDBRANCH   1  30
TORSDOF 10
