REMARK  Name = ZINC51988922
REMARK  7 active torsions:
REMARK  status: ('A' for Active; 'I' for Inactive)
REMARK    1  A    between atoms: C_1  and  N_2
REMARK    2  A    between atoms: N_2  and  C_3
REMARK    3  A    between atoms: N_2  and  C_4
REMARK    4  A    between atoms: C_7  and  N_22
REMARK    5  A    between atoms: C_9  and  C_10
REMARK    6  A    between atoms: N_12  and  C_13
REMARK    7  A    between atoms: C_19  and  O_21
REMARK                            x       y       z     vdW  Elec       q    Type
REMARK                         _______ _______ _______ _____ _____    ______ ____
ROOT
ATOM      1  C   UNL     1       0.000  -0.693  -1.207  0.00  0.00    +0.042 A 
ATOM      2  C   UNL     1       1.201  -1.027  -1.821  0.00  0.00    +0.025 A 
ATOM      3  C   UNL     1       1.200  -1.710  -3.019  0.00  0.00    +0.024 A 
ATOM      4  C   UNL     1      -0.002  -2.069  -3.623  0.00  0.00    +0.025 A 
ATOM      5  C   UNL     1      -1.206  -1.744  -3.024  0.00  0.00    +0.037 A 
ATOM      6  C   UNL     1      -1.214  -1.058  -1.806  0.00  0.00    +0.059 A 
ENDROOT
BRANCH   6   7
ATOM      7  C   UNL     1      -2.494  -0.714  -1.159  0.00  0.00    +0.246 C 
ATOM      8  O   UNL     1      -2.498  -0.112  -0.102  0.00  0.00    -0.270 OA
ATOM      9  N   UNL     1      -3.658  -1.067  -1.738  0.00  0.00    -0.306 N 
ATOM     10  H   UNL     1      -3.655  -1.546  -2.581  0.00  0.00    +0.149 HD
BRANCH   9  11
ATOM     11  C   UNL     1      -4.929  -0.725  -1.095  0.00  0.00    +0.102 C 
ATOM     12  C   UNL     1      -5.285  -1.799  -0.065  0.00  0.00    +0.025 C 
ATOM     13  C   UNL     1      -5.416  -3.153  -0.766  0.00  0.00    +0.002 C 
ATOM     14  C   UNL     1      -6.519  -3.075  -1.824  0.00  0.00    +0.003 C 
ATOM     15  C   UNL     1      -6.163  -2.001  -2.853  0.00  0.00    +0.033 C 
ATOM     16  C   UNL     1      -6.032  -0.647  -2.153  0.00  0.00    +0.135 C 
BRANCH  16  17
ATOM     17  O   UNL     1      -5.699   0.357  -3.114  0.00  0.00    -0.390 OA
ATOM     18  H   UNL     1      -6.356   0.462  -3.817  0.00  0.00    +0.210 HD
ENDBRANCH  16  17
ENDBRANCH   9  11
ENDBRANCH   6   7
BRANCH   1  20
ATOM     19  C   UNL     1      -0.018   1.461   0.010  0.00  0.00    +0.129 C 
ATOM     20  N   UNL     1       0.002  -0.004   0.002  0.00  0.00    -0.335 N 
ATOM     21  C   UNL     1       0.024  -0.743   1.267  0.00  0.00    +0.129 C 
ENDBRANCH   1  20
BRANCH   4  22
ATOM     22  N   UNL     1       0.009  -2.762  -4.839  0.00  0.00    -0.358 N 
ATOM     23  H   UNL     1       0.852  -2.990  -5.261  0.00  0.00    +0.142 HD
ATOM     24  H   UNL     1      -0.828  -3.013  -5.261  0.00  0.00    +0.142 HD
ENDBRANCH   4  22
TORSDOF 5
