REMARK  Name = ZINC08381657
REMARK  6 active torsions:
REMARK  status: ('A' for Active; 'I' for Inactive)
REMARK    1  A    between atoms: C_4  and  C_7
REMARK    2  A    between atoms: C_10  and  C_13
REMARK    3  A    between atoms: N_15  and  C_16
REMARK    4  A    between atoms: C_16  and  N_18
REMARK    5  A    between atoms: N_18  and  N_19
REMARK    6  A    between atoms: N_22  and  C_23
REMARK                            x       y       z     vdW  Elec       q    Type
REMARK                         _______ _______ _______ _____ _____    ______ ____
ROOT
ATOM      1  C   UNL     1      -1.000  -6.097   0.487  0.00  0.00    +0.250 C 
ATOM      2  O   UNL     1       0.062  -6.687   0.473  0.00  0.00    -0.270 OA
ATOM      3  N   UNL     1      -1.026  -4.753   0.393  0.00  0.00    -0.263 N 
ATOM      4  H   UNL     1      -1.874  -4.282   0.403  0.00  0.00    +0.157 HD
ENDROOT
BRANCH   1   8
ATOM      5  C   UNL     1      -4.634  -8.273   0.831  0.00  0.00    -0.018 A 
ATOM      6  C   UNL     1      -3.415  -8.951   0.816  0.00  0.00    +0.009 A 
ATOM      7  C   UNL     1      -2.237  -8.247   0.704  0.00  0.00    +0.013 A 
ATOM      8  C   UNL     1      -2.263  -6.853   0.606  0.00  0.00    +0.037 A 
ATOM      9  C   UNL     1      -3.485  -6.175   0.628  0.00  0.00    +0.013 A 
ATOM     10  C   UNL     1      -4.661  -6.881   0.734  0.00  0.00    +0.009 A 
BRANCH   5  14
ATOM     11  C   UNL     1      -8.269 -10.450   1.175  0.00  0.00    +0.000 A 
ATOM     12  C   UNL     1      -8.299  -9.070   1.079  0.00  0.00    +0.001 A 
ATOM     13  C   UNL     1      -7.122  -8.358   0.967  0.00  0.00    +0.008 A 
ATOM     14  C   UNL     1      -5.902  -9.032   0.951  0.00  0.00    -0.018 A 
ATOM     15  C   UNL     1      -5.878 -10.423   1.043  0.00  0.00    +0.008 A 
ATOM     16  C   UNL     1      -7.061 -11.124   1.159  0.00  0.00    +0.001 A 
ENDBRANCH   5  14
ENDBRANCH   1   8
BRANCH   3  17
ATOM     17  C   UNL     1       0.126  -4.063   0.284  0.00  0.00    +0.153 C 
ATOM     18  S   UNL     1       1.623  -4.893   0.265  0.00  0.00    -0.017 S 
BRANCH  17  19
ATOM     19  N   UNL     1       0.100  -2.718   0.190  0.00  0.00    -0.244 N 
ATOM     20  H   UNL     1       0.930  -2.222   0.111  0.00  0.00    +0.172 HD
BRANCH  19  21
ATOM     21  N   UNL     1      -1.125  -2.038   0.205  0.00  0.00    -0.219 N 
ATOM     22  C   UNL     1      -1.150  -0.694   0.111  0.00  0.00    +0.320 C 
ATOM     23  O   UNL     1      -2.213  -0.104   0.124  0.00  0.00    -0.251 OA
ATOM     24  N   UNL     1       0.002  -0.004   0.002  0.00  0.00    -0.268 N 
ATOM     25  H   UNL     1      -1.954  -2.535   0.284  0.00  0.00    +0.174 HD
ATOM     26  H   UNL     1       0.845  -0.477  -0.077  0.00  0.00    +0.156 HD
BRANCH  24  27
ATOM     27  C   UNL     1      -0.018   1.395   0.003  0.00  0.00    +0.035 A 
ATOM     28  C   UNL     1      -1.068   2.077  -0.597  0.00  0.00    +0.023 A 
ATOM     29  C   UNL     1      -1.088   3.458  -0.590  0.00  0.00    +0.002 A 
ATOM     30  C   UNL     1      -0.057   4.162   0.004  0.00  0.00    +0.000 A 
ATOM     31  C   UNL     1       0.994   3.486   0.597  0.00  0.00    +0.002 A 
ATOM     32  C   UNL     1       1.016   2.105   0.598  0.00  0.00    +0.023 A 
ENDBRANCH  24  27
ENDBRANCH  19  21
ENDBRANCH  17  19
ENDBRANCH   3  17
TORSDOF 6
