REMARK  Name = ZINC52834470
REMARK  3 active torsions:
REMARK  status: ('A' for Active; 'I' for Inactive)
REMARK    1  A    between atoms: C_1  and  C_2
REMARK    2  A    between atoms: C_2  and  N_9
REMARK    3  A    between atoms: N_11  and  O_12
REMARK                            x       y       z     vdW  Elec       q    Type
REMARK                         _______ _______ _______ _____ _____    ______ ____
ROOT
ATOM      1  N   UNL     1      -1.315  -0.600   0.267  0.00  0.00    -0.347 N 
ATOM      2  C   UNL     1      -2.112  -0.079   1.265  0.00  0.00    +0.232 C 
ATOM      3  N   UNL     1      -3.342  -0.483   1.393  0.00  0.00    -0.051 NA
ATOM      4  N   UNL     1      -1.605   0.872   2.128  0.00  0.00    -0.367 N 
ATOM      5  H   UNL     1      -1.645  -1.322  -0.290  0.00  0.00    +0.163 HD
ATOM      6  H   UNL     1      -0.699   1.197   2.013  0.00  0.00    +0.159 HD
ATOM      7  H   UNL     1      -2.156   1.216   2.849  0.00  0.00    +0.159 HD
ENDROOT
BRANCH   1   9
ATOM      8  C   UNL     1      -0.088   1.416  -0.326  0.00  0.00    +0.036 C 
ATOM      9  C   UNL     1       0.031  -0.063   0.049  0.00  0.00    +0.059 C 
ATOM     10  C   UNL     1       0.671  -0.814  -1.117  0.00  0.00    +0.052 C 
ATOM     11  C   UNL     1       2.217  -0.835  -0.962  0.00  0.00    +0.168 C 
ATOM     12  S   UNL     1       2.339  -1.099   0.862  0.00  0.00    -0.029 S 
ATOM     13  O   UNL     1       3.486  -0.422   1.357  0.00  0.00    -0.174 OA
ATOM     14  O   UNL     1       2.160  -2.480   1.147  0.00  0.00    -0.174 OA
ATOM     15  C   UNL     1       0.827  -0.176   1.364  0.00  0.00    +0.193 C 
ENDBRANCH   1   9
BRANCH   3  16
ATOM     16  O   UNL     1      -4.160   0.052   2.417  0.00  0.00    -0.406 OA
ATOM     17  H   UNL     1      -5.057  -0.309   2.433  0.00  0.00    +0.328 HD
ENDBRANCH   3  16
TORSDOF 2
