REMARK  Name = ZINC31960073
REMARK  10 active torsions:
REMARK  status: ('A' for Active; 'I' for Inactive)
REMARK    1  A    between atoms: C_1  and  C_2
REMARK    2  A    between atoms: C_2  and  C_3
REMARK    3  A    between atoms: C_2  and  C_4
REMARK    4  A    between atoms: C_2  and  C_5
REMARK    5  A    between atoms: C_12  and  N_18
REMARK    6  A    between atoms: C_13  and  C_14
REMARK    7  A    between atoms: C_14  and  O_16
REMARK    8  A    between atoms: O_16  and  C_17
REMARK    9  A    between atoms: C_19  and  C_21
REMARK   10  A    between atoms: C_21  and  N_22
REMARK                            x       y       z     vdW  Elec       q    Type
REMARK                         _______ _______ _______ _____ _____    ______ ____
ROOT
ATOM      1  C   UNL     1       0.002  -0.004   0.002  0.00  0.00    -0.000 C 
ATOM      2  C   UNL     1       0.742  -0.514   1.242  0.00  0.00    +0.009 C 
ATOM      3  C   UNL     1       0.984  -2.020   1.120  0.00  0.00    +0.037 C 
ATOM      4  C   UNL     1      -0.341  -2.706   0.810  0.00  0.00    -0.021 A 
ATOM      5  C   UNL     1      -1.390  -2.006   0.327  0.00  0.00    -0.004 A 
ATOM      6  S   UNL     1      -2.679  -3.203   0.126  0.00  0.00    -0.077 S 
ATOM      7  C   UNL     1      -1.838  -4.615   0.674  0.00  0.00    +0.086 A 
ATOM      8  C   UNL     1      -0.579  -4.127   1.000  0.00  0.00    +0.091 A 
ATOM      9  C   UNL     1      -1.437  -0.538   0.030  0.00  0.00    +0.046 C 
ENDROOT
BRANCH   1  11
ATOM     10  C   UNL     1       1.417   2.055  -0.000  0.00  0.00    +0.011 C 
ATOM     11  C   UNL     1      -0.019   1.526   0.010  0.00  0.00    -0.035 C 
ATOM     12  C   UNL     1      -0.759   2.033  -1.229  0.00  0.00    +0.011 C 
ATOM     13  C   UNL     1      -0.735   2.019   1.269  0.00  0.00    +0.011 C 
ENDBRANCH   1  11
BRANCH   7  14
ATOM     14  N   UNL     1      -2.307  -5.916   0.764  0.00  0.00    -0.281 N 
ATOM     15  C   UNL     1      -3.572  -6.203   0.398  0.00  0.00    +0.200 C 
ATOM     16  O   UNL     1      -4.300  -5.323  -0.011  0.00  0.00    -0.278 OA
ATOM     17  H   UNL     1      -1.647  -6.714   1.135  0.00  0.00    +0.155 HD
BRANCH  15  18
ATOM     18  C   UNL     1      -4.082  -7.618   0.496  0.00  0.00    +0.011 C 
BRANCH  18  19
ATOM     19  N   UNL     1      -5.478  -7.668   0.042  0.00  0.00    +0.384 N 
ATOM     20  H   UNL     1      -5.850  -8.700   0.113  0.00  0.00    -0.089 HD
ATOM     21  H   UNL     1      -5.535  -7.329  -1.004  0.00  0.00    -0.089 HD
ATOM     22  H   UNL     1      -6.093  -7.011   0.674  0.00  0.00    -0.089 HD
ENDBRANCH  18  19
ENDBRANCH  15  18
ENDBRANCH   7  14
BRANCH   8  23
ATOM     23  C   UNL     1       0.468  -5.011   1.516  0.00  0.00    +0.342 C 
ATOM     24  O   UNL     1       0.576  -5.191   2.714  0.00  0.00    -0.245 OA
BRANCH  23  25
ATOM     25  O   UNL     1       1.313  -5.625   0.662  0.00  0.00    -0.464 OA
ATOM     26  C   UNL     1       2.327  -6.486   1.244  0.00  0.00    +0.280 C 
ENDBRANCH  23  25
ENDBRANCH   8  23
TORSDOF 6
