REMARK  Name = ZINC16790731
REMARK  7 active torsions:
REMARK  status: ('A' for Active; 'I' for Inactive)
REMARK    1  A    between atoms: C_1  and  C_2
REMARK    2  A    between atoms: C_2  and  C_4
REMARK    3  A    between atoms: C_2  and  S_15
REMARK    4  A    between atoms: N_6  and  C_7
REMARK    5  A    between atoms: S_15  and  C_16
REMARK    6  A    between atoms: C_19  and  C_22
REMARK    7  A    between atoms: N_20  and  N_21
REMARK                            x       y       z     vdW  Elec       q    Type
REMARK                         _______ _______ _______ _____ _____    ______ ____
ROOT
ATOM      1  C   UNL     1      -0.010   1.544  -0.007  0.00  0.00    +0.029 C 
ATOM      2  C   UNL     1       0.003   0.014  -0.005  0.00  0.00    +0.137 C 
ENDROOT
BRANCH   2   3
ATOM      3  C   UNL     1       0.708  -0.483  -1.241  0.00  0.00    +0.230 C 
ATOM      4  O   UNL     1       0.067  -0.778  -2.228  0.00  0.00    -0.274 OA
ATOM      5  N   UNL     1       2.051  -0.601  -1.250  0.00  0.00    -0.282 N 
ATOM      6  H   UNL     1       2.568  -0.304  -0.485  0.00  0.00    +0.155 HD
BRANCH   5   7
ATOM      7  C   UNL     1       2.699  -1.151  -2.364  0.00  0.00    +0.069 A 
ATOM      8  C   UNL     1       2.200  -0.926  -3.639  0.00  0.00    +0.029 A 
ATOM      9  C   UNL     1       2.840  -1.469  -4.736  0.00  0.00    +0.040 A 
ATOM     10  C   UNL     1       3.979  -2.237  -4.565  0.00  0.00    +0.126 A 
ATOM     11  C   UNL     1       4.480  -2.464  -3.294  0.00  0.00    +0.078 A 
ATOM     12  C   UNL     1       3.846  -1.917  -2.193  0.00  0.00    +0.147 A 
ATOM     13  F   UNL     1       4.338  -2.133  -0.954  0.00  0.00    -0.203 F 
ATOM     14  F   UNL     1       4.603  -2.767  -5.640  0.00  0.00    -0.205 F 
ENDBRANCH   5   7
ENDBRANCH   2   3
BRANCH   2  15
ATOM     15  S   UNL     1      -1.702  -0.605   0.009  0.00  0.00    -0.072 S 
BRANCH  15  16
ATOM     16  C   UNL     1      -2.337  -0.070   1.563  0.00  0.00    +0.209 A 
ATOM     17  N   UNL     1      -1.690   0.624   2.471  0.00  0.00    -0.121 NA
ATOM     18  N   UNL     1      -2.450   0.844   3.484  0.00  0.00    -0.126 NA
ATOM     19  C   UNL     1      -3.631   0.303   3.285  0.00  0.00    +0.188 A 
ATOM     20  N   UNL     1      -3.597  -0.294   2.044  0.00  0.00    -0.223 N 
BRANCH  19  21
ATOM     21  C   UNL     1      -4.776   0.335   4.210  0.00  0.00    +0.058 A 
ATOM     22  C   UNL     1      -4.980   1.135   5.305  0.00  0.00    +0.019 A 
ATOM     23  C   UNL     1      -6.143   0.983   6.027  0.00  0.00    +0.008 A 
ATOM     24  C   UNL     1      -7.048   0.050   5.635  0.00  0.00    +0.046 A 
ATOM     25  S   UNL     1      -6.263  -0.652   4.193  0.00  0.00    -0.093 S 
ENDBRANCH  19  21
BRANCH  20  26
ATOM     26  N   UNL     1      -4.609  -0.971   1.425  0.00  0.00    -0.295 N 
ATOM     27  H   UNL     1      -4.583  -1.953   1.658  0.00  0.00    +0.163 HD
ATOM     28  H   UNL     1      -5.506  -0.569   1.654  0.00  0.00    +0.163 HD
ENDBRANCH  20  26
ENDBRANCH  15  16
ENDBRANCH   2  15
TORSDOF 6
