REMARK  Name = ZINC19321868
REMARK  8 active torsions:
REMARK  status: ('A' for Active; 'I' for Inactive)
REMARK    1  A    between atoms: C_4  and  O_38
REMARK    2  A    between atoms: C_5  and  C_7
REMARK    3  A    between atoms: C_7  and  N_8
REMARK    4  A    between atoms: N_11  and  C_30
REMARK    5  A    between atoms: C_12  and  C_13
REMARK    6  A    between atoms: C_17  and  N_20
REMARK    7  A    between atoms: C_30  and  C_31
REMARK    8  A    between atoms: C_36  and  O_37
REMARK                            x       y       z     vdW  Elec       q    Type
REMARK                         _______ _______ _______ _____ _____    ______ ____
ROOT
ATOM      1  N   UNL     1       1.387  -2.874   0.763  0.00  0.00    +0.376 N 
ATOM      2  C   UNL     1       0.200  -2.614   1.621  0.00  0.00    -0.099 C 
ATOM      3  C   UNL     1       0.644  -3.209   2.981  0.00  0.00    -0.099 C 
ATOM      4  N   UNL     1       1.430  -4.404   2.596  0.00  0.00    +0.376 N 
ATOM      5  C   UNL     1       1.887  -4.193   1.209  0.00  0.00    -0.095 C 
ATOM      6  H   UNL     1       2.090  -2.164   0.907  0.00  0.00    -0.083 HD
ATOM      7  H   UNL     1       0.849  -5.228   2.644  0.00  0.00    -0.083 HD
ENDROOT
BRANCH   5   8
ATOM      8  C   UNL     1       3.393  -4.211   1.160  0.00  0.00    -0.017 A 
ATOM      9  C   UNL     1       4.063  -5.294   0.591  0.00  0.00    +0.027 A 
ATOM     10  C   UNL     1       5.468  -5.308   0.546  0.00  0.00    +0.138 A 
ATOM     11  C   UNL     1       6.179  -4.237   1.072  0.00  0.00    +0.083 A 
ATOM     12  C   UNL     1       5.508  -3.171   1.632  0.00  0.00    +0.176 A 
ATOM     13  C   UNL     1       4.117  -3.152   1.672  0.00  0.00    +0.210 A 
ATOM     14  O   UNL     1       3.470  -2.091   2.223  0.00  0.00    -0.285 OA
ATOM     15  O   UNL     1       5.841  -6.460  -0.051  0.00  0.00    -0.459 OA
ATOM     16  C   UNL     1       4.768  -7.193  -0.392  0.00  0.00    +0.109 A 
ATOM     17  C   UNL     1       3.646  -6.548  -0.033  0.00  0.00    +0.002 A 
ATOM     18  C   UNL     1       2.248  -7.061  -0.256  0.00  0.00    +0.039 C 
ATOM     19  C   UNL     1       2.305  -8.195  -1.287  0.00  0.00    +0.005 C 
ATOM     20  C   UNL     1       3.397  -9.190  -0.884  0.00  0.00    +0.008 C 
ATOM     21  C   UNL     1       4.774  -8.543  -1.073  0.00  0.00    +0.075 C 
BRANCH  12  22
ATOM     22  N   UNL     1       6.274  -2.035   2.191  0.00  0.00    +0.060 N 
ATOM     23  O   UNL     1       7.483  -2.044   2.154  0.00  0.00    -0.126 OA
ATOM     24  O   UNL     1       5.691  -1.097   2.684  0.00  0.00    -0.126 OA
ENDBRANCH  12  22
ENDBRANCH   5   8
BRANCH   1  25
ATOM     25  C   UNL     1       0.995  -2.926  -0.651  0.00  0.00    -0.041 C 
BRANCH  25  30
ATOM     26  C   UNL     1      -1.047   0.072  -1.699  0.00  0.00    +0.000 A 
ATOM     27  C   UNL     1      -0.059   0.996  -1.986  0.00  0.00    +0.004 A 
ATOM     28  C   UNL     1       1.271   0.654  -1.842  0.00  0.00    +0.045 A 
ATOM     29  C   UNL     1       1.616  -0.618  -1.409  0.00  0.00    +0.118 A 
ATOM     30  C   UNL     1       0.624  -1.544  -1.122  0.00  0.00    -0.023 A 
ATOM     31  C   UNL     1      -0.706  -1.196  -1.267  0.00  0.00    +0.005 A 
BRANCH  29  32
ATOM     32  O   UNL     1       2.925  -0.957  -1.267  0.00  0.00    -0.507 OA
ATOM     33  H   UNL     1       3.285  -0.775  -0.388  0.00  0.00    +0.292 HD
ENDBRANCH  29  32
ENDBRANCH  25  30
ENDBRANCH   1  25
BRANCH   4  34
ATOM     34  C   UNL     1       2.588  -4.551   3.488  0.00  0.00    -0.041 C 
BRANCH  34  35
ATOM     35  C   UNL     1       2.112  -4.872   4.881  0.00  0.00    -0.023 A 
ATOM     36  C   UNL     1       2.079  -3.883   5.845  0.00  0.00    +0.005 A 
ATOM     37  C   UNL     1       1.642  -4.177   7.123  0.00  0.00    +0.000 A 
ATOM     38  C   UNL     1       1.237  -5.461   7.440  0.00  0.00    +0.004 A 
ATOM     39  C   UNL     1       1.269  -6.453   6.480  0.00  0.00    +0.045 A 
ATOM     40  C   UNL     1       1.702  -6.159   5.195  0.00  0.00    +0.118 A 
BRANCH  40  41
ATOM     41  O   UNL     1       1.729  -7.132   4.246  0.00  0.00    -0.507 OA
ATOM     42  H   UNL     1       2.533  -7.670   4.257  0.00  0.00    +0.292 HD
ENDBRANCH  40  41
ENDBRANCH  34  35
ENDBRANCH   4  34
TORSDOF 8
