REMARK  Name = ZINC49539278
REMARK  8 active torsions:
REMARK  status: ('A' for Active; 'I' for Inactive)
REMARK    1  A    between atoms: C_1  and  C_2
REMARK    2  A    between atoms: C_3  and  C_8
REMARK    3  A    between atoms: C_5  and  C_7
REMARK    4  A    between atoms: C_8  and  C_10
REMARK    5  A    between atoms: C_8  and  N_11
REMARK    6  A    between atoms: N_11  and  S_12
REMARK    7  A    between atoms: S_12  and  C_15
REMARK    8  A    between atoms: N_21  and  N_22
REMARK                            x       y       z     vdW  Elec       q    Type
REMARK                         _______ _______ _______ _____ _____    ______ ____
ROOT
ATOM      1  S   UNL     1       1.815  -0.210  -4.581  0.00  0.00    +0.059 S 
ATOM      2  O   UNL     1       2.697  -1.180  -5.129  0.00  0.00    -0.153 OA
ATOM      3  O   UNL     1       0.857   0.481  -5.370  0.00  0.00    -0.153 OA
ENDROOT
BRANCH   1   4
ATOM      4  C   UNL     1       2.826   1.020  -3.826  0.00  0.00    +0.110 A 
ATOM      5  C   UNL     1       2.350   2.310  -3.632  0.00  0.00    +0.048 A 
ATOM      6  C   UNL     1       3.167   3.250  -3.038  0.00  0.00    +0.115 A 
ATOM      7  N   UNL     1       4.390   2.938  -2.653  0.00  0.00    -0.239 NA
ATOM      8  C   UNL     1       4.880   1.720  -2.820  0.00  0.00    +0.134 A 
ATOM      9  C   UNL     1       4.110   0.721  -3.408  0.00  0.00    +0.073 A 
ATOM     10  N   UNL     1       6.174   1.434  -2.400  0.00  0.00    -0.267 N 
ATOM     11  H   UNL     1       6.537   0.543  -2.520  0.00  0.00    +0.167 HD
BRANCH  10  12
ATOM     12  N   UNL     1       6.934   2.409  -1.817  0.00  0.00    -0.255 NA
ATOM     13  H   UNL     1       6.464   2.802  -1.015  0.00  0.00    +0.140 HD
ATOM     14  H   UNL     1       7.845   2.055  -1.566  0.00  0.00    +0.140 HD
ENDBRANCH  10  12
ENDBRANCH   1   4
BRANCH   1  15
ATOM     15  N   UNL     1       0.975  -0.964  -3.369  0.00  0.00    -0.182 NA
ATOM     16  H   UNL     1       1.134  -1.902  -3.180  0.00  0.00    +0.149 HD
BRANCH  15  17
ATOM     17  C   UNL     1      -0.008  -0.215  -2.583  0.00  0.00    +0.112 C 
ATOM     18  C   UNL     1      -1.402  -0.420  -3.180  0.00  0.00    +0.031 C 
BRANCH  17  21
ATOM     19  C   UNL     1      -0.018   1.503   0.010  0.00  0.00    +0.066 C 
ATOM     20  C   UNL     1       0.002  -0.004   0.002  0.00  0.00    +0.050 A 
ATOM     21  C   UNL     1       0.006  -0.708  -1.159  0.00  0.00    +0.031 A 
ATOM     22  S   UNL     1       0.032  -2.379  -0.531  0.00  0.00    -0.075 S 
ATOM     23  C   UNL     1       0.036  -2.009   1.111  0.00  0.00    +0.076 A 
ATOM     24  N   UNL     1       0.023  -0.699   1.122  0.00  0.00    -0.249 NA
ATOM     25  C   UNL     1       0.055  -2.955   2.284  0.00  0.00    +0.073 C 
ENDBRANCH  17  21
ENDBRANCH  15  17
ENDBRANCH   1  15
TORSDOF 5
