REMARK  Name = ZINC39707794
REMARK  8 active torsions:
REMARK  status: ('A' for Active; 'I' for Inactive)
REMARK    1  A    between atoms: C_7  and  C_10
REMARK    2  A    between atoms: C_10  and  C_11
REMARK    3  A    between atoms: C_11  and  N_12
REMARK    4  A    between atoms: C_13  and  C_15
REMARK    5  A    between atoms: C_15  and  C_16
REMARK    6  A    between atoms: C_20  and  N_23
REMARK    7  A    between atoms: C_24  and  C_26
REMARK    8  A    between atoms: N_31  and  C_33
REMARK                            x       y       z     vdW  Elec       q    Type
REMARK                         _______ _______ _______ _____ _____    ______ ____
ROOT
ATOM      1  C   UNL     1      -5.722   7.668  -3.929  0.00  0.00    +0.075 C 
ATOM      2  C   UNL     1      -6.413   9.063  -3.917  0.00  0.00    +0.091 C 
ATOM      3  S   UNL     1      -5.777   9.697  -5.533  0.00  0.00    -0.121 S 
ATOM      4  C   UNL     1      -4.167   8.801  -5.518  0.00  0.00    +0.202 C 
ATOM      5  N   UNL     1      -4.369   7.765  -4.482  0.00  0.00    -0.286 NA
ATOM      6  H   UNL     1      -3.683   7.848  -3.748  0.00  0.00    +0.125 HD
ENDROOT
BRANCH   4   7
ATOM      7  N   UNL     1      -3.901   8.191  -6.823  0.00  0.00    -0.291 N 
ATOM      8  C   UNL     1      -3.486   8.955  -7.852  0.00  0.00    +0.220 C 
ATOM      9  O   UNL     1      -3.332  10.148  -7.698  0.00  0.00    -0.275 OA
ATOM     10  H   UNL     1      -4.024   7.236  -6.946  0.00  0.00    +0.151 HD
BRANCH   8  11
ATOM     11  C   UNL     1      -3.213   8.328  -9.195  0.00  0.00    +0.101 C 
ATOM     12  C   UNL     1      -2.029   7.336  -9.111  0.00  0.00    +0.110 C 
ATOM     13  C   UNL     1      -1.299   7.519 -10.423  0.00  0.00    +0.221 C 
ATOM     14  O   UNL     1      -0.485   6.744 -10.879  0.00  0.00    -0.275 OA
ATOM     15  N   UNL     1      -1.684   8.665 -11.011  0.00  0.00    -0.271 N 
ATOM     16  C   UNL     1      -2.677   9.375 -10.196  0.00  0.00    +0.127 C 
BRANCH  15  17
ATOM     17  C   UNL     1      -1.201   9.122 -12.242  0.00  0.00    +0.039 A 
ATOM     18  C   UNL     1      -0.180   8.435 -12.887  0.00  0.00    +0.024 A 
ATOM     19  C   UNL     1       0.295   8.888 -14.102  0.00  0.00    +0.005 A 
ATOM     20  C   UNL     1      -0.244  10.023 -14.678  0.00  0.00    +0.038 A 
ATOM     21  C   UNL     1      -1.262  10.710 -14.039  0.00  0.00    +0.125 A 
ATOM     22  C   UNL     1      -1.746  10.258 -12.824  0.00  0.00    +0.061 A 
ATOM     23  F   UNL     1      -1.787  11.820 -14.604  0.00  0.00    -0.205 F 
ENDBRANCH  15  17
ENDBRANCH   8  11
ENDBRANCH   4   7
BRANCH   1  24
ATOM     24  C   UNL     1      -5.643   7.133  -2.498  0.00  0.00    +0.115 C 
BRANCH  24  26
ATOM     25  N   UNL     1      -4.963   5.042  -1.364  0.00  0.00    -0.315 N 
ATOM     26  C   UNL     1      -5.117   5.720  -2.518  0.00  0.00    +0.215 C 
ATOM     27  O   UNL     1      -4.834   5.194  -3.573  0.00  0.00    -0.276 OA
ATOM     28  H   UNL     1      -5.190   5.463  -0.520  0.00  0.00    +0.149 HD
BRANCH  25  29
ATOM     29  C   UNL     1      -4.452   3.669  -1.384  0.00  0.00    +0.109 C 
BRANCH  29  30
ATOM     30  C   UNL     1      -4.373   3.133   0.047  0.00  0.00    +0.056 C 
BRANCH  30  37
ATOM     31  C   UNL     1      -0.051   1.320  -0.028  0.00  0.00    +0.001 A 
ATOM     32  C   UNL     1      -0.047  -0.068  -0.041  0.00  0.00    +0.002 A 
ATOM     33  C   UNL     1      -1.230  -0.774  -0.032  0.00  0.00    +0.026 A 
ATOM     34  C   UNL     1      -2.442  -0.092  -0.009  0.00  0.00    +0.047 A 
ATOM     35  N   UNL     1      -3.758  -0.497   0.004  0.00  0.00    -0.360 N 
ATOM     36  C   UNL     1      -4.581   0.597   0.025  0.00  0.00    +0.087 A 
ATOM     37  C   UNL     1      -3.848   1.721   0.027  0.00  0.00    -0.021 A 
ATOM     38  C   UNL     1      -2.441   1.315   0.005  0.00  0.00    +0.003 A 
ATOM     39  C   UNL     1      -1.230   2.011   0.001  0.00  0.00    +0.010 A 
ATOM     40  H   UNL     1      -4.057  -1.419  -0.002  0.00  0.00    +0.165 HD
ENDBRANCH  30  37
ENDBRANCH  29  30
ENDBRANCH  25  29
ENDBRANCH  24  26
ENDBRANCH   1  24
TORSDOF 8
