REMARK  Name = ZINC44123240
REMARK  5 active torsions:
REMARK  status: ('A' for Active; 'I' for Inactive)
REMARK    1  A    between atoms: C_1  and  C_2
REMARK    2  A    between atoms: C_2  and  O_33
REMARK    3  A    between atoms: C_7  and  O_32
REMARK    4  A    between atoms: C_15  and  O_31
REMARK    5  A    between atoms: C_21  and  C_27
REMARK                            x       y       z     vdW  Elec       q    Type
REMARK                         _______ _______ _______ _____ _____    ______ ____
ROOT
ATOM      1  C   UNL     1       0.021   1.499  -0.022  0.00  0.00    +0.047 C 
ATOM      2  C   UNL     1       0.013  -0.031  -0.010  0.00  0.00    +0.095 C 
ATOM      3  C   UNL     1      -1.408  -0.513   0.077  0.00  0.00    -0.002 A 
ATOM      4  C   UNL     1      -2.394   0.171  -0.607  0.00  0.00    +0.007 A 
ATOM      5  C   UNL     1      -3.711  -0.252  -0.552  0.00  0.00    +0.004 A 
ATOM      6  C   UNL     1      -4.061  -1.366   0.186  0.00  0.00    +0.046 A 
ATOM      7  C   UNL     1      -3.087  -2.068   0.881  0.00  0.00    +0.128 A 
ATOM      8  C   UNL     1      -1.752  -1.636   0.832  0.00  0.00    +0.065 A 
ATOM      9  C   UNL     1      -0.721  -2.366   1.585  0.00  0.00    +0.178 C 
ATOM     10  O   UNL     1      -1.025  -3.202   2.409  0.00  0.00    -0.291 OA
ATOM     11  C   UNL     1       0.733  -2.044   1.302  0.00  0.00    +0.136 C 
ATOM     12  C   UNL     1       0.851  -0.521   1.161  0.00  0.00    +0.071 C 
ATOM     13  C   UNL     1       0.424   0.164   2.459  0.00  0.00    +0.126 C 
ATOM     14  C   UNL     1       1.382  -0.250   3.573  0.00  0.00    +0.043 C 
ATOM     15  C   UNL     1       1.062   0.467   4.886  0.00  0.00    +0.087 C 
ATOM     16  C   UNL     1       2.135   0.066   5.880  0.00  0.00    +0.172 C 
ATOM     17  C   UNL     1       2.598  -1.324   5.882  0.00  0.00    +0.122 C 
ATOM     18  C   UNL     1       2.206  -2.194   4.888  0.00  0.00    +0.182 C 
ATOM     19  O   UNL     1       2.664  -3.455   4.899  0.00  0.00    -0.291 OA
ATOM     20  C   UNL     1       1.263  -1.756   3.812  0.00  0.00    +0.133 C 
ATOM     21  C   UNL     1       1.547  -2.489   2.506  0.00  0.00    +0.155 C 
ATOM     22  O   UNL     1       2.375  -3.363   2.420  0.00  0.00    -0.296 OA
ATOM     23  O   UNL     1       2.599   0.877   6.655  0.00  0.00    -0.292 OA
ENDROOT
BRANCH  17  24
ATOM     24  C   UNL     1       3.490  -1.795   6.954  0.00  0.00    +0.248 C 
ATOM     25  O   UNL     1       3.966  -2.913   6.901  0.00  0.00    -0.270 OA
ATOM     26  N   UNL     1       3.778  -0.988   7.994  0.00  0.00    -0.325 N 
ATOM     27  H   UNL     1       3.338  -0.128   8.076  0.00  0.00    +0.145 HD
ATOM     28  H   UNL     1       4.424  -1.268   8.660  0.00  0.00    +0.145 HD
ENDBRANCH  17  24
BRANCH  13  29
ATOM     29  O   UNL     1       0.467   1.582   2.289  0.00  0.00    -0.391 OA
ATOM     30  H   UNL     1       0.208   2.080   3.076  0.00  0.00    +0.210 HD
ENDBRANCH  13  29
BRANCH   7  31
ATOM     31  O   UNL     1      -3.423  -3.164   1.605  0.00  0.00    -0.506 OA
ATOM     32  H   UNL     1      -3.383  -3.992   1.107  0.00  0.00    +0.292 HD
ENDBRANCH   7  31
BRANCH   2  33
ATOM     33  O   UNL     1       0.591  -0.507  -1.227  0.00  0.00    -0.384 OA
ATOM     34  H   UNL     1       0.123  -0.222  -2.024  0.00  0.00    +0.211 HD
ENDBRANCH   2  33
TORSDOF 4
