REMARK  Name = ZINC08894136
REMARK  4 active torsions:
REMARK  status: ('A' for Active; 'I' for Inactive)
REMARK    1  A    between atoms: C_1  and  C_2
REMARK    2  A    between atoms: C_3  and  C_12
REMARK    3  A    between atoms: C_12  and  C_13
REMARK    4  A    between atoms: C_14  and  C_23
REMARK                            x       y       z     vdW  Elec       q    Type
REMARK                         _______ _______ _______ _____ _____    ______ ____
ROOT
ATOM      1  C   UNL     1      -0.072   1.260  -0.384  0.00  0.00    +0.084 C 
ENDROOT
BRANCH   1   4
ATOM      2  C   UNL     1       1.014   3.714  -1.405  0.00  0.00    +0.064 C 
ATOM      3  C   UNL     1      -0.265   3.156  -1.974  0.00  0.00    +0.024 A 
ATOM      4  C   UNL     1      -0.775   2.002  -1.492  0.00  0.00    +0.040 A 
ATOM      5  C   UNL     1      -1.981   1.501  -2.038  0.00  0.00    +0.256 A 
ATOM      6  O   UNL     1      -2.463   0.464  -1.618  0.00  0.00    -0.267 OA
ATOM      7  N   UNL     1      -2.592   2.182  -3.029  0.00  0.00    -0.303 N 
ATOM      8  H   UNL     1      -3.529   1.802  -3.461  0.00  0.00    +0.171 HD
ATOM      9  C   UNL     1      -2.059   3.327  -3.493  0.00  0.00    +0.158 A 
ATOM     10  S   UNL     1      -2.851   4.178  -4.751  0.00  0.00    -0.013 S 
ATOM     11  N   UNL     1      -0.913   3.814  -2.982  0.00  0.00    -0.339 N 
ATOM     12  H   UNL     1      -0.498   4.750  -3.384  0.00  0.00    +0.167 HD
ENDBRANCH   1   4
BRANCH   1  13
ATOM     13  C   UNL     1      -0.757   1.550   0.927  0.00  0.00    +0.040 A 
ATOM     14  C   UNL     1      -1.540   0.618   1.511  0.00  0.00    +0.024 A 
ATOM     15  N   UNL     1      -2.151   0.896   2.703  0.00  0.00    -0.339 N 
ATOM     16  H   UNL     1      -2.783   0.137   3.187  0.00  0.00    +0.167 HD
ATOM     17  C   UNL     1      -1.986   2.093   3.294  0.00  0.00    +0.158 A 
ATOM     18  S   UNL     1      -2.769   2.413   4.783  0.00  0.00    -0.013 S 
ATOM     19  N   UNL     1      -1.215   3.042   2.732  0.00  0.00    -0.303 N 
ATOM     20  H   UNL     1      -1.091   4.016   3.229  0.00  0.00    +0.171 HD
ATOM     21  C   UNL     1      -0.593   2.806   1.560  0.00  0.00    +0.256 A 
ATOM     22  O   UNL     1       0.105   3.664   1.050  0.00  0.00    -0.267 OA
ATOM     23  C   UNL     1      -1.736  -0.725   0.855  0.00  0.00    +0.064 C 
ENDBRANCH   1  13
TORSDOF 2
