REMARK  Name = ZINC00799800
REMARK  7 active torsions:
REMARK  status: ('A' for Active; 'I' for Inactive)
REMARK    1  A    between atoms: C_1  and  C_2
REMARK    2  A    between atoms: C_3  and  C_19
REMARK    3  A    between atoms: C_4  and  C_10
REMARK    4  A    between atoms: C_13  and  N_16
REMARK    5  A    between atoms: N_16  and  C_17
REMARK    6  A    between atoms: N_16  and  C_18
REMARK    7  A    between atoms: N_21  and  C_22
REMARK                            x       y       z     vdW  Elec       q    Type
REMARK                         _______ _______ _______ _____ _____    ______ ____
ROOT
ATOM      1  C   UNL     1       0.175   4.486  -0.719  0.00  0.00    +0.061 C 
ATOM      2  C   UNL     1      -0.059   3.136  -0.092  0.00  0.00    +0.017 C 
ATOM      3  C   UNL     1      -1.304   2.793   0.302  0.00  0.00    +0.056 C 
ATOM      4  C   UNL     1      -1.497   1.425   0.923  0.00  0.00    +0.139 C 
ATOM      5  N   UNL     1      -0.299   0.579   1.057  0.00  0.00    -0.315 N 
ATOM      6  C   UNL     1       0.880   1.061   0.616  0.00  0.00    +0.135 C 
ATOM      7  S   UNL     1       2.280   0.086   0.759  0.00  0.00    -0.019 S 
ATOM      8  N   UNL     1       0.992   2.279   0.070  0.00  0.00    -0.300 N 
ATOM      9  H   UNL     1      -0.357  -0.306   1.450  0.00  0.00    +0.149 HD
ATOM     10  H   UNL     1       1.868   2.568  -0.228  0.00  0.00    +0.154 HD
ENDROOT
BRANCH   4  11
ATOM     11  C   UNL     1      -2.083   1.621   2.297  0.00  0.00    -0.023 A 
ATOM     12  C   UNL     1      -1.272   2.026   3.342  0.00  0.00    +0.007 A 
ATOM     13  C   UNL     1      -1.808   2.212   4.601  0.00  0.00    +0.023 A 
ATOM     14  C   UNL     1      -3.159   1.981   4.821  0.00  0.00    +0.029 A 
ATOM     15  C   UNL     1      -3.970   1.569   3.771  0.00  0.00    +0.023 A 
ATOM     16  C   UNL     1      -3.429   1.390   2.512  0.00  0.00    +0.007 A 
BRANCH  14  17
ATOM     17  N   UNL     1      -3.703   2.162   6.095  0.00  0.00    -0.336 N 
ATOM     18  C   UNL     1      -5.129   1.917   6.324  0.00  0.00    +0.129 C 
ATOM     19  C   UNL     1      -2.847   2.597   7.201  0.00  0.00    +0.129 C 
ENDBRANCH  14  17
ENDBRANCH   4  11
BRANCH   3  20
ATOM     20  C   UNL     1      -2.395   3.682   0.136  0.00  0.00    +0.248 C 
ATOM     21  O   UNL     1      -3.207   3.489  -0.751  0.00  0.00    -0.270 OA
ATOM     22  N   UNL     1      -2.534   4.740   0.958  0.00  0.00    -0.282 N 
ATOM     23  H   UNL     1      -1.847   4.937   1.615  0.00  0.00    +0.155 HD
BRANCH  22  24
ATOM     24  C   UNL     1      -3.667   5.554   0.865  0.00  0.00    +0.034 A 
ATOM     25  C   UNL     1      -4.244   5.806  -0.373  0.00  0.00    +0.025 A 
ATOM     26  C   UNL     1      -5.366   6.606  -0.461  0.00  0.00    +0.022 A 
ATOM     27  C   UNL     1      -5.910   7.166   0.682  0.00  0.00    +0.041 A 
ATOM     28  C   UNL     1      -5.335   6.921   1.916  0.00  0.00    +0.022 A 
ATOM     29  C   UNL     1      -4.215   6.117   2.011  0.00  0.00    +0.025 A 
ATOM     30 CL   UNL     1      -7.317   8.176   0.567  0.00  0.00    -0.084 Cl
ENDBRANCH  22  24
ENDBRANCH   3  20
TORSDOF 4
