REMARK  Name = ZINC50305406
REMARK  4 active torsions:
REMARK  status: ('A' for Active; 'I' for Inactive)
REMARK    1  A    between atoms: C_1  and  C_2
REMARK    2  A    between atoms: C_3  and  N_21
REMARK    3  A    between atoms: C_4  and  C_8
REMARK    4  A    between atoms: N_10  and  C_11
REMARK                            x       y       z     vdW  Elec       q    Type
REMARK                         _______ _______ _______ _____ _____    ______ ____
ROOT
ATOM      1  C   UNL     1       0.042  -3.372  -1.392  0.00  0.00    +0.266 C 
ATOM      2  O   UNL     1       0.035  -3.313  -2.607  0.00  0.00    -0.268 OA
ATOM      3  N   UNL     1       0.062  -4.571  -0.776  0.00  0.00    -0.304 N 
ATOM      4  H   UNL     1       0.068  -4.618   0.192  0.00  0.00    +0.150 HD
ENDROOT
BRANCH   3   5
ATOM      5  C   UNL     1       0.075  -5.802  -1.570  0.00  0.00    +0.036 C 
ATOM      6  C   UNL     1       1.320  -5.823  -2.459  0.00  0.00    +0.029 C 
ATOM      7  C   UNL     1       1.333  -7.109  -3.288  0.00  0.00    -0.008 C 
ATOM      8  C   UNL     1       1.355  -8.319  -2.352  0.00  0.00    +0.007 C 
ATOM      9  C   UNL     1       0.110  -8.298  -1.463  0.00  0.00    -0.008 C 
ATOM     10  C   UNL     1       0.097  -7.012  -0.634  0.00  0.00    +0.029 C 
ATOM     11  C   UNL     1      -1.143  -8.353  -2.339  0.00  0.00    +0.007 C 
ATOM     12  C   UNL     1      -1.165  -7.143  -3.275  0.00  0.00    -0.008 C 
ATOM     13  C   UNL     1       0.080  -7.164  -4.164  0.00  0.00    +0.007 C 
ATOM     14  C   UNL     1      -1.179  -5.857  -2.446  0.00  0.00    +0.029 C 
ENDBRANCH   3   5
BRANCH   1  18
ATOM     15  C   UNL     1      -0.018   1.503   0.010  0.00  0.00    +0.067 C 
ATOM     16  C   UNL     1       0.002  -0.004   0.002  0.00  0.00    +0.054 A 
ATOM     17  C   UNL     1       0.008  -0.806  -1.096  0.00  0.00    +0.078 A 
ATOM     18  C   UNL     1       0.029  -2.133  -0.594  0.00  0.00    +0.168 A 
ATOM     19  N   UNL     1       0.034  -2.049   0.723  0.00  0.00    -0.167 NA
ATOM     20  N   UNL     1       0.024  -0.818   1.090  0.00  0.00    -0.279 N 
ATOM     21  H   UNL     1       0.029  -0.513   2.011  0.00  0.00    +0.189 HD
BRANCH  17  22
ATOM     22  N   UNL     1      -0.004  -0.407  -2.440  0.00  0.00    -0.355 N 
ATOM     23  H   UNL     1      -0.018   0.537  -2.666  0.00  0.00    +0.142 HD
ATOM     24  H   UNL     1       0.002  -1.074  -3.144  0.00  0.00    +0.142 HD
ENDBRANCH  17  22
ENDBRANCH   1  18
TORSDOF 3
