REMARK  Name = ZINC50350920
REMARK  5 active torsions:
REMARK  status: ('A' for Active; 'I' for Inactive)
REMARK    1  A    between atoms: C_1  and  C_2
REMARK    2  A    between atoms: C_5  and  N_9
REMARK    3  A    between atoms: C_6  and  N_8
REMARK    4  A    between atoms: N_9  and  S_10
REMARK    5  A    between atoms: S_10  and  C_13
REMARK                            x       y       z     vdW  Elec       q    Type
REMARK                         _______ _______ _______ _____ _____    ______ ____
ROOT
ATOM      1  N   UNL     1       0.059  -4.175  -0.034  0.00  0.00    -0.100 NA
ENDROOT
BRANCH   1   6
ATOM      2  C   UNL     1      -0.018   1.503   0.010  0.00  0.00    +0.044 C 
ATOM      3  C   UNL     1       0.002  -0.004   0.002  0.00  0.00    -0.049 A 
ATOM      4  C   UNL     1       0.006  -0.687  -1.200  0.00  0.00    +0.005 A 
ATOM      5  C   UNL     1       0.025  -2.069  -1.215  0.00  0.00    +0.029 A 
ATOM      6  C   UNL     1       0.040  -2.775  -0.021  0.00  0.00    +0.094 A 
ATOM      7  C   UNL     1       0.037  -2.086   1.192  0.00  0.00    +0.050 A 
ATOM      8  C   UNL     1       0.023  -0.700   1.197  0.00  0.00    +0.028 A 
BRANCH   7   9
ATOM      9  N   UNL     1       0.052  -2.793   2.400  0.00  0.00    -0.356 N 
ATOM     10  H   UNL     1       0.065  -3.763   2.395  0.00  0.00    +0.142 HD
ATOM     11  H   UNL     1       0.050  -2.313   3.243  0.00  0.00    +0.142 HD
ENDBRANCH   7   9
ENDBRANCH   1   6
BRANCH   1  12
ATOM     12  S   UNL     1       0.062  -4.990  -1.475  0.00  0.00    +0.065 S 
ATOM     13  O   UNL     1      -1.181  -4.660  -2.081  0.00  0.00    -0.153 OA
ATOM     14  O   UNL     1       1.289  -4.628  -2.094  0.00  0.00    -0.153 OA
BRANCH  12  15
ATOM     15  C   UNL     1       0.087  -6.745  -1.018  0.00  0.00    +0.156 C 
ATOM     16  C   UNL     1       1.258  -7.002  -0.074  0.00  0.00    +0.051 C 
ATOM     17  C   UNL     1       1.143  -8.402   0.534  0.00  0.00    +0.168 C 
ATOM     18  S   UNL     1       1.259  -9.633  -0.798  0.00  0.00    -0.031 S 
ATOM     19  O   UNL     1       0.875 -10.898  -0.279  0.00  0.00    -0.174 OA
ATOM     20  O   UNL     1       2.525  -9.497  -1.429  0.00  0.00    -0.174 OA
ATOM     21  C   UNL     1      -0.028  -9.066  -1.949  0.00  0.00    +0.168 C 
ATOM     22  C   UNL     1       0.218  -7.592  -2.281  0.00  0.00    +0.051 C 
ENDBRANCH  12  15
ENDBRANCH   1  12
TORSDOF 4
