REMARK  Name = ZINC37933955
REMARK  6 active torsions:
REMARK  status: ('A' for Active; 'I' for Inactive)
REMARK    1  A    between atoms: C_1  and  N_2
REMARK    2  A    between atoms: N_2  and  C_3
REMARK    3  A    between atoms: N_2  and  C_9
REMARK    4  A    between atoms: C_11  and  N_19
REMARK    5  A    between atoms: C_13  and  S_15
REMARK    6  A    between atoms: S_15  and  N_18
REMARK                            x       y       z     vdW  Elec       q    Type
REMARK                         _______ _______ _______ _____ _____    ______ ____
ROOT
ATOM      1  C   UNL     1       0.040  -0.708  -1.204  0.00  0.00    +0.037 A 
ATOM      2  C   UNL     1      -0.019  -2.095  -1.202  0.00  0.00    +0.046 A 
ATOM      3  C   UNL     1       0.019  -2.790  -2.402  0.00  0.00    +0.028 A 
ATOM      4  C   UNL     1       0.116  -2.096  -3.602  0.00  0.00    +0.051 A 
ATOM      5  C   UNL     1       0.175  -0.716  -3.601  0.00  0.00    +0.109 A 
ATOM      6  C   UNL     1       0.131  -0.020  -2.408  0.00  0.00    +0.052 A 
ENDROOT
BRANCH   5   7
ATOM      7  S   UNL     1       0.299   0.160  -5.125  0.00  0.00    +0.056 S 
ATOM      8  O   UNL     1       0.888   1.417  -4.824  0.00  0.00    -0.153 OA
ATOM      9  O   UNL     1       0.867  -0.741  -6.066  0.00  0.00    -0.153 OA
BRANCH   7  10
ATOM     10  N   UNL     1      -1.244   0.470  -5.639  0.00  0.00    -0.204 NA
ATOM     11  H   UNL     1      -2.001   0.173  -5.109  0.00  0.00    +0.144 HD
ATOM     12  H   UNL     1      -1.392   0.950  -6.469  0.00  0.00    +0.144 HD
ENDBRANCH   7  10
ENDBRANCH   5   7
BRANCH   3  13
ATOM     13  N   UNL     1      -0.039  -4.185  -2.404  0.00  0.00    -0.358 N 
ATOM     14  H   UNL     1      -0.106  -4.669  -1.566  0.00  0.00    +0.142 HD
ATOM     15  H   UNL     1      -0.012  -4.671  -3.243  0.00  0.00    +0.142 HD
ENDBRANCH   3  13
BRANCH   1  17
ATOM     16  C   UNL     1      -1.284   0.403   0.572  0.00  0.00    +0.135 C 
ATOM     17  N   UNL     1       0.002  -0.004   0.002  0.00  0.00    -0.303 N 
BRANCH  17  18
ATOM     18  C   UNL     1       1.191   0.311   0.665  0.00  0.00    +0.034 A 
ATOM     19  C   UNL     1       2.404  -0.167   0.184  0.00  0.00    +0.023 A 
ATOM     20  C   UNL     1       3.577   0.147   0.842  0.00  0.00    +0.002 A 
ATOM     21  C   UNL     1       3.546   0.936   1.977  0.00  0.00    +0.000 A 
ATOM     22  C   UNL     1       2.340   1.414   2.458  0.00  0.00    +0.002 A 
ATOM     23  C   UNL     1       1.164   1.108   1.802  0.00  0.00    +0.023 A 
ENDBRANCH  17  18
ENDBRANCH   1  17
TORSDOF 5
