REMARK  Name = ZINC20682270
REMARK  8 active torsions:
REMARK  status: ('A' for Active; 'I' for Inactive)
REMARK    1  A    between atoms: C_1  and  C_2
REMARK    2  A    between atoms: C_2  and  C_3
REMARK    3  A    between atoms: C_3  and  C_5
REMARK    4  A    between atoms: C_3  and  N_6
REMARK    5  A    between atoms: C_7  and  C_9
REMARK    6  A    between atoms: C_16  and  C_25
REMARK    7  A    between atoms: C_28  and  O_32
REMARK    8  A    between atoms: C_30  and  O_31
REMARK                            x       y       z     vdW  Elec       q    Type
REMARK                         _______ _______ _______ _____ _____    ______ ____
ROOT
ATOM      1  C   UNL     1      -3.391   0.850   3.244  0.00  0.00    +0.058 A 
ATOM      2  C   UNL     1      -4.178  -0.151   2.673  0.00  0.00    +0.015 A 
ATOM      3  C   UNL     1      -3.983  -0.502   1.355  0.00  0.00    +0.001 A 
ATOM      4  C   UNL     1      -3.012   0.133   0.602  0.00  0.00    +0.006 A 
ATOM      5  C   UNL     1      -2.219   1.130   1.151  0.00  0.00    -0.019 A 
ATOM      6  C   UNL     1      -2.405   1.496   2.474  0.00  0.00    +0.044 A 
ATOM      7  N   UNL     1      -1.653   2.490   3.080  0.00  0.00    -0.336 N 
ATOM      8  C   UNL     1      -0.327   2.673   2.460  0.00  0.00    +0.108 C 
ATOM      9  C   UNL     1      -0.519   2.978   0.973  0.00  0.00    +0.029 C 
ATOM     10  C   UNL     1      -1.185   1.770   0.273  0.00  0.00    +0.049 C 
ATOM     11  C   UNL     1      -0.039   0.818   0.017  0.00  0.00    -0.023 C 
ATOM     12  C   UNL     1       1.102   1.461   0.029  0.00  0.00    -0.030 C 
ATOM     13  C   UNL     1       0.879   2.936   0.294  0.00  0.00    +0.033 C 
ATOM     14  H   UNL     1      -1.952   3.115   3.935  0.00  0.00    +0.147 HD
ENDROOT
BRANCH   8  15
ATOM     15  C   UNL     1       0.408   3.814   3.116  0.00  0.00    +0.015 A 
ATOM     16  C   UNL     1       1.729   3.658   3.492  0.00  0.00    +0.012 A 
ATOM     17  C   UNL     1       2.406   4.701   4.093  0.00  0.00    +0.046 A 
ATOM     18  C   UNL     1       1.762   5.909   4.320  0.00  0.00    +0.120 A 
ATOM     19  C   UNL     1       0.437   6.068   3.944  0.00  0.00    +0.091 A 
ATOM     20  C   UNL     1      -0.239   5.021   3.336  0.00  0.00    +0.125 A 
BRANCH  20  21
ATOM     21  O   UNL     1      -1.536   5.175   2.961  0.00  0.00    -0.506 OA
ATOM     22  H   UNL     1      -2.049   6.133   3.136  0.00  0.00    +0.292 HD
ENDBRANCH  20  21
BRANCH  18  23
ATOM     23  O   UNL     1       2.429   6.936   4.910  0.00  0.00    -0.507 OA
ATOM     24  H   UNL     1       1.917   7.893   5.090  0.00  0.00    +0.292 HD
ENDBRANCH  18  23
ENDBRANCH   8  15
BRANCH   1  26
ATOM     25  N   UNL     1      -4.432   0.520   5.431  0.00  0.00    -0.309 N 
ATOM     26  C   UNL     1      -3.593   1.232   4.653  0.00  0.00    +0.246 C 
ATOM     27  O   UNL     1      -3.001   2.189   5.115  0.00  0.00    -0.270 OA
ATOM     28  H   UNL     1      -4.967  -0.346   5.014  0.00  0.00    +0.149 HD
BRANCH  25  29
ATOM     29  C   UNL     1      -4.632   0.899   6.832  0.00  0.00    +0.070 C 
ATOM     30  C   UNL     1      -5.707   1.984   6.918  0.00  0.00    +0.028 C 
BRANCH  29  32
ATOM     31  C   UNL     1      -3.953  -1.361   7.651  0.00  0.00    +0.005 C 
ATOM     32  C   UNL     1      -5.079  -0.326   7.633  0.00  0.00    +0.018 C 
ENDBRANCH  29  32
ENDBRANCH  25  29
ENDBRANCH   1  26
TORSDOF 6
