REMARK  Name = ZINC01015805
REMARK  7 active torsions:
REMARK  status: ('A' for Active; 'I' for Inactive)
REMARK    1  A    between atoms: C_1  and  C_2
REMARK    2  A    between atoms: C_3  and  C_18
REMARK    3  A    between atoms: C_4  and  C_10
REMARK    4  A    between atoms: C_18  and  O_20
REMARK    5  A    between atoms: O_20  and  C_21
REMARK    6  A    between atoms: C_21  and  C_22
REMARK    7  A    between atoms: C_21  and  C_23
REMARK                            x       y       z     vdW  Elec       q    Type
REMARK                         _______ _______ _______ _____ _____    ______ ____
ROOT
ATOM      1  C   UNL     1       0.137   0.001   0.043  0.00  0.00    +0.061 C 
ATOM      2  C   UNL     1       0.045   1.505   0.029  0.00  0.00    +0.021 C 
ATOM      3  C   UNL     1       1.178   2.240   0.000  0.00  0.00    +0.078 C 
ATOM      4  C   UNL     1       1.039   3.749  -0.013  0.00  0.00    +0.149 C 
ATOM      5  N   UNL     1      -0.329   4.294   0.007  0.00  0.00    -0.288 N 
ATOM      6  C   UNL     1      -1.363   3.430   0.036  0.00  0.00    +0.304 C 
ATOM      7  O   UNL     1      -2.496   3.870   0.053  0.00  0.00    -0.252 OA
ATOM      8  N   UNL     1      -1.183   2.103   0.041  0.00  0.00    -0.273 N 
ATOM      9  H   UNL     1      -0.482   5.251   0.001  0.00  0.00    +0.151 HD
ATOM     10  H   UNL     1      -1.969   1.534   0.058  0.00  0.00    +0.156 HD
ENDROOT
BRANCH   4  11
ATOM     11  C   UNL     1       1.727   4.268  -1.250  0.00  0.00    +0.048 A 
ATOM     12  C   UNL     1       1.130   4.115  -2.489  0.00  0.00    +0.131 A 
ATOM     13  C   UNL     1       1.761   4.596  -3.624  0.00  0.00    +0.039 A 
ATOM     14  C   UNL     1       2.990   5.219  -3.521  0.00  0.00    +0.006 A 
ATOM     15  C   UNL     1       3.589   5.368  -2.284  0.00  0.00    +0.039 A 
ATOM     16  C   UNL     1       2.958   4.892  -1.147  0.00  0.00    +0.131 A 
ATOM     17  F   UNL     1       3.544   5.037   0.062  0.00  0.00    -0.205 F 
ATOM     18  F   UNL     1      -0.069   3.501  -2.591  0.00  0.00    -0.205 F 
ENDBRANCH   4  11
BRANCH   3  19
ATOM     19  C   UNL     1       2.450   1.622  -0.018  0.00  0.00    +0.339 C 
ATOM     20  O   UNL     1       2.537   0.412  -0.115  0.00  0.00    -0.245 OA
BRANCH  19  21
ATOM     21  O   UNL     1       3.567   2.374   0.072  0.00  0.00    -0.459 OA
BRANCH  21  22
ATOM     22  C   UNL     1       4.817   1.684   0.047  0.00  0.00    +0.171 C 
ATOM     23  C   UNL     1       5.885   2.585  -0.576  0.00  0.00    +0.052 C 
ATOM     24  C   UNL     1       5.227   1.319   1.476  0.00  0.00    +0.052 C 
ENDBRANCH  21  22
ENDBRANCH  19  21
ENDBRANCH   3  19
TORSDOF 4
