REMARK  Name = ZINC19242339
REMARK  9 active torsions:
REMARK  status: ('A' for Active; 'I' for Inactive)
REMARK    1  A    between atoms: C_1  and  C_2
REMARK    2  A    between atoms: C_6  and  C_9
REMARK    3  A    between atoms: C_7  and  N_8
REMARK    4  A    between atoms: C_9  and  O_11
REMARK    5  A    between atoms: O_11  and  C_12
REMARK    6  A    between atoms: C_12  and  C_13
REMARK    7  A    between atoms: N_15  and  C_16
REMARK    8  A    between atoms: C_16  and  C_17
REMARK    9  A    between atoms: N_19  and  C_20
REMARK                            x       y       z     vdW  Elec       q    Type
REMARK                         _______ _______ _______ _____ _____    ______ ____
ROOT
ATOM      1  C   UNL     1      -1.275   6.512   0.242  0.00  0.00    +0.251 C 
ATOM      2  O   UNL     1      -2.248   5.793   0.325  0.00  0.00    -0.272 OA
ATOM      3  N   UNL     1      -1.421   7.852   0.277  0.00  0.00    -0.304 N 
ATOM      4  H   UNL     1      -0.538   8.504   0.202  0.00  0.00    +0.149 HD
ENDROOT
BRANCH   1   5
ATOM      5  C   UNL     1       0.098   5.908   0.100  0.00  0.00    +0.328 C 
BRANCH   5   6
ATOM      6  O   UNL     1      -0.009   4.460   0.088  0.00  0.00    -0.452 OA
BRANCH   6   7
ATOM      7  C   UNL     1       1.138   3.763  -0.033  0.00  0.00    +0.341 C 
ATOM      8  O   UNL     1       2.198   4.348  -0.127  0.00  0.00    -0.245 OA
BRANCH   7  14
ATOM      9  C   UNL     1       3.540  -0.625  -0.108  0.00  0.00    +0.045 C 
ATOM     10  C   UNL     1       2.259   0.169  -0.089  0.00  0.00    -0.029 A 
ATOM     11  C   UNL     1       1.044  -0.484  -0.090  0.00  0.00    +0.005 A 
ATOM     12  C   UNL     1      -0.140   0.236  -0.073  0.00  0.00    +0.001 A 
ATOM     13  C   UNL     1      -0.117   1.613  -0.054  0.00  0.00    +0.017 A 
ATOM     14  C   UNL     1       1.106   2.290  -0.053  0.00  0.00    +0.080 A 
ATOM     15  C   UNL     1       2.303   1.557  -0.070  0.00  0.00    +0.042 A 
BRANCH  15  16
ATOM     16  N   UNL     1       3.525   2.216  -0.068  0.00  0.00    -0.357 N 
ATOM     17  H   UNL     1       3.557   3.316  -0.053  0.00  0.00    +0.142 HD
ATOM     18  H   UNL     1       4.462   1.639  -0.082  0.00  0.00    +0.142 HD
ENDBRANCH  15  16
ENDBRANCH   7  14
ENDBRANCH   6   7
ENDBRANCH   5   6
ENDBRANCH   1   5
BRANCH   3  19
ATOM     19  C   UNL     1      -2.756   8.439   0.415  0.00  0.00    +0.200 C 
BRANCH  19  20
ATOM     20  C   UNL     1      -2.645   9.942   0.427  0.00  0.00    +0.234 C 
ATOM     21  O   UNL     1      -1.557  10.470   0.330  0.00  0.00    -0.274 OA
ATOM     22  N   UNL     1      -3.753  10.699   0.546  0.00  0.00    -0.283 N 
ATOM     23  H   UNL     1      -4.728  10.222   0.726  0.00  0.00    +0.155 HD
BRANCH  22  24
ATOM     24  C   UNL     1      -3.665  12.092   0.440  0.00  0.00    +0.047 A 
ATOM     25  C   UNL     1      -2.620  12.671  -0.268  0.00  0.00    +0.024 A 
ATOM     26  C   UNL     1      -2.537  14.045  -0.373  0.00  0.00    +0.002 A 
ATOM     27  C   UNL     1      -3.488  14.846   0.233  0.00  0.00    +0.001 A 
ATOM     28  C   UNL     1      -4.527  14.273   0.943  0.00  0.00    +0.017 A 
ATOM     29  C   UNL     1      -4.618  12.898   1.049  0.00  0.00    +0.039 A 
ATOM     30 BR   UNL     1      -6.038  12.116   2.022  0.00  0.00    -0.048 Br
ENDBRANCH  22  24
ENDBRANCH  19  20
ENDBRANCH   3  19
TORSDOF 8
