REMARK  Name = ZINC26895595
REMARK  6 active torsions:
REMARK  status: ('A' for Active; 'I' for Inactive)
REMARK    1  A    between atoms: C_1  and  C_2
REMARK    2  A    between atoms: C_2  and  C_3
REMARK    3  A    between atoms: C_3  and  C_30
REMARK    4  A    between atoms: N_19  and  N_20
REMARK    5  A    between atoms: C_21  and  C_23
REMARK    6  A    between atoms: C_23  and  C_24
REMARK                            x       y       z     vdW  Elec       q    Type
REMARK                         _______ _______ _______ _____ _____    ______ ____
ROOT
ATOM      1  C   UNL     1       0.742  -0.511   1.242  0.00  0.00    +0.004 C 
ATOM      2  C   UNL     1       0.781  -2.030   1.093  0.00  0.00    +0.047 C 
ATOM      3  C   UNL     1      -0.587  -2.618   1.312  0.00  0.00    -0.037 A 
ATOM      4  C   UNL     1      -1.000  -3.716   0.586  0.00  0.00    +0.004 A 
ATOM      5  C   UNL     1      -2.257  -4.253   0.796  0.00  0.00    +0.000 A 
ATOM      6  C   UNL     1      -3.109  -3.696   1.734  0.00  0.00    +0.001 A 
ATOM      7  C   UNL     1      -2.708  -2.596   2.466  0.00  0.00    +0.010 A 
ATOM      8  C   UNL     1      -1.445  -2.051   2.256  0.00  0.00    +0.004 A 
ATOM      9  C   UNL     1      -0.990  -0.867   3.018  0.00  0.00    +0.084 A 
ATOM     10  C   UNL     1       0.073  -0.122   2.529  0.00  0.00    +0.049 A 
ATOM     11  C   UNL     1       0.506   0.994   3.257  0.00  0.00    +0.257 A 
ATOM     12  O   UNL     1       1.439   1.673   2.860  0.00  0.00    -0.267 OA
ATOM     13  N   UNL     1      -0.132   1.303   4.407  0.00  0.00    -0.294 N 
ATOM     14  H   UNL     1       0.154   2.071   4.926  0.00  0.00    +0.172 HD
ATOM     15  C   UNL     1      -1.173   0.542   4.839  0.00  0.00    +0.213 A 
ATOM     16  N   UNL     1      -1.586  -0.509   4.161  0.00  0.00    -0.214 NA
ATOM     17  N   UNL     1      -1.808   0.877   6.006  0.00  0.00    -0.234 N 
ATOM     18  C   UNL     1       2.172   0.033   1.232  0.00  0.00    +0.016 C 
ATOM     19  H   UNL     1      -1.513   1.648   6.514  0.00  0.00    +0.173 HD
ENDROOT
BRANCH  17  20
ATOM     20  N   UNL     1      -2.882   0.104   6.466  0.00  0.00    -0.234 N 
ATOM     21  C   UNL     1      -3.506   0.433   7.614  0.00  0.00    +0.233 C 
ATOM     22  O   UNL     1      -3.137   1.398   8.250  0.00  0.00    -0.274 OA
ATOM     23  H   UNL     1      -3.177  -0.668   5.958  0.00  0.00    +0.173 HD
BRANCH  21  24
ATOM     24  C   UNL     1      -4.662  -0.398   8.109  0.00  0.00    +0.132 C 
BRANCH  24  25
ATOM     25  C   UNL     1      -5.178   0.179   9.402  0.00  0.00    -0.039 A 
ATOM     26  C   UNL     1      -4.650  -0.246  10.607  0.00  0.00    +0.004 A 
ATOM     27  C   UNL     1      -5.123   0.282  11.794  0.00  0.00    +0.000 A 
ATOM     28  C   UNL     1      -6.123   1.236  11.775  0.00  0.00    +0.000 A 
ATOM     29  C   UNL     1      -6.650   1.662  10.570  0.00  0.00    +0.000 A 
ATOM     30  C   UNL     1      -6.174   1.136   9.384  0.00  0.00    +0.004 A 
ENDBRANCH  24  25
ENDBRANCH  21  24
ENDBRANCH  17  20
BRANCH   1  32
ATOM     31  C   UNL     1      -0.051   1.615   0.197  0.00  0.00    +0.005 C 
ATOM     32  C   UNL     1      -0.034   0.091   0.068  0.00  0.00    +0.008 C 
ENDBRANCH   1  32
TORSDOF 4
