REMARK  Name = ZINC32106805
REMARK  10 active torsions:
REMARK  status: ('A' for Active; 'I' for Inactive)
REMARK    1  A    between atoms: C_1  and  C_2
REMARK    2  A    between atoms: C_2  and  C_3
REMARK    3  A    between atoms: C_2  and  C_4
REMARK    4  A    between atoms: C_4  and  N_5
REMARK    5  A    between atoms: N_13  and  C_41
REMARK    6  A    between atoms: N_29  and  C_30
REMARK    7  A    between atoms: C_30  and  C_31
REMARK    8  A    between atoms: C_31  and  C_32
REMARK    9  A    between atoms: C_31  and  C_33
REMARK   10  A    between atoms: N_39  and  C_40
REMARK                            x       y       z     vdW  Elec       q    Type
REMARK                         _______ _______ _______ _____ _____    ______ ____
ROOT
ATOM      1  N   UNL     1      -4.025  -3.994  -1.036  0.00  0.00    -0.306 N 
ATOM      2  C   UNL     1      -3.956  -5.362  -0.805  0.00  0.00    +0.153 A 
ATOM      3  C   UNL     1      -4.772  -6.458  -1.136  0.00  0.00    +0.280 A 
ATOM      4  O   UNL     1      -5.799  -6.292  -1.770  0.00  0.00    -0.265 OA
ATOM      5  N   UNL     1      -4.404  -7.696  -0.745  0.00  0.00    -0.273 N 
ATOM      6  H   UNL     1      -5.034  -8.562  -0.997  0.00  0.00    +0.173 HD
ATOM      7  C   UNL     1      -3.274  -7.894  -0.045  0.00  0.00    +0.331 A 
ATOM      8  O   UNL     1      -2.974  -9.024   0.291  0.00  0.00    -0.246 OA
ATOM      9  N   UNL     1      -2.465  -6.872   0.292  0.00  0.00    -0.280 N 
ATOM     10  C   UNL     1      -2.789  -5.578  -0.081  0.00  0.00    +0.170 A 
ATOM     11  N   UNL     1      -2.200  -4.394   0.097  0.00  0.00    -0.196 NA
ATOM     12  C   UNL     1      -2.925  -3.444  -0.459  0.00  0.00    +0.201 A 
ATOM     13  N   UNL     1      -2.612  -2.104  -0.461  0.00  0.00    -0.298 N 
ATOM     14  C   UNL     1      -2.639  -1.556   0.902  0.00  0.00    +0.127 C 
ATOM     15  C   UNL     1      -2.467  -0.034   0.841  0.00  0.00    +0.126 C 
ATOM     16  N   UNL     1      -1.249   0.267   0.073  0.00  0.00    -0.302 N 
ATOM     17  C   UNL     1      -1.089  -0.353  -1.251  0.00  0.00    +0.126 C 
ATOM     18  C   UNL     1      -1.313  -1.866  -1.105  0.00  0.00    +0.127 C 
ATOM     19  C   UNL     1      -0.287   1.111   0.578  0.00  0.00    +0.161 C 
ATOM     20  N   UNL     1       0.055   1.161   1.854  0.00  0.00    -0.340 N 
ATOM     21  C   UNL     1       1.120   2.129   1.966  0.00  0.00    +0.203 C 
ATOM     22  C   UNL     1       0.792   3.061   0.761  0.00  0.00    +0.205 C 
ATOM     23  N   UNL     1       0.443   2.015  -0.198  0.00  0.00    -0.290 N 
ATOM     24  C   UNL     1       2.019   3.879   0.549  0.00  0.00    +0.264 C 
ATOM     25  O   UNL     1       2.483   4.087  -0.552  0.00  0.00    -0.271 OA
ATOM     26  N   UNL     1       2.584   4.373   1.688  0.00  0.00    -0.126 NA
ATOM     27  C   UNL     1       2.088   4.078   2.907  0.00  0.00    +0.330 C 
ATOM     28  O   UNL     1       2.344   4.807   3.845  0.00  0.00    -0.250 OA
ATOM     29  N   UNL     1       1.304   2.980   3.111  0.00  0.00    -0.264 N 
ATOM     30  C   UNL     1       0.692   2.687   4.410  0.00  0.00    +0.136 C 
ATOM     31  C   UNL     1      -1.241  -7.129   1.056  0.00  0.00    +0.155 C 
ATOM     32  H   UNL     1      -0.462   0.524   2.587  0.00  0.00    +0.164 HD
ENDROOT
BRANCH   1  33
ATOM     33  C   UNL     1      -5.080  -3.283  -1.762  0.00  0.00    +0.128 C 
BRANCH  33  35
ATOM     34  C   UNL     1      -4.478  -4.439  -3.894  0.00  0.00    +0.009 C 
ATOM     35  C   UNL     1      -4.649  -3.078  -3.216  0.00  0.00    +0.003 C 
ATOM     36  C   UNL     1      -5.718  -2.271  -3.956  0.00  0.00    +0.009 C 
ENDBRANCH  33  35
ENDBRANCH   1  33
BRANCH  23  37
ATOM     37  C   UNL     1       0.780   1.932  -1.621  0.00  0.00    +0.111 C 
BRANCH  37  38
ATOM     38  C   UNL     1      -0.394   2.451  -2.455  0.00  0.00    +0.000 C 
ATOM     39  C   UNL     1      -0.601   3.940  -2.172  0.00  0.00    +0.009 C 
ATOM     40  C   UNL     1      -0.092   2.250  -3.941  0.00  0.00    +0.009 C 
ENDBRANCH  37  38
ENDBRANCH  23  37
TORSDOF 4
