REMARK  Name = ZINC61591143
REMARK  4 active torsions:
REMARK  status: ('A' for Active; 'I' for Inactive)
REMARK    1  A    between atoms: C_3  and  S_16
REMARK    2  A    between atoms: C_6  and  C_7
REMARK    3  A    between atoms: C_7  and  N_8
REMARK    4  A    between atoms: S_16  and  N_19
REMARK                            x       y       z     vdW  Elec       q    Type
REMARK                         _______ _______ _______ _____ _____    ______ ____
ROOT
ATOM      1  C   UNL     1      -0.017   1.378   0.010  0.00  0.00    +0.007 A 
ATOM      2  C   UNL     1       1.171   2.086   0.002  0.00  0.00    +0.029 A 
ATOM      3  C   UNL     1       2.377   1.411  -0.013  0.00  0.00    +0.105 A 
ATOM      4  C   UNL     1       2.396   0.029  -0.020  0.00  0.00    +0.029 A 
ATOM      5  C   UNL     1       1.208  -0.679  -0.012  0.00  0.00    +0.007 A 
ATOM      6  C   UNL     1       0.002  -0.004   0.002  0.00  0.00    -0.027 A 
ENDROOT
BRANCH   3   7
ATOM      7  S   UNL     1       3.891   2.312  -0.024  0.00  0.00    +0.056 S 
ATOM      8  O   UNL     1       4.872   1.453  -0.588  0.00  0.00    -0.153 OA
ATOM      9  O   UNL     1       3.597   3.593  -0.566  0.00  0.00    -0.153 OA
BRANCH   7  10
ATOM     10  N   UNL     1       4.327   2.556   1.555  0.00  0.00    -0.204 NA
ATOM     11  H   UNL     1       3.768   2.215   2.271  0.00  0.00    +0.144 HD
ATOM     12  H   UNL     1       5.142   3.039   1.764  0.00  0.00    +0.144 HD
ENDBRANCH   7  10
ENDBRANCH   3   7
BRANCH   6  13
ATOM     13  C   UNL     1      -1.293  -0.775   0.011  0.00  0.00    +0.164 C 
BRANCH  13  14
ATOM     14  N   UNL     1      -1.726  -1.018  -1.368  0.00  0.00    -0.266 N 
ATOM     15  C   UNL     1      -2.514  -0.207  -2.101  0.00  0.00    +0.345 A 
ATOM     16  O   UNL     1      -2.991   0.854  -1.739  0.00  0.00    -0.245 OA
ATOM     17  N   UNL     1      -2.678  -0.783  -3.310  0.00  0.00    -0.226 N 
ATOM     18  H   UNL     1      -3.197  -0.429  -4.049  0.00  0.00    +0.194 HD
ATOM     19  N   UNL     1      -1.961  -1.987  -3.302  0.00  0.00    -0.144 NA
ATOM     20  C   UNL     1      -1.393  -2.110  -2.137  0.00  0.00    +0.203 A 
ATOM     21  S   UNL     1      -0.371  -3.452  -1.628  0.00  0.00    -0.009 SA
ENDBRANCH  13  14
ENDBRANCH   6  13
TORSDOF 4
