REMARK  Name = ZINC30977367
REMARK  13 active torsions:
REMARK  status: ('A' for Active; 'I' for Inactive)
REMARK    1  A    between atoms: C_1  and  C_2
REMARK    2  A    between atoms: C_2  and  C_3
REMARK    3  A    between atoms: C_2  and  O_4
REMARK    4  A    between atoms: O_4  and  C_5
REMARK    5  A    between atoms: C_8  and  N_11
REMARK    6  A    between atoms: C_12  and  C_14
REMARK    7  A    between atoms: N_17  and  C_20
REMARK    8  A    between atoms: C_20  and  C_21
REMARK    9  A    between atoms: C_23  and  C_26
REMARK   10  A    between atoms: C_29  and  C_32
REMARK   11  A    between atoms: C_32  and  C_33
REMARK   12  A    between atoms: C_32  and  C_34
REMARK   13  A    between atoms: C_32  and  C_35
REMARK                            x       y       z     vdW  Elec       q    Type
REMARK                         _______ _______ _______ _____ _____    ______ ____
ROOT
ATOM      1  C   UNL     1       1.271   2.083  -0.331  0.00  0.00    +0.072 C 
ATOM      2  C   UNL     1       1.859   2.111   1.083  0.00  0.00    -0.006 C 
ATOM      3  C   UNL     1       3.122   2.975   1.087  0.00  0.00    -0.077 C 
ATOM      4  N   UNL     1       2.787   4.336   0.650  0.00  0.00    +0.386 N 
ATOM      5  C   UNL     1       2.265   4.339  -0.723  0.00  0.00    -0.077 C 
ATOM      6  C   UNL     1       0.976   3.516  -0.781  0.00  0.00    -0.006 C 
ATOM      7  H   UNL     1       1.994   4.715   1.311  0.00  0.00    -0.081 HD
ENDROOT
BRANCH   1   9
ATOM      8  N   UNL     1       0.011  -0.015   0.035  0.00  0.00    -0.285 N 
ATOM      9  C   UNL     1      -0.006   1.283  -0.329  0.00  0.00    +0.220 C 
ATOM     10  O   UNL     1      -1.050   1.805  -0.661  0.00  0.00    -0.275 OA
ATOM     11  H   UNL     1       0.969  -0.512   0.251  0.00  0.00    +0.155 HD
BRANCH   8  15
ATOM     12  C   UNL     1      -3.561  -2.142   0.347  0.00  0.00    +0.121 A 
ATOM     13  C   UNL     1      -2.404  -2.788  -0.061  0.00  0.00    +0.047 A 
ATOM     14  C   UNL     1      -1.220  -2.084  -0.165  0.00  0.00    +0.027 A 
ATOM     15  C   UNL     1      -1.189  -0.730   0.140  0.00  0.00    +0.034 A 
ATOM     16  C   UNL     1      -2.347  -0.085   0.555  0.00  0.00    +0.027 A 
ATOM     17  C   UNL     1      -3.531  -0.789   0.653  0.00  0.00    +0.047 A 
BRANCH  12  18
ATOM     18  O   UNL     1      -4.726  -2.836   0.450  0.00  0.00    -0.489 OA
BRANCH  18  20
ATOM     19  C   UNL     1      -4.207  -5.095   1.134  0.00  0.00    +0.051 C 
ATOM     20  C   UNL     1      -4.713  -4.194   0.006  0.00  0.00    +0.167 C 
ATOM     21  C   UNL     1      -6.131  -4.616  -0.386  0.00  0.00    +0.051 C 
ENDBRANCH  18  20
ENDBRANCH  12  18
ENDBRANCH   8  15
ENDBRANCH   1   9
BRANCH   4  22
ATOM     22  C   UNL     1       3.947   5.229   0.774  0.00  0.00    +0.022 C 
BRANCH  22  23
ATOM     23  C   UNL     1       4.302   5.392   2.229  0.00  0.00    +0.211 A 
ATOM     24  N   UNL     1       5.132   4.646   2.916  0.00  0.00    -0.193 NA
ATOM     25  C   UNL     1       5.135   5.162   4.165  0.00  0.00    +0.202 A 
ATOM     26  N   UNL     1       4.316   6.181   4.164  0.00  0.00    -0.056 NA
ATOM     27  O   UNL     1       3.835   6.328   3.061  0.00  0.00    -0.340 OA
BRANCH  25  28
ATOM     28  C   UNL     1       5.921   4.665   5.322  0.00  0.00    +0.022 A 
ATOM     29  C   UNL     1       6.754   3.557   5.177  0.00  0.00    +0.012 A 
ATOM     30  C   UNL     1       7.487   3.102   6.254  0.00  0.00    +0.005 A 
ATOM     31  C   UNL     1       7.387   3.737   7.479  0.00  0.00    -0.042 A 
ATOM     32  C   UNL     1       6.558   4.833   7.630  0.00  0.00    +0.005 A 
ATOM     33  C   UNL     1       5.824   5.300   6.558  0.00  0.00    +0.012 A 
BRANCH  31  34
ATOM     34  C   UNL     1       8.185   3.231   8.654  0.00  0.00    -0.013 C 
ATOM     35  C   UNL     1       7.232   2.824   9.780  0.00  0.00    +0.015 C 
ATOM     36  C   UNL     1       9.014   2.019   8.223  0.00  0.00    +0.015 C 
ATOM     37  C   UNL     1       9.118   4.337   9.150  0.00  0.00    +0.015 C 
ENDBRANCH  31  34
ENDBRANCH  25  28
ENDBRANCH  22  23
ENDBRANCH   4  22
TORSDOF 8
