REMARK  Name = ZINC44335220
REMARK  7 active torsions:
REMARK  status: ('A' for Active; 'I' for Inactive)
REMARK    1  A    between atoms: C_1  and  O_2
REMARK    2  A    between atoms: O_2  and  C_3
REMARK    3  A    between atoms: C_3  and  C_5
REMARK    4  A    between atoms: C_5  and  C_7
REMARK    5  A    between atoms: C_5  and  N_18
REMARK    6  A    between atoms: C_7  and  C_8
REMARK    7  A    between atoms: C_13  and  O_14
REMARK                            x       y       z     vdW  Elec       q    Type
REMARK                         _______ _______ _______ _____ _____    ______ ____
ROOT
ATOM      1  C   UNL     1      -0.936  -4.168   1.390  0.00  0.00    -0.005 A 
ATOM      2  C   UNL     1      -2.069  -4.913   1.657  0.00  0.00    +0.024 A 
ATOM      3  C   UNL     1      -2.012  -6.294   1.632  0.00  0.00    +0.038 A 
ATOM      4  C   UNL     1      -0.820  -6.934   1.339  0.00  0.00    +0.072 A 
ATOM      5  C   UNL     1       0.316  -6.193   1.070  0.00  0.00    +0.079 A 
ATOM      6  C   UNL     1       0.258  -4.806   1.089  0.00  0.00    +0.135 A 
ATOM      7 BR   UNL     1       1.945  -7.066   0.671  0.00  0.00    -0.045 Br
ATOM      8 CL   UNL     1      -0.751  -8.669   1.308  0.00  0.00    -0.081 Cl
ATOM      9 BR   UNL     1      -3.564  -7.310   1.999  0.00  0.00    -0.049 Br
ENDROOT
BRANCH   6  10
ATOM     10  O   UNL     1       1.372  -4.074   0.821  0.00  0.00    -0.505 OA
ATOM     11  H   UNL     1       1.906  -3.870   1.600  0.00  0.00    +0.292 HD
ENDBRANCH   6  10
BRANCH   1  12
ATOM     12  C   UNL     1      -1.000  -2.663   1.418  0.00  0.00    +0.033 C 
BRANCH  12  13
ATOM     13  C   UNL     1      -1.244  -2.135   0.003  0.00  0.00    +0.040 C 
BRANCH  13  14
ATOM     14  N   UNL     1      -2.568  -2.572  -0.461  0.00  0.00    +0.387 N 
ATOM     15  H   UNL     1      -2.607  -3.580  -0.466  0.00  0.00    -0.089 HD
ATOM     16  H   UNL     1      -3.277  -2.211   0.159  0.00  0.00    -0.089 HD
ATOM     17  H   UNL     1      -2.729  -2.224  -1.395  0.00  0.00    -0.089 HD
ENDBRANCH  13  14
BRANCH  13  18
ATOM     18  C   UNL     1      -1.185  -0.630   0.010  0.00  0.00    +0.292 C 
ATOM     19  O   UNL     1      -2.208   0.015   0.023  0.00  0.00    -0.253 OA
BRANCH  18  21
ATOM     20  C   UNL     1      -0.017   1.425   0.010  0.00  0.00    +0.280 C 
ATOM     21  O   UNL     1       0.002  -0.004   0.002  0.00  0.00    -0.469 OA
ENDBRANCH  18  21
ENDBRANCH  13  18
ENDBRANCH  12  13
ENDBRANCH   1  12
TORSDOF 6
