REMARK  Name = ZINC36609065
REMARK  8 active torsions:
REMARK  status: ('A' for Active; 'I' for Inactive)
REMARK    1  A    between atoms: C_4  and  N_7
REMARK    2  A    between atoms: N_7  and  C_10
REMARK    3  A    between atoms: C_10  and  C_12
REMARK    4  A    between atoms: C_10  and  C_21
REMARK    5  A    between atoms: C_13  and  O_20
REMARK    6  A    between atoms: C_15  and  O_19
REMARK    7  A    between atoms: C_17  and  O_18
REMARK    8  A    between atoms: N_23  and  C_24
REMARK                            x       y       z     vdW  Elec       q    Type
REMARK                         _______ _______ _______ _____ _____    ______ ____
ROOT
ATOM      1  C   UNL     1       3.803  -1.850  -0.334  0.00  0.00    +0.204 C 
ENDROOT
BRANCH   1   2
ATOM      2  C   UNL     1       3.032  -2.577  -1.405  0.00  0.00    +0.065 A 
ATOM      3  C   UNL     1       1.685  -2.308  -1.593  0.00  0.00    +0.129 A 
ATOM      4  C   UNL     1       0.975  -2.977  -2.578  0.00  0.00    +0.091 A 
ATOM      5  C   UNL     1       1.612  -3.915  -3.376  0.00  0.00    +0.124 A 
ATOM      6  C   UNL     1       2.960  -4.183  -3.189  0.00  0.00    +0.091 A 
ATOM      7  C   UNL     1       3.671  -3.511  -2.207  0.00  0.00    +0.129 A 
BRANCH   7   8
ATOM      8  O   UNL     1       4.992  -3.771  -2.026  0.00  0.00    -0.506 OA
ATOM      9  H   UNL     1       5.171  -4.481  -1.396  0.00  0.00    +0.292 HD
ENDBRANCH   7   8
BRANCH   5  10
ATOM     10  O   UNL     1       0.916  -4.571  -4.341  0.00  0.00    -0.507 OA
ATOM     11  H   UNL     1       0.921  -4.128  -5.201  0.00  0.00    +0.292 HD
ENDBRANCH   5  10
BRANCH   3  12
ATOM     12  O   UNL     1       1.060  -1.389  -0.811  0.00  0.00    -0.506 OA
ATOM     13  H   UNL     1       1.158  -0.478  -1.120  0.00  0.00    +0.292 HD
ENDBRANCH   3  12
ENDBRANCH   1   2
BRANCH   1  14
ATOM     14  C   UNL     1       3.256  -2.222   1.020  0.00  0.00    +0.239 C 
ATOM     15  O   UNL     1       2.490  -1.475   1.591  0.00  0.00    -0.273 OA
ATOM     16  N   UNL     1       3.619  -3.386   1.596  0.00  0.00    -0.311 N 
ATOM     17  H   UNL     1       4.231  -3.983   1.139  0.00  0.00    +0.149 HD
BRANCH  16  18
ATOM     18  C   UNL     1       3.087  -3.748   2.912  0.00  0.00    +0.073 C 
ATOM     19  C   UNL     1       3.948  -3.108   4.003  0.00  0.00    +0.022 C 
ATOM     20  C   UNL     1       3.393  -3.487   5.378  0.00  0.00    +0.002 C 
ATOM     21  C   UNL     1       3.416  -5.008   5.536  0.00  0.00    +0.000 C 
ATOM     22  C   UNL     1       2.555  -5.648   4.445  0.00  0.00    +0.002 C 
ATOM     23  C   UNL     1       3.110  -5.269   3.070  0.00  0.00    +0.022 C 
ENDBRANCH  16  18
ENDBRANCH   1  14
BRANCH   1  24
ATOM     24  N   UNL     1       3.671  -0.404  -0.533  0.00  0.00    -0.258 N 
ATOM     25  C   UNL     1       3.289   0.079  -1.732  0.00  0.00    +0.333 C 
ATOM     26  O   UNL     1       3.019  -0.684  -2.635  0.00  0.00    -0.279 OA
BRANCH  24  30
ATOM     27  C   UNL     1       4.474   2.213   2.607  0.00  0.00    +0.000 A 
ATOM     28  C   UNL     1       3.888   2.686   1.448  0.00  0.00    +0.002 A 
ATOM     29  C   UNL     1       3.620   1.821   0.405  0.00  0.00    +0.023 A 
ATOM     30  C   UNL     1       3.941   0.475   0.521  0.00  0.00    +0.037 A 
ATOM     31  C   UNL     1       4.530   0.003   1.687  0.00  0.00    +0.023 A 
ATOM     32  C   UNL     1       4.794   0.873   2.727  0.00  0.00    +0.002 A 
ENDBRANCH  24  30
ENDBRANCH   1  24
TORSDOF 8
