REMARK  Name = ZINC00053723
REMARK  2 active torsions:
REMARK  status: ('A' for Active; 'I' for Inactive)
REMARK    1  A    between atoms: C_5  and  C_8
REMARK    2  A    between atoms: C_10  and  C_14
REMARK                            x       y       z     vdW  Elec       q    Type
REMARK                         _______ _______ _______ _____ _____    ______ ____
ROOT
ATOM      1  C   UNK     1       1.376   1.559  -0.003  0.00  0.00    +0.025 C 
ATOM      2  C   UNK     1      -0.775   1.529  -1.140  0.00  0.00    +0.055 C 
ATOM      3  C   UNK     1      -0.624   3.071  -1.228  0.00  0.00    +0.063 C 
ATOM      4  S   UNK     1       1.030   3.314  -0.453  0.00  0.00    -0.173 S 
ATOM      5  N   UNK     1      -0.013   1.002   0.011  0.00  0.00    +0.399 N 
ATOM      6  H   UNK     1      -0.481   1.274   0.883  0.00  0.00    -0.083 HD
ATOM      7  H   UNK     1       0.030  -0.022  -0.050  0.00  0.00    -0.083 HD
ENDROOT
BRANCH   1  12
ATOM      8  C   UNK     1       2.241   0.346   3.470  0.00  0.00    +0.077 A 
ATOM      9  C   UNK     1       3.183   1.282   3.862  0.00  0.00    +0.129 A 
ATOM     10  C   UNK     1       3.539   2.308   3.004  0.00  0.00    +0.077 A 
ATOM     11  C   UNK     1       2.954   2.398   1.753  0.00  0.00    +0.131 A 
ATOM     12  C   UNK     1       2.013   1.461   1.360  0.00  0.00    +0.019 A 
ATOM     13  C   UNK     1       1.653   0.439   2.220  0.00  0.00    +0.131 A 
ATOM     14  F   UNK     1       0.731  -0.472   1.839  0.00  0.00    -0.205 F 
ATOM     15  F   UNK     1       3.301   3.399   0.915  0.00  0.00    -0.205 F 
ATOM     16  F   UNK     1       3.754   1.194   5.084  0.00  0.00    -0.205 F 
ENDBRANCH   1  12
BRANCH   2  17
ATOM     17  C   UNK     1      -2.231   1.179  -0.972  0.00  0.00    +0.343 C 
ATOM     18  O   UNK     1      -2.656   0.870   0.115  0.00  0.00    -0.248 OA
ATOM     19  O   UNK     1      -3.055   1.211  -2.031  0.00  0.00    -0.248 OA
ENDBRANCH   2  17
TORSDOF 2
