REMARK  Name = ZINC13425308
REMARK  5 active torsions:
REMARK  status: ('A' for Active; 'I' for Inactive)
REMARK    1  A    between atoms: C_4  and  N_7
REMARK    2  A    between atoms: C_11  and  C_12
REMARK    3  A    between atoms: N_16  and  C_17
REMARK    4  A    between atoms: C_20  and  S_23
REMARK    5  A    between atoms: S_23  and  N_26
REMARK                            x       y       z     vdW  Elec       q    Type
REMARK                         _______ _______ _______ _____ _____    ______ ____
ROOT
ATOM      1  C   UNL     1       3.562   7.915  -0.104  0.00  0.00    +0.047 A 
ATOM      2  C   UNL     1       3.976   9.232  -0.257  0.00  0.00    +0.027 A 
ATOM      3  C   UNL     1       2.835  10.030  -0.193  0.00  0.00    +0.020 A 
ATOM      4  C   UNL     1       1.764   9.217   0.001  0.00  0.00    +0.092 A 
ATOM      5  N   UNL     1       2.190   7.931   0.056  0.00  0.00    -0.316 N 
ENDROOT
BRANCH   1  10
ATOM      6  N   UNL     1       3.933   4.991   2.998  0.00  0.00    -0.184 N 
ATOM      7  C   UNL     1       3.669   6.082   2.254  0.00  0.00    +0.272 C 
ATOM      8  O   UNL     1       2.981   7.032   2.579  0.00  0.00    -0.268 OA
ATOM      9  C   UNL     1       4.371   5.905   0.972  0.00  0.00    +0.104 C 
ATOM     10  C   UNL     1       4.388   6.777  -0.107  0.00  0.00    +0.044 C 
ATOM     11  C   UNL     1       5.053   4.604   1.082  0.00  0.00    +0.266 C 
ATOM     12  O   UNL     1       5.749   4.077   0.235  0.00  0.00    -0.268 OA
ATOM     13  N   UNL     1       4.762   4.112   2.302  0.00  0.00    -0.223 N 
ATOM     14  H   UNL     1       5.083   3.265   2.647  0.00  0.00    +0.174 HD
BRANCH   6  18
ATOM     15  C   UNL     1       2.483   4.339   6.848  0.00  0.00    +0.000 A 
ATOM     16  C   UNL     1       3.164   3.333   6.188  0.00  0.00    +0.002 A 
ATOM     17  C   UNL     1       3.644   3.545   4.911  0.00  0.00    +0.025 A 
ATOM     18  C   UNL     1       3.448   4.773   4.292  0.00  0.00    +0.056 A 
ATOM     19  C   UNL     1       2.769   5.783   4.960  0.00  0.00    +0.025 A 
ATOM     20  C   UNL     1       2.291   5.564   6.237  0.00  0.00    +0.002 A 
ENDBRANCH   6  18
ENDBRANCH   1  10
BRANCH   5  21
ATOM     21  C   UNL     1       1.376   6.807   0.245  0.00  0.00    +0.047 A 
ATOM     22  C   UNL     1       1.409   5.763  -0.670  0.00  0.00    +0.028 A 
ATOM     23  C   UNL     1       0.609   4.653  -0.479  0.00  0.00    +0.030 A 
ATOM     24  C   UNL     1      -0.234   4.587   0.616  0.00  0.00    +0.105 A 
ATOM     25  C   UNL     1      -0.273   5.628   1.526  0.00  0.00    +0.030 A 
ATOM     26  C   UNL     1       0.529   6.737   1.343  0.00  0.00    +0.028 A 
BRANCH  24  27
ATOM     27  S   UNL     1      -1.258   3.173   0.852  0.00  0.00    +0.056 S 
ATOM     28  O   UNL     1      -0.579   2.075   0.259  0.00  0.00    -0.153 OA
ATOM     29  O   UNL     1      -1.649   3.179   2.219  0.00  0.00    -0.153 OA
BRANCH  27  30
ATOM     30  N   UNL     1      -2.636   3.413  -0.035  0.00  0.00    -0.204 NA
ATOM     31  H   UNL     1      -2.744   4.227  -0.552  0.00  0.00    +0.144 HD
ATOM     32  H   UNL     1      -3.334   2.740  -0.038  0.00  0.00    +0.144 HD
ENDBRANCH  27  30
ENDBRANCH  24  27
ENDBRANCH   5  21
TORSDOF 5
