REMARK  Name = ZINC42027682
REMARK  4 active torsions:
REMARK  status: ('A' for Active; 'I' for Inactive)
REMARK    1  A    between atoms: C_1  and  C_2
REMARK    2  A    between atoms: C_7  and  N_8
REMARK    3  A    between atoms: C_9  and  C_13
REMARK    4  A    between atoms: C_17  and  N_19
REMARK                            x       y       z     vdW  Elec       q    Type
REMARK                         _______ _______ _______ _____ _____    ______ ____
ROOT
ATOM      1  N   UNL     1       0.554   0.176   2.353  0.00  0.00    -0.192 N 
ATOM      2  C   UNL     1       0.378  -0.339   3.604  0.00  0.00    +0.187 A 
ATOM      3  N   UNL     1      -0.001   0.657   4.378  0.00  0.00    -0.108 NA
ATOM      4  N   UNL     1      -0.072   1.748   3.705  0.00  0.00    -0.022 NA
ATOM      5  N   UNL     1       0.252   1.544   2.474  0.00  0.00    -0.039 NA
ENDROOT
BRANCH   1  12
ATOM      6  C   UNL     1      -1.036   0.447   0.007  0.00  0.00    +0.046 C 
ATOM      7  C   UNL     1       0.207  -0.405   0.033  0.00  0.00    -0.025 A 
ATOM      8  C   UNL     1       0.608  -1.077  -1.106  0.00  0.00    +0.005 A 
ATOM      9  C   UNL     1       1.748  -1.858  -1.084  0.00  0.00    +0.000 A 
ATOM     10  C   UNL     1       2.492  -1.969   0.077  0.00  0.00    +0.002 A 
ATOM     11  C   UNL     1       2.096  -1.299   1.218  0.00  0.00    +0.028 A 
ATOM     12  C   UNL     1       0.954  -0.509   1.198  0.00  0.00    +0.072 A 
ENDBRANCH   1  12
BRANCH   2  13
ATOM     13  C   UNL     1       0.573  -1.748   4.013  0.00  0.00    +0.023 A 
ATOM     14  C   UNL     1       0.354  -2.779   3.098  0.00  0.00    +0.013 A 
ATOM     15  C   UNL     1       0.537  -4.092   3.482  0.00  0.00    +0.018 A 
ATOM     16  C   UNL     1       0.939  -4.391   4.771  0.00  0.00    +0.039 A 
ATOM     17  C   UNL     1       1.160  -3.370   5.689  0.00  0.00    +0.039 A 
ATOM     18  C   UNL     1       0.983  -2.048   5.311  0.00  0.00    +0.035 A 
ATOM     19 BR   UNL     1       1.187  -6.193   5.287  0.00  0.00    -0.048 Br
BRANCH  17  20
ATOM     20  N   UNL     1       1.566  -3.676   6.991  0.00  0.00    -0.357 N 
ATOM     21  H   UNL     1       1.693  -4.601   7.254  0.00  0.00    +0.142 HD
ATOM     22  H   UNL     1       1.720  -2.964   7.631  0.00  0.00    +0.142 HD
ENDBRANCH  17  20
ENDBRANCH   2  13
TORSDOF 3
