REMARK  Name = ZINC01530444
REMARK  5 active torsions:
REMARK  status: ('A' for Active; 'I' for Inactive)
REMARK    1  A    between atoms: C_1  and  O_17
REMARK    2  A    between atoms: C_3  and  O_16
REMARK    3  A    between atoms: C_5  and  C_14
REMARK    4  A    between atoms: C_8  and  O_13
REMARK    5  A    between atoms: C_10  and  O_12
REMARK                            x       y       z     vdW  Elec       q    Type
REMARK                         _______ _______ _______ _____ _____    ______ ____
ROOT
ATOM      1  C   UNL     1       2.539   3.720   0.059  0.00  0.00    +0.179 C 
ATOM      2  C   UNL     1       3.281   3.196   1.293  0.00  0.00    +0.185 C 
ATOM      3  C   UNL     1       3.340   1.668   1.233  0.00  0.00    +0.265 C 
ATOM      4  O   UNL     1       2.012   1.144   1.156  0.00  0.00    -0.332 OA
ATOM      5  C   UNL     1       1.286   1.562  -0.002  0.00  0.00    +0.280 C 
ATOM      6  C   UNL     1       1.145   3.086   0.008  0.00  0.00    +0.201 C 
ENDROOT
BRANCH   3   7
ATOM      7  C   UNL     1       4.016   1.142   2.472  0.00  0.00    +0.387 C 
ATOM      8  O   UNL     1       3.395   0.469   3.260  0.00  0.00    -0.243 OA
ATOM      9  O   UNL     1       5.309   1.421   2.701  0.00  0.00    -0.243 OA
ENDBRANCH   3   7
BRANCH   6  10
ATOM     10  O   UNL     1       0.395   3.489   1.156  0.00  0.00    -0.384 OA
ATOM     11  H   UNL     1      -0.498   3.119   1.192  0.00  0.00    +0.210 HD
ENDBRANCH   6  10
BRANCH   5  12
ATOM     12  O   UNL     1      -0.011   0.963   0.007  0.00  0.00    -0.365 OA
ATOM     13  H   UNL     1       0.002  -0.004   0.002  0.00  0.00    +0.213 HD
ENDBRANCH   5  12
BRANCH   2  14
ATOM     14  O   UNL     1       2.588   3.602   2.475  0.00  0.00    -0.386 OA
ATOM     15  H   UNL     1       3.000   3.300   3.296  0.00  0.00    +0.210 HD
ENDBRANCH   2  14
BRANCH   1  16
ATOM     16  O   UNL     1       3.267   3.373  -1.120  0.00  0.00    -0.386 OA
ATOM     17  H   UNL     1       2.853   3.674  -1.940  0.00  0.00    +0.210 HD
ENDBRANCH   1  16
TORSDOF 5
