REMARK  Name = ZINC32519909
REMARK  7 active torsions:
REMARK  status: ('A' for Active; 'I' for Inactive)
REMARK    1  A    between atoms: C_9  and  S_11
REMARK    2  A    between atoms: S_11  and  C_12
REMARK    3  A    between atoms: C_12  and  C_13
REMARK    4  A    between atoms: N_15  and  N_16
REMARK    5  A    between atoms: C_17  and  C_18
REMARK    6  A    between atoms: C_21  and  O_26
REMARK    7  A    between atoms: C_23  and  O_24
REMARK                            x       y       z     vdW  Elec       q    Type
REMARK                         _______ _______ _______ _____ _____    ______ ____
ROOT
ATOM      1  C   UNL     1       6.681  -4.213  -1.265  0.00  0.00    +0.242 C 
ATOM      2  O   UNL     1       6.149  -5.263  -0.971  0.00  0.00    -0.273 OA
ATOM      3  N   UNL     1       8.004  -4.048  -1.062  0.00  0.00    -0.206 N 
ATOM      4  H   UNL     1       8.429  -3.209  -1.298  0.00  0.00    +0.177 HD
ENDROOT
BRANCH   3   5
ATOM      5  N   UNL     1       8.763  -5.088  -0.512  0.00  0.00    -0.188 NA
ATOM      6  C   UNL     1      10.012  -4.894  -0.216  0.00  0.00    +0.142 C 
BRANCH   6   7
ATOM      7  C   UNL     1      10.566  -3.529  -0.216  0.00  0.00    +0.038 A 
ATOM      8  C   UNL     1       9.728  -2.433   0.007  0.00  0.00    +0.032 A 
ATOM      9  C   UNL     1      10.250  -1.157   0.006  0.00  0.00    +0.061 A 
ATOM     10  C   UNL     1      11.608  -0.957  -0.215  0.00  0.00    +0.148 A 
ATOM     11  C   UNL     1      12.447  -2.039  -0.438  0.00  0.00    +0.102 A 
ATOM     12  C   UNL     1      11.935  -3.325  -0.434  0.00  0.00    +0.143 A 
ATOM     13 BR   UNL     1      14.293  -1.757  -0.739  0.00  0.00    -0.043 Br
ATOM     14 BR   UNL     1       9.115   0.325   0.308  0.00  0.00    -0.046 Br
BRANCH  12  15
ATOM     15  O   UNL     1      12.757  -4.386  -0.646  0.00  0.00    -0.505 OA
ATOM     16  H   UNL     1      12.789  -4.681  -1.566  0.00  0.00    +0.292 HD
ENDBRANCH  12  15
BRANCH  10  17
ATOM     17  O   UNL     1      12.114   0.304  -0.214  0.00  0.00    -0.504 OA
ATOM     18  H   UNL     1      12.412   0.608   0.654  0.00  0.00    +0.292 HD
ENDBRANCH  10  17
ENDBRANCH   6   7
ENDBRANCH   3   5
BRANCH   1  19
ATOM     19  C   UNL     1       5.865  -3.094  -1.858  0.00  0.00    +0.174 C 
BRANCH  19  20
ATOM     20  S   UNL     1       4.135  -3.620  -2.005  0.00  0.00    -0.078 S 
BRANCH  20  29
ATOM     21  C   UNL     1       0.707   1.040  -4.474  0.00  0.00    +0.002 A 
ATOM     22  C   UNL     1       1.926   1.701  -4.480  0.00  0.00    +0.002 A 
ATOM     23  C   UNL     1       3.062   1.078  -4.014  0.00  0.00    +0.030 A 
ATOM     24  C   UNL     1       2.986  -0.231  -3.530  0.00  0.00    +0.090 A 
ATOM     25  C   UNL     1       1.749  -0.896  -3.526  0.00  0.00    +0.067 A 
ATOM     26  C   UNL     1       0.615  -0.253  -3.999  0.00  0.00    +0.028 A 
ATOM     27  N   UNL     1       1.989  -2.153  -2.997  0.00  0.00    -0.333 N 
ATOM     28  H   UNL     1       1.333  -2.855  -2.861  0.00  0.00    +0.168 HD
ATOM     29  C   UNL     1       3.322  -2.221  -2.703  0.00  0.00    +0.168 A 
ATOM     30  N   UNL     1       3.905  -1.090  -3.017  0.00  0.00    -0.222 NA
ENDBRANCH  20  29
ENDBRANCH  19  20
ENDBRANCH   1  19
TORSDOF 7
