REMARK  Name = ZINC16693592
REMARK  6 active torsions:
REMARK  status: ('A' for Active; 'I' for Inactive)
REMARK    1  A    between atoms: C_1  and  C_2
REMARK    2  A    between atoms: C_2  and  S_3
REMARK    3  A    between atoms: S_3  and  C_6
REMARK    4  A    between atoms: C_9  and  O_24
REMARK    5  A    between atoms: C_10  and  N_12
REMARK    6  A    between atoms: N_15  and  C_16
REMARK                            x       y       z     vdW  Elec       q    Type
REMARK                         _______ _______ _______ _____ _____    ______ ____
ROOT
ATOM      1  N   UNL     1       2.830  -5.099  -0.095  0.00  0.00    -0.266 N 
ATOM      2  C   UNL     1       3.424  -4.539  -1.167  0.00  0.00    +0.308 C 
ATOM      3  O   UNL     1       3.136  -3.405  -1.500  0.00  0.00    -0.252 OA
ATOM      4  N   UNL     1       4.338  -5.236  -1.871  0.00  0.00    -0.269 N 
ATOM      5  H   UNL     1       3.107  -5.977   0.210  0.00  0.00    +0.156 HD
ATOM      6  H   UNL     1       4.520  -6.162  -1.647  0.00  0.00    +0.156 HD
ENDROOT
BRANCH   4   7
ATOM      7  C   UNL     1       5.025  -4.623  -2.926  0.00  0.00    +0.036 A 
ATOM      8  C   UNL     1       4.380  -3.690  -3.728  0.00  0.00    +0.025 A 
ATOM      9  C   UNL     1       5.060  -3.083  -4.765  0.00  0.00    +0.023 A 
ATOM     10  C   UNL     1       6.381  -3.411  -5.013  0.00  0.00    +0.059 A 
ATOM     11  C   UNL     1       7.026  -4.344  -4.218  0.00  0.00    +0.061 A 
ATOM     12  C   UNL     1       6.351  -4.951  -3.176  0.00  0.00    +0.044 A 
ATOM     13 CL   UNL     1       8.684  -4.753  -4.532  0.00  0.00    -0.082 Cl
ATOM     14 CL   UNL     1       7.232  -2.651  -6.321  0.00  0.00    -0.082 Cl
ENDBRANCH   4   7
BRANCH   1  19
ATOM     15  C   UNL     1       0.855  -2.355   1.357  0.00  0.00    +0.090 A 
ATOM     16  C   UNL     1      -0.198  -3.054   1.918  0.00  0.00    +0.030 A 
ATOM     17  C   UNL     1      -0.256  -4.431   1.807  0.00  0.00    +0.049 A 
ATOM     18  C   UNL     1       0.748  -5.115   1.141  0.00  0.00    +0.138 A 
ATOM     19  C   UNL     1       1.811  -4.412   0.580  0.00  0.00    +0.078 A 
ATOM     20  C   UNL     1       1.860  -3.030   0.691  0.00  0.00    +0.054 A 
BRANCH  15  21
ATOM     21  S   UNL     1       0.918  -0.600   1.498  0.00  0.00    -0.003 S 
ATOM     22  O   UNL     1       2.300  -0.279   1.413  0.00  0.00    -0.169 OA
ATOM     23  O   UNL     1       0.177  -0.303   2.673  0.00  0.00    -0.169 OA
BRANCH  21  25
ATOM     24  C   UNL     1       0.036   1.548   0.051  0.00  0.00    +0.028 C 
ATOM     25  C   UNL     1       0.043   0.018   0.034  0.00  0.00    +0.168 C 
ENDBRANCH  21  25
ENDBRANCH  15  21
BRANCH  18  26
ATOM     26  O   UNL     1       0.695  -6.470   1.035  0.00  0.00    -0.505 OA
ATOM     27  H   UNL     1       1.129  -6.938   1.761  0.00  0.00    +0.292 HD
ENDBRANCH  18  26
ENDBRANCH   1  19
TORSDOF 5
