REMARK  Name = ZINC66358734
REMARK  6 active torsions:
REMARK  status: ('A' for Active; 'I' for Inactive)
REMARK    1  A    between atoms: C_1  and  C_2
REMARK    2  A    between atoms: C_5  and  C_8
REMARK    3  A    between atoms: N_16  and  C_17
REMARK    4  A    between atoms: C_17  and  C_18
REMARK    5  A    between atoms: C_21  and  C_24
REMARK    6  A    between atoms: N_26  and  C_27
REMARK                            x       y       z     vdW  Elec       q    Type
REMARK                         _______ _______ _______ _____ _____    ______ ____
ROOT
ATOM      1  C   UNL     1       0.059  -4.275  -0.021  0.00  0.00    +0.108 C 
ATOM      2  C   UNL     1      -1.360  -4.820   0.243  0.00  0.00    +0.029 C 
ATOM      3  C   UNL     1      -1.096  -6.054   1.145  0.00  0.00    +0.021 C 
ATOM      4  C   UNL     1       0.109  -5.570   1.990  0.00  0.00    +0.110 C 
ATOM      5  N   UNL     1       0.928  -4.770   1.056  0.00  0.00    -0.279 N 
ATOM      6  C   UNL     1       2.250  -4.532   1.171  0.00  0.00    +0.303 C 
ATOM      7  O   UNL     1       2.821  -3.856   0.338  0.00  0.00    -0.253 OA
ATOM      8  N   UNL     1       2.939  -5.045   2.210  0.00  0.00    -0.295 N 
ATOM      9  H   UNL     1       2.483  -5.584   2.875  0.00  0.00    +0.151 HD
ENDROOT
BRANCH   1  14
ATOM     10  C   UNL     1      -0.018   1.503   0.010  0.00  0.00    +0.044 C 
ATOM     11  C   UNL     1       0.002  -0.004   0.002  0.00  0.00    -0.050 A 
ATOM     12  C   UNL     1       0.006  -0.689  -1.199  0.00  0.00    +0.004 A 
ATOM     13  C   UNL     1       0.025  -2.071  -1.206  0.00  0.00    +0.006 A 
ATOM     14  C   UNL     1       0.040  -2.768  -0.013  0.00  0.00    -0.027 A 
ATOM     15  C   UNL     1       0.037  -2.084   1.188  0.00  0.00    +0.006 A 
ATOM     16  C   UNL     1       0.023  -0.702   1.195  0.00  0.00    +0.004 A 
ENDBRANCH   1  14
BRANCH   8  17
ATOM     17  C   UNL     1       4.375  -4.786   2.336  0.00  0.00    +0.141 C 
BRANCH  17  18
ATOM     18  C   UNL     1       4.902  -5.466   3.573  0.00  0.00    -0.030 A 
ATOM     19  C   UNL     1       4.904  -4.791   4.781  0.00  0.00    +0.006 A 
ATOM     20  C   UNL     1       5.385  -5.407   5.918  0.00  0.00    +0.013 A 
ATOM     21  C   UNL     1       5.870  -6.714   5.847  0.00  0.00    +0.037 A 
ATOM     22  C   UNL     1       5.865  -7.389   4.626  0.00  0.00    +0.013 A 
ATOM     23  C   UNL     1       5.376  -6.763   3.498  0.00  0.00    +0.006 A 
BRANCH  21  24
ATOM     24  C   UNL     1       6.387  -7.381   7.062  0.00  0.00    +0.244 C 
ATOM     25  O   UNL     1       6.391  -6.791   8.124  0.00  0.00    -0.270 OA
ATOM     26  N   UNL     1       6.855  -8.643   6.990  0.00  0.00    -0.308 N 
ATOM     27  H   UNL     1       6.852  -9.114   6.142  0.00  0.00    +0.149 HD
BRANCH  26  28
ATOM     28  C   UNL     1       7.368  -9.303   8.193  0.00  0.00    +0.073 C 
ATOM     29  C   UNL     1       8.667 -10.100   8.062  0.00  0.00    +0.024 C 
ATOM     30  C   UNL     1       7.334 -10.833   8.228  0.00  0.00    +0.024 C 
ENDBRANCH  26  28
ENDBRANCH  21  24
ENDBRANCH  17  18
ENDBRANCH   8  17
TORSDOF 5
