REMARK  Name = ZINC63372626
REMARK  8 active torsions:
REMARK  status: ('A' for Active; 'I' for Inactive)
REMARK    1  A    between atoms: C_1  and  O_2
REMARK    2  A    between atoms: O_2  and  C_3
REMARK    3  A    between atoms: C_10  and  C_18
REMARK    4  A    between atoms: N_24  and  C_27
REMARK    5  A    between atoms: C_29  and  O_35
REMARK    6  A    between atoms: C_32  and  O_33
REMARK    7  A    between atoms: O_33  and  C_34
REMARK    8  A    between atoms: O_35  and  C_36
REMARK                            x       y       z     vdW  Elec       q    Type
REMARK                         _______ _______ _______ _____ _____    ______ ____
ROOT
ATOM      1  C   UNL     1      -4.607  -4.217   2.394  0.00  0.00    +0.101 A 
ATOM      2  C   UNL     1      -3.290  -4.072   2.868  0.00  0.00    +0.263 A 
ATOM      3  N   UNL     1      -3.071  -3.450   4.043  0.00  0.00    -0.274 N 
ATOM      4  H   UNL     1      -2.164  -3.349   4.372  0.00  0.00    +0.173 HD
ATOM      5  C   UNL     1      -4.100  -2.969   4.763  0.00  0.00    +0.337 A 
ATOM      6  O   UNL     1      -3.882  -2.410   5.821  0.00  0.00    -0.246 OA
ATOM      7  N   UNL     1      -5.368  -3.095   4.330  0.00  0.00    -0.225 N 
ATOM      8  C   UNL     1      -5.636  -3.718   3.136  0.00  0.00    +0.270 A 
ATOM      9  O   UNL     1      -6.909  -3.839   2.702  0.00  0.00    -0.267 OA
ATOM     10  O   UNL     1      -2.354  -4.506   2.219  0.00  0.00    -0.267 OA
ENDROOT
BRANCH   1  17
ATOM     11  C   UNL     1      -8.927  -6.639   4.754  0.00  0.00    +0.121 A 
ATOM     12  C   UNL     1      -7.912  -7.512   5.184  0.00  0.00    +0.047 A 
ATOM     13  C   UNL     1      -6.762  -7.681   4.497  0.00  0.00    +0.029 A 
ATOM     14  C   UNL     1      -6.537  -6.937   3.255  0.00  0.00    +0.043 A 
ATOM     15  N   UNL     1      -5.519  -6.902   2.427  0.00  0.00    -0.376 N 
ATOM     16  C   UNL     1      -5.873  -6.050   1.296  0.00  0.00    +0.128 C 
ATOM     17  C   UNL     1      -4.875  -4.908   1.083  0.00  0.00    +0.121 C 
ATOM     18  N   UNL     1      -5.461  -3.953   0.129  0.00  0.00    -0.307 NA
ATOM     19  C   UNL     1      -6.638  -3.257   0.657  0.00  0.00    +0.086 C 
ATOM     20  C   UNL     1      -7.784  -4.259   0.891  0.00  0.00    +0.048 C 
ATOM     21  C   UNL     1      -7.204  -5.418   1.670  0.00  0.00    -0.035 C 
ATOM     22  C   UNL     1      -7.603  -6.007   2.804  0.00  0.00    +0.003 A 
ATOM     23  C   UNL     1      -8.819  -5.907   3.620  0.00  0.00    +0.055 A 
ATOM     24  H   UNL     1      -4.769  -3.296  -0.197  0.00  0.00    +0.123 HD
ATOM     25  H   UNL     1      -4.674  -7.363   2.547  0.00  0.00    +0.160 HD
BRANCH  11  27
ATOM     26  C   UNL     1     -10.130  -7.321   6.688  0.00  0.00    +0.277 C 
ATOM     27  O   UNL     1     -10.058  -6.530   5.500  0.00  0.00    -0.495 OA
ENDBRANCH  11  27
ENDBRANCH   1  17
BRANCH   7  28
ATOM     28  C   UNL     1      -6.422  -2.583   5.101  0.00  0.00    +0.099 A 
ATOM     29  C   UNL     1      -6.857  -1.281   4.906  0.00  0.00    +0.075 A 
ATOM     30  C   UNL     1      -7.899  -0.778   5.669  0.00  0.00    +0.122 A 
ATOM     31  C   UNL     1      -8.507  -1.576   6.628  0.00  0.00    +0.049 A 
ATOM     32  C   UNL     1      -8.075  -2.874   6.825  0.00  0.00    +0.051 A 
ATOM     33  C   UNL     1      -7.038  -3.384   6.060  0.00  0.00    +0.144 A 
BRANCH  33  34
ATOM     34  O   UNL     1      -6.617  -4.663   6.250  0.00  0.00    -0.493 OA
ATOM     35  C   UNL     1      -7.294  -5.427   7.251  0.00  0.00    +0.277 C 
ENDBRANCH  33  34
BRANCH  30  36
ATOM     36  O   UNL     1      -8.326   0.499   5.478  0.00  0.00    -0.495 OA
ATOM     37  C   UNL     1      -9.405   0.952   6.299  0.00  0.00    +0.277 C 
ENDBRANCH  30  36
ENDBRANCH   7  28
TORSDOF 5
