REMARK  Name = ZINC04973824
REMARK  6 active torsions:
REMARK  status: ('A' for Active; 'I' for Inactive)
REMARK    1  A    between atoms: C_5  and  C_7
REMARK    2  A    between atoms: C_7  and  O_8
REMARK    3  A    between atoms: O_8  and  C_9
REMARK    4  A    between atoms: C_13  and  C_15
REMARK    5  A    between atoms: C_15  and  N_16
REMARK    6  A    between atoms: N_16  and  C_17
REMARK                            x       y       z     vdW  Elec       q    Type
REMARK                         _______ _______ _______ _____ _____    ______ ____
ROOT
ATOM      1  C   UNL     1       1.072  -2.070   0.578  0.00  0.00    +0.121 A 
ATOM      2  C   UNL     1       0.034  -2.772  -0.018  0.00  0.00    +0.045 A 
ATOM      3  C   UNL     1      -1.015  -2.088  -0.601  0.00  0.00    +0.004 A 
ATOM      4  C   UNL     1      -1.031  -0.706  -0.591  0.00  0.00    +0.005 A 
ATOM      5  C   UNL     1       0.002  -0.004   0.002  0.00  0.00    -0.027 A 
ATOM      6  C   UNL     1       1.056  -0.683   0.582  0.00  0.00    +0.050 A 
ENDROOT
BRANCH   1   7
ATOM      7  O   UNL     1       2.106  -2.741   1.151  0.00  0.00    -0.487 OA
BRANCH   7   8
ATOM      8  C   UNL     1       2.059  -4.168   1.104  0.00  0.00    +0.267 C 
BRANCH   8  13
ATOM      9  C   UNL     1       5.343  -4.402   2.953  0.00  0.00    +0.001 A 
ATOM     10  C   UNL     1       5.520  -5.771   3.033  0.00  0.00    +0.003 A 
ATOM     11  C   UNL     1       4.577  -6.622   2.488  0.00  0.00    +0.039 A 
ATOM     12  C   UNL     1       3.456  -6.104   1.863  0.00  0.00    +0.130 A 
ATOM     13  C   UNL     1       3.280  -4.734   1.784  0.00  0.00    +0.025 A 
ATOM     14  C   UNL     1       4.226  -3.883   2.324  0.00  0.00    +0.010 A 
ATOM     15  F   UNL     1       2.534  -6.936   1.330  0.00  0.00    -0.205 F 
ENDBRANCH   8  13
ENDBRANCH   7   8
ENDBRANCH   1   7
BRANCH   5  16
ATOM     16  C   UNL     1      -0.018   1.503   0.010  0.00  0.00    +0.137 C 
BRANCH  16  17
ATOM     17  N   UNL     1      -0.704   1.975   1.216  0.00  0.00    -0.340 N 
ATOM     18  H   UNL     1      -1.058   1.337   1.854  0.00  0.00    +0.146 HD
BRANCH  17  19
ATOM     19  C   UNL     1      -0.848   3.348   1.446  0.00  0.00    +0.029 A 
ATOM     20  C   UNL     1      -0.341   4.262   0.530  0.00  0.00    +0.025 A 
ATOM     21  C   UNL     1      -0.480   5.617   0.751  0.00  0.00    +0.029 A 
ATOM     22  C   UNL     1      -1.128   6.070   1.891  0.00  0.00    +0.067 A 
ATOM     23  C   UNL     1      -1.639   5.154   2.812  0.00  0.00    +0.069 A 
ATOM     24  C   UNL     1      -1.503   3.793   2.584  0.00  0.00    +0.050 A 
ATOM     25  N   UNL     1      -2.224   5.896   3.836  0.00  0.00    -0.306 N 
ATOM     26  H   UNL     1      -2.663   5.533   4.620  0.00  0.00    +0.170 HD
ATOM     27  C   UNL     1      -2.077   7.204   3.550  0.00  0.00    +0.325 A 
ATOM     28  O   UNL     1      -2.477   8.121   4.242  0.00  0.00    -0.247 OA
ATOM     29  N   UNL     1      -1.419   7.342   2.384  0.00  0.00    -0.306 N 
ATOM     30  H   UNL     1      -1.188   8.183   1.958  0.00  0.00    +0.170 HD
ENDBRANCH  17  19
ENDBRANCH  16  17
ENDBRANCH   5  16
TORSDOF 6
