REMARK  Name = ZINC40173040
REMARK  6 active torsions:
REMARK  status: ('A' for Active; 'I' for Inactive)
REMARK    1  A    between atoms: C_1  and  C_2
REMARK    2  A    between atoms: C_2  and  C_4
REMARK    3  A    between atoms: C_2  and  N_16
REMARK    4  A    between atoms: C_20  and  S_21
REMARK    5  A    between atoms: S_21  and  C_22
REMARK    6  A    between atoms: C_22  and  C_23
REMARK                            x       y       z     vdW  Elec       q    Type
REMARK                         _______ _______ _______ _____ _____    ______ ____
ROOT
ATOM      1  N   UNL     1      -1.372  -0.511   0.012  0.00  0.00    -0.279 N 
ATOM      2  C   UNL     1      -2.324  -0.270  -0.937  0.00  0.00    +0.216 A 
ATOM      3  N   UNL     1      -3.421  -0.892  -0.579  0.00  0.00    -0.113 NA
ATOM      4  N   UNL     1      -3.169  -1.550   0.632  0.00  0.00    -0.121 NA
ATOM      5  C   UNL     1      -1.925  -1.313   0.971  0.00  0.00    +0.194 A 
ATOM      6  N   UNL     1      -2.159   0.499  -2.082  0.00  0.00    -0.328 N 
ATOM      7  H   UNL     1      -1.305   0.923  -2.262  0.00  0.00    +0.145 HD
ATOM      8  H   UNL     1      -2.897   0.613  -2.701  0.00  0.00    +0.145 HD
ENDROOT
BRANCH   1  10
ATOM      9  C   UNL     1      -0.019   1.526   0.010  0.00  0.00    +0.041 C 
ATOM     10  C   UNL     1       0.002  -0.004   0.002  0.00  0.00    +0.175 C 
BRANCH  10  11
ATOM     11  C   UNL     1       0.707  -0.490  -1.238  0.00  0.00    +0.241 C 
ATOM     12  O   UNL     1       0.120  -1.191  -2.034  0.00  0.00    -0.273 OA
ATOM     13  N   UNL     1       1.991  -0.146  -1.462  0.00  0.00    -0.263 N 
ATOM     14  C   UNL     1       2.640  -0.593  -2.601  0.00  0.00    +0.165 A 
ATOM     15  N   UNL     1       2.175  -1.345  -3.571  0.00  0.00    -0.225 NA
ATOM     16  C   UNL     1       2.927  -1.707  -4.633  0.00  0.00    +0.080 A 
ATOM     17  C   UNL     1       2.552  -2.508  -5.737  0.00  0.00    +0.029 A 
ATOM     18  C   UNL     1       3.445  -2.782  -6.739  0.00  0.00    +0.002 A 
ATOM     19  C   UNL     1       4.742  -2.289  -6.709  0.00  0.00    +0.001 A 
ATOM     20  C   UNL     1       5.143  -1.502  -5.645  0.00  0.00    +0.017 A 
ATOM     21  C   UNL     1       4.255  -1.222  -4.637  0.00  0.00    +0.041 A 
ATOM     22  S   UNL     1       4.319  -0.284  -3.129  0.00  0.00    -0.052 S 
ATOM     23  H   UNL     1       2.461   0.415  -0.825  0.00  0.00    +0.157 HD
ENDBRANCH  10  11
ENDBRANCH   1  10
BRANCH   5  24
ATOM     24  S   UNL     1      -1.111  -1.918   2.412  0.00  0.00    -0.081 S 
BRANCH  24  25
ATOM     25  C   UNL     1      -2.380  -2.906   3.251  0.00  0.00    +0.114 C 
BRANCH  25  26
ATOM     26  C   UNL     1      -1.807  -3.490   4.516  0.00  0.00    -0.019 A 
ATOM     27  C   UNL     1      -1.186  -4.724   4.489  0.00  0.00    +0.006 A 
ATOM     28  C   UNL     1      -0.660  -5.260   5.650  0.00  0.00    +0.000 A 
ATOM     29  C   UNL     1      -0.755  -4.561   6.839  0.00  0.00    +0.001 A 
ATOM     30  C   UNL     1      -1.376  -3.327   6.868  0.00  0.00    +0.020 A 
ATOM     31  C   UNL     1      -1.898  -2.788   5.705  0.00  0.00    +0.045 A 
ATOM     32 CL   UNL     1      -2.672  -1.234   5.739  0.00  0.00    -0.083 Cl
ENDBRANCH  25  26
ENDBRANCH  24  25
ENDBRANCH   5  24
TORSDOF 5
