REMARK  Name = ZINC09633656
REMARK  6 active torsions:
REMARK  status: ('A' for Active; 'I' for Inactive)
REMARK    1  A    between atoms: C_1  and  C_2
REMARK    2  A    between atoms: C_3  and  C_17
REMARK    3  A    between atoms: C_4  and  C_10
REMARK    4  A    between atoms: N_19  and  C_20
REMARK    5  A    between atoms: C_23  and  O_26
REMARK    6  A    between atoms: O_26  and  C_27
REMARK                            x       y       z     vdW  Elec       q    Type
REMARK                         _______ _______ _______ _____ _____    ______ ____
ROOT
ATOM      1  C   UNL     1      -3.269  -2.840  -0.946  0.00  0.00    +0.061 C 
ATOM      2  C   UNL     1      -1.886  -3.288  -0.549  0.00  0.00    +0.017 C 
ATOM      3  C   UNL     1      -0.879  -2.390  -0.527  0.00  0.00    +0.056 C 
ATOM      4  C   UNL     1       0.495  -2.880  -0.116  0.00  0.00    +0.139 C 
ATOM      5  N   UNL     1       0.620  -4.308   0.222  0.00  0.00    -0.315 N 
ATOM      6  C   UNL     1      -0.480  -5.084   0.146  0.00  0.00    +0.135 C 
ATOM      7  S   UNL     1      -0.350  -6.746   0.536  0.00  0.00    -0.019 S 
ATOM      8  N   UNL     1      -1.671  -4.597  -0.224  0.00  0.00    -0.300 N 
ATOM      9  H   UNL     1       1.473  -4.682   0.492  0.00  0.00    +0.149 HD
ATOM     10  H   UNL     1      -2.425  -5.207  -0.259  0.00  0.00    +0.154 HD
ENDROOT
BRANCH   4  11
ATOM     11  C   UNL     1       1.450  -2.585  -1.244  0.00  0.00    -0.023 A 
ATOM     12  C   UNL     1       1.377  -3.310  -2.419  0.00  0.00    +0.007 A 
ATOM     13  C   UNL     1       2.250  -3.036  -3.455  0.00  0.00    +0.020 A 
ATOM     14  C   UNL     1       3.203  -2.044  -3.313  0.00  0.00    +0.041 A 
ATOM     15  C   UNL     1       3.279  -1.322  -2.135  0.00  0.00    +0.020 A 
ATOM     16  C   UNL     1       2.402  -1.593  -1.101  0.00  0.00    +0.007 A 
ATOM     17 CL   UNL     1       4.304  -1.704  -4.611  0.00  0.00    -0.084 Cl
ENDBRANCH   4  11
BRANCH   3  18
ATOM     18  C   UNL     1      -1.099  -1.034  -0.871  0.00  0.00    +0.248 C 
ATOM     19  O   UNL     1      -1.299  -0.209   0.003  0.00  0.00    -0.270 OA
ATOM     20  N   UNL     1      -1.088  -0.655  -2.164  0.00  0.00    -0.282 N 
ATOM     21  H   UNL     1      -1.029  -1.324  -2.865  0.00  0.00    +0.155 HD
BRANCH  20  22
ATOM     22  C   UNL     1      -1.161   0.703  -2.498  0.00  0.00    +0.034 A 
ATOM     23  C   UNL     1      -1.970   1.556  -1.760  0.00  0.00    +0.027 A 
ATOM     24  C   UNL     1      -2.037   2.897  -2.086  0.00  0.00    +0.048 A 
ATOM     25  C   UNL     1      -1.305   3.388  -3.157  0.00  0.00    +0.130 A 
ATOM     26  C   UNL     1      -0.500   2.535  -3.898  0.00  0.00    +0.048 A 
ATOM     27  C   UNL     1      -0.428   1.195  -3.570  0.00  0.00    +0.027 A 
BRANCH  25  28
ATOM     28  O   UNL     1      -1.375   4.707  -3.480  0.00  0.00    -0.406 OA
BRANCH  28  29
ATOM     29  C   UNL     1      -2.223   5.528  -2.674  0.00  0.00    +0.575 C 
ATOM     30  F   UNL     1      -1.784   5.489  -1.347  0.00  0.00    -0.133 F 
ATOM     31  F   UNL     1      -2.178   6.846  -3.142  0.00  0.00    -0.133 F 
ATOM     32  F   UNL     1      -3.537   5.053  -2.746  0.00  0.00    -0.133 F 
ENDBRANCH  28  29
ENDBRANCH  25  28
ENDBRANCH  20  22
ENDBRANCH   3  18
TORSDOF 5
