REMARK  Name = ZINC30977553
REMARK  13 active torsions:
REMARK  status: ('A' for Active; 'I' for Inactive)
REMARK    1  A    between atoms: C_1  and  C_2
REMARK    2  A    between atoms: C_5  and  O_8
REMARK    3  A    between atoms: O_8  and  C_9
REMARK    4  A    between atoms: C_9  and  C_10
REMARK    5  A    between atoms: C_10  and  N_11
REMARK    6  A    between atoms: C_12  and  C_14
REMARK    7  A    between atoms: N_17  and  C_20
REMARK    8  A    between atoms: C_20  and  C_21
REMARK    9  A    between atoms: C_23  and  C_26
REMARK   10  A    between atoms: C_29  and  C_32
REMARK   11  A    between atoms: C_32  and  C_33
REMARK   12  A    between atoms: C_32  and  C_34
REMARK   13  A    between atoms: C_32  and  C_35
REMARK                            x       y       z     vdW  Elec       q    Type
REMARK                         _______ _______ _______ _____ _____    ______ ____
ROOT
ATOM      1  C   UNL     1       0.629   7.715   2.802  0.00  0.00    +0.071 C 
ATOM      2  C   UNL     1      -0.724   7.011   2.935  0.00  0.00    -0.006 C 
ATOM      3  C   UNL     1      -1.409   7.472   4.223  0.00  0.00    -0.077 C 
ATOM      4  N   UNL     1      -1.597   8.928   4.185  0.00  0.00    +0.386 N 
ATOM      5  C   UNL     1      -0.308   9.627   4.106  0.00  0.00    -0.077 C 
ATOM      6  C   UNL     1       0.411   9.231   2.814  0.00  0.00    -0.006 C 
ATOM      7  H   UNL     1      -2.165   9.169   3.275  0.00  0.00    -0.081 HD
ENDROOT
BRANCH   1   9
ATOM      8  N   UNL     1       1.573   6.016   1.272  0.00  0.00    -0.312 N 
ATOM      9  C   UNL     1       1.283   7.311   1.506  0.00  0.00    +0.216 C 
ATOM     10  O   UNL     1       1.548   8.152   0.673  0.00  0.00    -0.276 OA
ATOM     11  H   UNL     1       1.332   5.254   2.028  0.00  0.00    +0.149 HD
BRANCH   8  12
ATOM     12  C   UNL     1       2.208   5.623   0.012  0.00  0.00    +0.145 C 
BRANCH  12  13
ATOM     13  C   UNL     1       2.426   4.108   0.001  0.00  0.00    +0.247 C 
BRANCH  13  14
ATOM     14  O   UNL     1       1.160   3.445   0.010  0.00  0.00    -0.490 OA
BRANCH  14  19
ATOM     15  C   UNL     1       1.226  -2.187  -0.021  0.00  0.00    +0.044 C 
ATOM     16  C   UNL     1       1.208  -0.680  -0.013  0.00  0.00    -0.050 A 
ATOM     17  C   UNL     1       0.002  -0.004   0.002  0.00  0.00    +0.007 A 
ATOM     18  C   UNL     1      -0.017   1.377   0.010  0.00  0.00    +0.046 A 
ATOM     19  C   UNL     1       1.176   2.086   0.002  0.00  0.00    +0.121 A 
ATOM     20  C   UNL     1       2.385   1.405  -0.013  0.00  0.00    +0.046 A 
ATOM     21  C   UNL     1       2.398   0.024  -0.021  0.00  0.00    +0.007 A 
ENDBRANCH  14  19
ENDBRANCH  13  14
ENDBRANCH  12  13
ENDBRANCH   8  12
ENDBRANCH   1   9
BRANCH   4  22
ATOM     22  C   UNL     1      -2.375   9.389   5.343  0.00  0.00    +0.022 C 
BRANCH  22  23
ATOM     23  C   UNL     1      -3.776   8.839   5.257  0.00  0.00    +0.211 A 
ATOM     24  N   UNL     1      -4.198   7.704   5.754  0.00  0.00    -0.193 NA
ATOM     25  C   UNL     1      -5.510   7.633   5.436  0.00  0.00    +0.202 A 
ATOM     26  N   UNL     1      -5.805   8.719   4.770  0.00  0.00    -0.056 NA
ATOM     27  O   UNL     1      -4.822   9.422   4.664  0.00  0.00    -0.340 OA
BRANCH  25  28
ATOM     28  C   UNL     1      -6.441   6.528   5.777  0.00  0.00    +0.022 A 
ATOM     29  C   UNL     1      -5.983   5.423   6.490  0.00  0.00    +0.012 A 
ATOM     30  C   UNL     1      -6.854   4.401   6.809  0.00  0.00    +0.005 A 
ATOM     31  C   UNL     1      -8.178   4.468   6.413  0.00  0.00    -0.042 A 
ATOM     32  C   UNL     1      -8.637   5.561   5.700  0.00  0.00    +0.005 A 
ATOM     33  C   UNL     1      -7.775   6.591   5.380  0.00  0.00    +0.012 A 
BRANCH  31  34
ATOM     34  C   UNL     1      -9.123   3.347   6.759  0.00  0.00    -0.013 C 
ATOM     35  C   UNL     1      -9.687   2.741   5.472  0.00  0.00    +0.015 C 
ATOM     36  C   UNL     1      -8.371   2.270   7.543  0.00  0.00    +0.015 C 
ATOM     37  C   UNL     1     -10.270   3.892   7.612  0.00  0.00    +0.015 C 
ENDBRANCH  31  34
ENDBRANCH  25  28
ENDBRANCH  22  23
ENDBRANCH   4  22
TORSDOF 9
