REMARK  Name = ZINC37405829
REMARK  6 active torsions:
REMARK  status: ('A' for Active; 'I' for Inactive)
REMARK    1  A    between atoms: C_1  and  C_2
REMARK    2  A    between atoms: C_2  and  O_3
REMARK    3  A    between atoms: O_3  and  C_4
REMARK    4  A    between atoms: C_7  and  C_11
REMARK    5  A    between atoms: C_12  and  C_13
REMARK    6  A    between atoms: C_12  and  C_15
REMARK                            x       y       z     vdW  Elec       q    Type
REMARK                         _______ _______ _______ _____ _____    ______ ____
ROOT
ATOM      1  C   UNL     1      -1.603  -1.835  -0.041  0.00  0.00    +0.148 A 
ATOM      2  C   UNL     1      -1.788  -2.522  -1.237  0.00  0.00    +0.061 A 
ATOM      3  C   UNL     1      -1.917  -3.892  -1.234  0.00  0.00    +0.027 A 
ATOM      4  C   UNL     1      -1.860  -4.596  -0.022  0.00  0.00    -0.021 A 
ATOM      5  C   UNL     1      -1.673  -3.898   1.181  0.00  0.00    +0.027 A 
ATOM      6  C   UNL     1      -1.540  -2.529   1.164  0.00  0.00    +0.061 A 
ATOM      7 BR   UNL     1      -1.280  -1.586   2.783  0.00  0.00    -0.046 Br
ATOM      8 BR   UNL     1      -1.864  -1.571  -2.870  0.00  0.00    -0.046 Br
ENDROOT
BRANCH   4   9
ATOM      9  C   UNL     1      -1.997  -6.053  -0.011  0.00  0.00    +0.034 C 
ATOM     10  C   UNL     1      -1.582  -6.793  -1.101  0.00  0.00    +0.140 C 
BRANCH  10  11
ATOM     11  C   UNL     1      -1.853  -8.234  -1.155  0.00  0.00    +0.397 C 
ATOM     12  O   UNL     1      -2.447  -8.780  -0.235  0.00  0.00    -0.240 OA
ATOM     13  O   UNL     1      -1.485  -8.890  -2.122  0.00  0.00    -0.240 OA
ENDBRANCH  10  11
BRANCH  10  14
ATOM     14  C   UNL     1      -0.886  -6.154  -2.178  0.00  0.00    +0.106 C 
ATOM     15  N   UNL     1      -0.335  -5.647  -3.031  0.00  0.00    -0.191 NA
ENDBRANCH  10  14
ENDBRANCH   4   9
BRANCH   1  16
ATOM     16  O   UNL     1      -1.477  -0.484  -0.050  0.00  0.00    -0.490 OA
BRANCH  16  18
ATOM     17  C   UNL     1      -0.213   1.572  -0.178  0.00  0.00    +0.048 C 
ATOM     18  C   UNL     1      -0.156   0.043  -0.188  0.00  0.00    +0.226 C 
ENDBRANCH  16  18
ENDBRANCH   1  16
TORSDOF 5
