REMARK  Name = ZINC22240236
REMARK  6 active torsions:
REMARK  status: ('A' for Active; 'I' for Inactive)
REMARK    1  A    between atoms: C_9  and  N_27
REMARK    2  A    between atoms: C_11  and  C_13
REMARK    3  A    between atoms: C_13  and  S_14
REMARK    4  A    between atoms: S_14  and  C_15
REMARK    5  A    between atoms: C_18  and  C_21
REMARK    6  A    between atoms: N_19  and  N_20
REMARK                            x       y       z     vdW  Elec       q    Type
REMARK                         _______ _______ _______ _____ _____    ______ ____
ROOT
ATOM      1  C   UNL     1      -0.150  -3.132   1.200  0.00  0.00    +0.001 C 
ATOM      2  C   UNL     1       0.675  -2.711  -0.015  0.00  0.00    +0.005 C 
ATOM      3  C   UNL     1       1.807  -1.782   0.406  0.00  0.00    +0.037 C 
ATOM      4  C   UNL     1       1.337  -0.331   0.367  0.00  0.00    -0.025 A 
ATOM      5  C   UNL     1       0.041   0.010   0.522  0.00  0.00    -0.004 A 
ATOM      6  S   UNL     1       0.008   1.781   0.415  0.00  0.00    -0.073 S 
ATOM      7  C   UNL     1       1.739   2.066   0.156  0.00  0.00    +0.114 A 
ATOM      8  C   UNL     1       2.287   0.769   0.161  0.00  0.00    +0.051 A 
ATOM      9  C   UNL     1       3.694   0.698  -0.034  0.00  0.00    +0.128 A 
ATOM     10  N   UNL     1       4.377   1.820  -0.199  0.00  0.00    -0.216 NA
ATOM     11  C   UNL     1       3.796   3.006  -0.190  0.00  0.00    +0.143 A 
ATOM     12  N   UNL     1       2.494   3.133  -0.015  0.00  0.00    -0.224 NA
ATOM     13  C   UNL     1      -1.128  -0.902   0.726  0.00  0.00    +0.043 C 
ATOM     14  C   UNL     1      -0.800  -1.908   1.838  0.00  0.00    +0.005 C 
ENDROOT
BRANCH   9  15
ATOM     15  N   UNL     1       4.339  -0.525  -0.050  0.00  0.00    -0.343 N 
ATOM     16  H   UNL     1       5.428  -0.571  -0.202  0.00  0.00    +0.144 HD
ATOM     17  H   UNL     1       3.764  -1.452   0.088  0.00  0.00    +0.144 HD
ENDBRANCH   9  15
BRANCH  11  18
ATOM     18  C   UNL     1       4.637   4.240  -0.384  0.00  0.00    +0.153 C 
BRANCH  18  19
ATOM     19  S   UNL     1       4.738   4.632  -2.148  0.00  0.00    -0.077 S 
BRANCH  19  20
ATOM     20  C   UNL     1       5.749   6.073  -2.085  0.00  0.00    +0.209 A 
ATOM     21  N   UNL     1       6.245   6.632  -1.005  0.00  0.00    -0.121 NA
ATOM     22  N   UNL     1       6.935   7.668  -1.327  0.00  0.00    -0.132 NA
ATOM     23  C   UNL     1       6.921   7.830  -2.620  0.00  0.00    +0.154 A 
ATOM     24  N   UNL     1       6.170   6.817  -3.150  0.00  0.00    -0.228 N 
BRANCH  23  25
ATOM     25  C   UNL     1       7.610   8.927  -3.390  0.00  0.00    +0.059 C 
ATOM     26  C   UNL     1       9.117   8.861  -3.133  0.00  0.00    +0.011 C 
ATOM     27  C   UNL     1       9.816   9.975  -3.914  0.00  0.00    +0.001 C 
ATOM     28  C   UNL     1       9.280  11.334  -3.458  0.00  0.00    +0.000 C 
ATOM     29  C   UNL     1       7.773  11.399  -3.714  0.00  0.00    +0.001 C 
ATOM     30  C   UNL     1       7.073  10.285  -2.933  0.00  0.00    +0.011 C 
ENDBRANCH  23  25
BRANCH  24  31
ATOM     31  N   UNL     1       5.895   6.597  -4.470  0.00  0.00    -0.295 N 
ATOM     32  H   UNL     1       6.298   7.276  -5.236  0.00  0.00    +0.163 HD
ATOM     33  H   UNL     1       5.271   5.741  -4.766  0.00  0.00    +0.163 HD
ENDBRANCH  24  31
ENDBRANCH  19  20
ENDBRANCH  18  19
ENDBRANCH  11  18
TORSDOF 6
