REMARK  Name = ZINC20478919
REMARK  6 active torsions:
REMARK  status: ('A' for Active; 'I' for Inactive)
REMARK    1  A    between atoms: C_1  and  C_2
REMARK    2  A    between atoms: C_2  and  C_4
REMARK    3  A    between atoms: C_2  and  N_12
REMARK    4  A    between atoms: C_7  and  O_11
REMARK    5  A    between atoms: C_9  and  O_10
REMARK    6  A    between atoms: N_12  and  C_13
REMARK                            x       y       z     vdW  Elec       q    Type
REMARK                         _______ _______ _______ _____ _____    ______ ____
ROOT
ATOM      1  C   UNL     1      -2.950   0.810  -1.377  0.00  0.00    +0.033 C 
ATOM      2  C   UNL     1      -2.522   1.262   0.021  0.00  0.00    +0.101 C 
ENDROOT
BRANCH   2   3
ATOM      3  C   UNL     1      -1.253   2.069  -0.079  0.00  0.00    +0.014 A 
ATOM      4  C   UNL     1      -1.318   3.445  -0.192  0.00  0.00    +0.012 A 
ATOM      5  C   UNL     1      -0.157   4.188  -0.289  0.00  0.00    +0.046 A 
ATOM      6  C   UNL     1       1.077   3.554  -0.268  0.00  0.00    +0.120 A 
ATOM      7  C   UNL     1       1.145   2.175  -0.148  0.00  0.00    +0.091 A 
ATOM      8  C   UNL     1      -0.021   1.431  -0.051  0.00  0.00    +0.125 A 
BRANCH   8   9
ATOM      9  O   UNL     1       0.042   0.079   0.067  0.00  0.00    -0.506 OA
ATOM     10  H   UNL     1       1.019  -0.426   0.089  0.00  0.00    +0.292 HD
ENDBRANCH   8   9
BRANCH   6  11
ATOM     11  O   UNL     1       2.219   4.285  -0.364  0.00  0.00    -0.507 OA
ATOM     12  H   UNL     1       3.197   3.782  -0.346  0.00  0.00    +0.292 HD
ENDBRANCH   6  11
ENDBRANCH   2   3
BRANCH   2  13
ATOM     13  N   UNL     1      -3.579   2.084   0.614  0.00  0.00    -0.337 N 
ATOM     14  H   UNL     1      -3.540   3.179   0.523  0.00  0.00    +0.147 HD
BRANCH  13  15
ATOM     15  C   UNL     1      -4.637   1.477   1.295  0.00  0.00    +0.029 A 
ATOM     16  C   UNL     1      -4.691   0.093   1.405  0.00  0.00    +0.023 A 
ATOM     17  C   UNL     1      -5.735  -0.504   2.083  0.00  0.00    +0.003 A 
ATOM     18  C   UNL     1      -6.733   0.273   2.643  0.00  0.00    +0.014 A 
ATOM     19  C   UNL     1      -6.685   1.651   2.530  0.00  0.00    +0.015 A 
ATOM     20  C   UNL     1      -5.640   2.255   1.857  0.00  0.00    +0.037 A 
ATOM     21  I   UNL     1      -8.200   2.824   3.379  0.00  0.00    -0.044 I 
ENDBRANCH  13  15
ENDBRANCH   2  13
TORSDOF 5
