REMARK  Name = ZINC00807684
REMARK  8 active torsions:
REMARK  status: ('A' for Active; 'I' for Inactive)
REMARK    1  A    between atoms: C_1  and  C_2
REMARK    2  A    between atoms: C_4  and  C_27
REMARK    3  A    between atoms: C_6  and  C_12
REMARK    4  A    between atoms: C_8  and  C_11
REMARK    5  A    between atoms: C_15  and  C_19
REMARK    6  A    between atoms: C_16  and  C_18
REMARK    7  A    between atoms: C_22  and  O_25
REMARK    8  A    between atoms: O_25  and  C_26
REMARK                            x       y       z     vdW  Elec       q    Type
REMARK                         _______ _______ _______ _____ _____    ______ ____
ROOT
ATOM      1  C   UNL     1      -1.324   2.156   0.020  0.00  0.00    +0.068 C 
ATOM      2  C   UNL     1      -0.017   1.407   0.010  0.00  0.00    +0.070 A 
ATOM      3  C   UNL     1       0.002  -0.004   0.002  0.00  0.00    +0.028 A 
ATOM      4  C   UNL     1      -0.916  -1.022   0.005  0.00  0.00    +0.032 A 
ATOM      5  N   UNL     1      -0.249  -2.207  -0.007  0.00  0.00    -0.296 N 
ATOM      6  C   UNL     1       1.095  -2.006  -0.019  0.00  0.00    +0.032 A 
ATOM      7  C   UNL     1       1.335  -0.656  -0.014  0.00  0.00    +0.028 A 
ATOM      8  C   UNL     1       2.461   0.194  -0.020  0.00  0.00    +0.070 A 
ATOM      9  N   UNL     1       2.272   1.492  -0.011  0.00  0.00    -0.154 NA
ATOM     10  N   UNL     1       1.123   2.054   0.002  0.00  0.00    -0.154 NA
ATOM     11  C   UNL     1       3.855  -0.378  -0.036  0.00  0.00    +0.068 C 
ATOM     12  C   UNL     1       2.145  -3.087  -0.035  0.00  0.00    +0.064 C 
ATOM     13  C   UNL     1      -0.862  -3.458  -0.008  0.00  0.00    +0.178 A 
ATOM     14  N   UNL     1      -2.147  -3.759   0.003  0.00  0.00    -0.222 NA
ATOM     15  C   UNL     1      -2.559  -5.016   0.001  0.00  0.00    +0.083 A 
ATOM     16  C   UNL     1      -1.635  -6.025  -0.013  0.00  0.00    +0.016 A 
ATOM     17  S   UNL     1      -0.116  -5.082  -0.031  0.00  0.00    -0.054 S 
ATOM     18  C   UNL     1      -1.841  -7.518  -0.019  0.00  0.00    +0.054 C 
ATOM     19  C   UNL     1      -2.413  -0.856   0.021  0.00  0.00    +0.064 C 
ENDROOT
BRANCH  15  20
ATOM     20  C   UNL     1      -4.009  -5.328   0.013  0.00  0.00    +0.001 A 
ATOM     21  C   UNL     1      -4.491  -6.434  -0.684  0.00  0.00    +0.013 A 
ATOM     22  C   UNL     1      -5.839  -6.725  -0.666  0.00  0.00    +0.046 A 
ATOM     23  C   UNL     1      -6.717  -5.911   0.036  0.00  0.00    +0.120 A 
ATOM     24  C   UNL     1      -6.241  -4.805   0.727  0.00  0.00    +0.046 A 
ATOM     25  C   UNL     1      -4.893  -4.512   0.718  0.00  0.00    +0.013 A 
BRANCH  23  26
ATOM     26  O   UNL     1      -8.046  -6.197   0.048  0.00  0.00    -0.495 OA
ATOM     27  C   UNL     1      -8.467  -7.350  -0.684  0.00  0.00    +0.277 C 
ENDBRANCH  23  26
ENDBRANCH  15  20
TORSDOF 2
