REMARK  Name = ZINC35146679
REMARK  4 active torsions:
REMARK  status: ('A' for Active; 'I' for Inactive)
REMARK    1  A    between atoms: C_4  and  C_7
REMARK    2  A    between atoms: C_9  and  C_27
REMARK    3  A    between atoms: C_22  and  C_24
REMARK    4  A    between atoms: C_27  and  C_29
REMARK                            x       y       z     vdW  Elec       q    Type
REMARK                         _______ _______ _______ _____ _____    ______ ____
ROOT
ATOM      1  C   UNL     1       3.318  -0.316   0.210  0.00  0.00    +0.061 C 
ATOM      2  C   UNL     1       3.642  -1.479   1.185  0.00  0.00    +0.098 C 
ATOM      3  C   UNL     1       4.449  -2.466   0.326  0.00  0.00    +0.116 C 
ATOM      4  C   UNL     1       5.922  -2.372   0.632  0.00  0.00    -0.019 A 
ATOM      5  C   UNL     1       6.368  -2.135   1.911  0.00  0.00    +0.006 A 
ATOM      6  C   UNL     1       7.727  -2.049   2.165  0.00  0.00    +0.000 A 
ATOM      7  C   UNL     1       8.639  -2.201   1.136  0.00  0.00    +0.001 A 
ATOM      8  C   UNL     1       8.205  -2.440  -0.151  0.00  0.00    +0.008 A 
ATOM      9  C   UNL     1       6.837  -2.530  -0.416  0.00  0.00    -0.019 A 
ATOM     10  C   UNL     1       6.363  -2.795  -1.790  0.00  0.00    +0.023 C 
ATOM     11  C   UNL     1       5.078  -2.537  -2.107  0.00  0.00    +0.072 C 
ATOM     12  N   UNL     1       4.265  -2.064  -1.085  0.00  0.00    -0.316 N 
ATOM     13  C   UNL     1       3.197  -1.062  -1.146  0.00  0.00    +0.167 C 
ENDROOT
BRANCH   1  17
ATOM     14  C   UNL     1      -0.372   1.569   1.249  0.00  0.00    +0.000 A 
ATOM     15  C   UNL     1       0.789   2.315   1.178  0.00  0.00    +0.000 A 
ATOM     16  C   UNL     1       1.984   1.706   0.842  0.00  0.00    +0.004 A 
ATOM     17  C   UNL     1       2.016   0.349   0.578  0.00  0.00    -0.041 A 
ATOM     18  C   UNL     1       0.855  -0.398   0.650  0.00  0.00    +0.004 A 
ATOM     19  C   UNL     1      -0.339   0.213   0.984  0.00  0.00    +0.000 A 
ENDBRANCH   1  17
BRANCH  13  20
ATOM     20  C   UNL     1       3.425  -0.114  -2.295  0.00  0.00    +0.232 C 
ATOM     21  O   UNL     1       4.504  -0.080  -2.849  0.00  0.00    -0.274 OA
ATOM     22  N   UNL     1       2.431   0.697  -2.707  0.00  0.00    -0.328 N 
ATOM     23  H   UNL     1       1.568   0.670  -2.264  0.00  0.00    +0.145 HD
ATOM     24  H   UNL     1       2.577   1.308  -3.446  0.00  0.00    +0.145 HD
ENDBRANCH  13  20
BRANCH   2  25
ATOM     25  C   UNL     1       4.468  -0.984   2.344  0.00  0.00    +0.204 C 
ATOM     26  O   UNL     1       4.258  -1.405   3.463  0.00  0.00    -0.288 OA
BRANCH  25  27
ATOM     27  C   UNL     1       5.486  -0.028   2.128  0.00  0.00    +0.170 A 
ATOM     28  C   UNL     1       6.231   0.603   3.105  0.00  0.00    +0.053 A 
ATOM     29  C   UNL     1       7.116   1.461   2.440  0.00  0.00    +0.042 A 
ATOM     30  C   UNL     1       6.884   1.326   1.114  0.00  0.00    +0.196 A 
ATOM     31  O   UNL     1       5.910   0.428   0.930  0.00  0.00    -0.460 OA
ENDBRANCH  25  27
ENDBRANCH   2  25
TORSDOF 4
