REMARK  Name = ZINC00985837
REMARK  10 active torsions:
REMARK  status: ('A' for Active; 'I' for Inactive)
REMARK    1  A    between atoms: C_1  and  C_2
REMARK    2  A    between atoms: C_2  and  C_3
REMARK    3  A    between atoms: C_2  and  C_4
REMARK    4  A    between atoms: C_4  and  C_5
REMARK    5  A    between atoms: C_8  and  C_11
REMARK    6  A    between atoms: C_18  and  N_34
REMARK    7  A    between atoms: C_19  and  C_32
REMARK    8  A    between atoms: C_20  and  C_22
REMARK    9  A    between atoms: C_25  and  N_28
REMARK   10  A    between atoms: C_29  and  C_31
REMARK                            x       y       z     vdW  Elec       q    Type
REMARK                         _______ _______ _______ _____ _____    ______ ____
ROOT
ATOM      1  C   UNL     1      -4.181   1.207  -5.181  0.00  0.00    +0.100 A 
ATOM      2  C   UNL     1      -3.637   0.769  -6.392  0.00  0.00    +0.054 A 
ATOM      3  C   UNL     1      -4.447   1.204  -7.401  0.00  0.00    +0.223 A 
ATOM      4  N   UNL     1      -5.464   1.892  -6.843  0.00  0.00    -0.246 N 
ATOM      5  H   UNL     1      -6.194   2.317  -7.320  0.00  0.00    +0.192 HD
ATOM      6  N   UNL     1      -5.285   1.879  -5.451  0.00  0.00    -0.171 NA
ATOM      7  O   UNL     1      -4.195   0.940  -8.708  0.00  0.00    -0.423 OA
ATOM      8  C   UNL     1      -3.268   0.001  -8.988  0.00  0.00    +0.200 C 
ATOM      9  C   UNL     1      -2.403  -0.497  -8.077  0.00  0.00    +0.098 C 
ATOM     10  C   UNL     1      -2.389  -0.038  -6.640  0.00  0.00    +0.102 C 
ENDROOT
BRANCH   1  14
ATOM     11  C   UNL     1      -2.578   0.483  -1.310  0.00  0.00    -0.047 A 
ATOM     12  C   UNL     1      -3.218   1.680  -1.578  0.00  0.00    +0.004 A 
ATOM     13  C   UNL     1      -3.740   1.920  -2.833  0.00  0.00    +0.010 A 
ATOM     14  C   UNL     1      -3.622   0.954  -3.830  0.00  0.00    +0.003 A 
ATOM     15  C   UNL     1      -2.976  -0.249  -3.554  0.00  0.00    +0.010 A 
ATOM     16  C   UNL     1      -2.453  -0.476  -2.298  0.00  0.00    +0.004 A 
BRANCH  11  17
ATOM     17  C   UNL     1      -2.009   0.227   0.062  0.00  0.00    +0.038 C 
BRANCH  17  19
ATOM     18  C   UNL     1      -0.542   2.246  -0.053  0.00  0.00    +0.007 C 
ATOM     19  C   UNL     1      -0.564   0.726   0.116  0.00  0.00    -0.013 C 
ATOM     20  C   UNL     1       0.054   0.355   1.466  0.00  0.00    +0.007 C 
ENDBRANCH  17  19
ENDBRANCH  11  17
ENDBRANCH   1  14
BRANCH  10  21
ATOM     21  C   UNL     1      -1.173   0.816  -6.391  0.00  0.00    -0.034 A 
ATOM     22  C   UNL     1      -0.978   1.970  -7.126  0.00  0.00    +0.006 A 
ATOM     23  C   UNL     1       0.136   2.755  -6.900  0.00  0.00    +0.023 A 
ATOM     24  C   UNL     1       1.060   2.384  -5.932  0.00  0.00    +0.033 A 
ATOM     25  C   UNL     1       0.861   1.224  -5.195  0.00  0.00    +0.023 A 
ATOM     26  C   UNL     1      -0.257   0.446  -5.422  0.00  0.00    +0.006 A 
BRANCH  24  27
ATOM     27  N   UNL     1       2.189   3.177  -5.701  0.00  0.00    -0.286 N 
ATOM     28  C   UNL     1       2.114   4.515  -5.843  0.00  0.00    +0.214 C 
ATOM     29  O   UNL     1       1.047   5.041  -6.078  0.00  0.00    -0.276 OA
ATOM     30  C   UNL     1       3.356   5.358  -5.711  0.00  0.00    +0.109 C 
ATOM     31  H   UNL     1       3.027   2.764  -5.438  0.00  0.00    +0.155 HD
ENDBRANCH  24  27
ENDBRANCH  10  21
BRANCH   8  32
ATOM     32  N   UNL     1      -3.201  -0.477 -10.273  0.00  0.00    -0.328 N 
ATOM     33  H   UNL     1      -3.809  -0.139 -10.949  0.00  0.00    +0.145 HD
ATOM     34  H   UNL     1      -2.545  -1.153 -10.505  0.00  0.00    +0.145 HD
ENDBRANCH   8  32
BRANCH   9  35
ATOM     35  C   UNL     1      -1.466  -1.498  -8.491  0.00  0.00    +0.101 C 
ATOM     36  N   UNL     1      -0.722  -2.291  -8.819  0.00  0.00    -0.191 NA
ENDBRANCH   9  35
TORSDOF 7
