REMARK  Name = ZINC01868321
REMARK  4 active torsions:
REMARK  status: ('A' for Active; 'I' for Inactive)
REMARK    1  A    between atoms: C_1  and  C_2
REMARK    2  A    between atoms: N_4  and  C_5
REMARK    3  A    between atoms: C_5  and  C_23
REMARK    4  A    between atoms: N_11  and  C_16
REMARK                            x       y       z     vdW  Elec       q    Type
REMARK                         _______ _______ _______ _____ _____    ______ ____
ROOT
ATOM      1  C   UNL     1      -1.171  -3.471  -0.842  0.00  0.00    +0.240 C 
ATOM      2  C   UNL     1      -2.553  -3.298  -0.257  0.00  0.00    +0.097 A 
ATOM      3  C   UNL     1      -3.681  -2.572  -0.659  0.00  0.00    +0.262 A 
ATOM      4  N   UNL     1      -4.800  -2.617   0.093  0.00  0.00    -0.274 N 
ATOM      5  C   UNL     1      -4.827  -3.354   1.219  0.00  0.00    +0.335 A 
ATOM      6  O   UNL     1      -5.844  -3.384   1.886  0.00  0.00    -0.246 OA
ATOM      7  N   UNL     1      -3.756  -4.058   1.622  0.00  0.00    -0.249 N 
ATOM      8  C   UNL     1      -2.588  -4.042   0.885  0.00  0.00    +0.125 A 
ATOM      9  N   UNL     1      -1.386  -4.673   1.099  0.00  0.00    -0.269 N 
ATOM     10  C   UNL     1      -0.485  -4.401   0.138  0.00  0.00    +0.256 C 
ATOM     11  O   UNL     1       0.652  -4.817   0.070  0.00  0.00    -0.272 OA
ATOM     12  O   UNL     1      -3.652  -1.905  -1.680  0.00  0.00    -0.267 OA
ATOM     13  H   UNL     1      -1.207  -5.249   1.858  0.00  0.00    +0.156 HD
ATOM     14  H   UNL     1      -5.586  -2.118  -0.177  0.00  0.00    +0.173 HD
ENDROOT
BRANCH   7  15
ATOM     15  C   UNL     1      -3.824  -4.813   2.800  0.00  0.00    +0.053 A 
ATOM     16  C   UNL     1      -4.240  -6.137   2.755  0.00  0.00    +0.026 A 
ATOM     17  C   UNL     1      -4.306  -6.879   3.917  0.00  0.00    +0.002 A 
ATOM     18  C   UNL     1      -3.959  -6.305   5.126  0.00  0.00    +0.000 A 
ATOM     19  C   UNL     1      -3.544  -4.987   5.175  0.00  0.00    +0.002 A 
ATOM     20  C   UNL     1      -3.470  -4.241   4.015  0.00  0.00    +0.026 A 
ENDBRANCH   7  15
BRANCH   1  24
ATOM     21  C   UNL     1       1.526  -0.808  -1.383  0.00  0.00    +0.109 C 
ATOM     22  C   UNL     1       0.809  -2.132  -1.316  0.00  0.00    +0.211 C 
ATOM     23  O   UNL     1       1.386  -3.151  -1.631  0.00  0.00    -0.276 OA
ATOM     24  N   UNL     1      -0.474  -2.184  -0.907  0.00  0.00    -0.291 N 
ATOM     25  H   UNL     1      -0.936  -1.369  -0.655  0.00  0.00    +0.150 HD
ENDBRANCH   1  24
BRANCH   1  26
ATOM     26  C   UNL     1      -1.247  -4.111  -2.230  0.00  0.00    +0.424 C 
ATOM     27  F   UNL     1       0.047  -4.305  -2.725  0.00  0.00    -0.167 F 
ATOM     28  F   UNL     1      -1.902  -5.344  -2.139  0.00  0.00    -0.167 F 
ATOM     29  F   UNL     1      -1.955  -3.269  -3.094  0.00  0.00    -0.167 F 
ENDBRANCH   1  26
TORSDOF 3
