REMARK  Name = ZINC43959257
REMARK  6 active torsions:
REMARK  status: ('A' for Active; 'I' for Inactive)
REMARK    1  A    between atoms: C_1  and  C_2
REMARK    2  A    between atoms: C_9  and  O_20
REMARK    3  A    between atoms: C_12  and  C_14
REMARK    4  A    between atoms: C_23  and  O_32
REMARK    5  A    between atoms: C_24  and  O_31
REMARK    6  A    between atoms: C_27  and  O_30
REMARK                            x       y       z     vdW  Elec       q    Type
REMARK                         _______ _______ _______ _____ _____    ______ ____
ROOT
ATOM      1  C   UNL     1       0.026   1.518   0.023  0.00  0.00    +0.014 C 
ATOM      2  C   UNL     1       0.014  -0.036   0.029  0.00  0.00    +0.004 C 
ATOM      3  C   UNL     1       0.707  -0.451  -1.241  0.00  0.00    +0.010 C 
ATOM      4  C   UNL     1       1.244  -1.878  -1.233  0.00  0.00    +0.007 C 
ATOM      5  C   UNL     1       2.171  -2.053  -0.035  0.00  0.00    +0.029 C 
ATOM      6  C   UNL     1       1.401  -1.820   1.257  0.00  0.00    +0.027 C 
ATOM      7  C   UNL     1       0.733  -0.458   1.317  0.00  0.00    +0.075 C 
ATOM      8  C   UNL     1      -0.408  -0.522   2.371  0.00  0.00    +0.036 C 
ATOM      9  C   UNL     1      -1.644  -0.990   1.579  0.00  0.00    +0.011 C 
ATOM     10  C   UNL     1      -1.452  -0.442   0.151  0.00  0.00    +0.027 C 
ATOM     11  C   UNL     1       0.427  -2.969   1.500  0.00  0.00    +0.009 C 
ATOM     12  C   UNL     1       1.257  -4.241   1.711  0.00  0.00    +0.038 C 
ATOM     13  C   UNL     1       2.023  -4.570   0.430  0.00  0.00    +0.097 C 
ATOM     14  C   UNL     1       2.873  -3.402  -0.037  0.00  0.00    +0.098 C 
ATOM     15  C   UNL     1       3.522  -3.680  -1.390  0.00  0.00    +0.040 C 
ATOM     16  C   UNL     1       2.581  -4.265  -2.428  0.00  0.00    +0.034 C 
ATOM     17  C   UNL     1       1.824  -5.473  -1.880  0.00  0.00    +0.117 C 
ATOM     18  C   UNL     1       1.041  -5.042  -0.639  0.00  0.00    +0.069 C 
ENDROOT
BRANCH  10  19
ATOM     19  C   UNL     1      -1.892  -1.458  -0.871  0.00  0.00    -0.022 C 
ATOM     20  C   UNL     1      -2.081  -2.760  -0.666  0.00  0.00    +0.094 C 
ATOM     21  C   UNL     1      -2.508  -3.385  -1.922  0.00  0.00    +0.332 C 
ATOM     22  O   UNL     1      -2.762  -4.565  -2.064  0.00  0.00    -0.246 OA
ATOM     23  O   UNL     1      -2.576  -2.455  -2.893  0.00  0.00    -0.457 OA
ATOM     24  C   UNL     1      -2.208  -1.194  -2.324  0.00  0.00    +0.264 C 
ENDBRANCH  10  19
BRANCH   7  25
ATOM     25  O   UNL     1       1.700   0.552   1.693  0.00  0.00    -0.388 OA
ATOM     26  H   UNL     1       2.190   0.345   2.501  0.00  0.00    +0.210 HD
ENDBRANCH   7  25
BRANCH  17  27
ATOM     27  O   UNL     1       0.914  -5.956  -2.872  0.00  0.00    -0.392 OA
ATOM     28  H   UNL     1       1.340  -6.234  -3.694  0.00  0.00    +0.210 HD
ENDBRANCH  17  27
BRANCH  14  29
ATOM     29  O   UNL     1       3.970  -3.291   0.913  0.00  0.00    -0.385 OA
ATOM     30  H   UNL     1       4.497  -4.096   1.001  0.00  0.00    +0.210 HD
ENDBRANCH  14  29
BRANCH  13  31
ATOM     31  O   UNL     1       2.907  -5.672   0.730  0.00  0.00    -0.386 OA
ATOM     32  H   UNL     1       2.451  -6.472   1.026  0.00  0.00    +0.210 HD
ENDBRANCH  13  31
TORSDOF 5
