REMARK  Name = ZINC00648547
REMARK  8 active torsions:
REMARK  status: ('A' for Active; 'I' for Inactive)
REMARK    1  A    between atoms: C_1  and  C_2
REMARK    2  A    between atoms: C_2  and  C_31
REMARK    3  A    between atoms: C_6  and  C_14
REMARK    4  A    between atoms: C_8  and  C_12
REMARK    5  A    between atoms: C_9  and  N_11
REMARK    6  A    between atoms: C_17  and  C_19
REMARK    7  A    between atoms: C_19  and  O_20
REMARK    8  A    between atoms: O_20  and  C_21
REMARK                            x       y       z     vdW  Elec       q    Type
REMARK                         _______ _______ _______ _____ _____    ______ ____
ROOT
ATOM      1  C   UNL     1      -0.103   3.641   3.523  0.00  0.00    +0.012 C 
ATOM      2  C   UNL     1      -1.401   2.843   3.669  0.00  0.00    -0.021 C 
ATOM      3  C   UNL     1      -2.288   3.076   2.444  0.00  0.00    +0.081 C 
ATOM      4  C   UNL     1      -1.572   2.603   1.201  0.00  0.00    +0.115 C 
ATOM      5  C   UNL     1      -0.714   1.570   1.254  0.00  0.00    +0.049 C 
ATOM      6  C   UNL     1      -0.013   1.086   0.008  0.00  0.00    +0.137 C 
ATOM      7  C   UNL     1      -0.735   1.581  -1.214  0.00  0.00    +0.101 C 
ATOM      8  C   UNL     1      -1.597   2.623  -1.125  0.00  0.00    +0.198 C 
ATOM      9  O   UNL     1      -1.827   3.242   0.043  0.00  0.00    -0.445 OA
ATOM     10  C   UNL     1      -0.434   0.912   2.469  0.00  0.00    +0.164 C 
ATOM     11  O   UNL     1       0.339  -0.025   2.476  0.00  0.00    -0.292 OA
ATOM     12  C   UNL     1      -1.078   1.347   3.757  0.00  0.00    +0.086 C 
ATOM     13  C   UNL     1      -2.140   3.289   4.932  0.00  0.00    +0.012 C 
ENDROOT
BRANCH   6  14
ATOM     14  C   UNL     1       1.402   1.605  -0.003  0.00  0.00    +0.118 A 
ATOM     15  C   UNL     1       2.516   0.851  -0.012  0.00  0.00    +0.046 A 
ATOM     16  C   UNL     1       3.614   1.743  -0.023  0.00  0.00    +0.048 A 
ATOM     17  C   UNL     1       3.104   2.988  -0.011  0.00  0.00    +0.142 A 
ATOM     18  O   UNL     1       1.764   2.898   0.001  0.00  0.00    -0.460 OA
BRANCH  17  19
ATOM     19  C   UNL     1       3.902   4.266  -0.011  0.00  0.00    +0.303 C 
BRANCH  19  20
ATOM     20  O   UNL     1       4.142   4.678  -1.358  0.00  0.00    -0.484 OA
BRANCH  20  21
ATOM     21  C   UNL     1       4.853   5.823  -1.535  0.00  0.00    +0.121 A 
ATOM     22  C   UNL     1       5.306   6.537  -0.436  0.00  0.00    +0.047 A 
ATOM     23  C   UNL     1       6.034   7.697  -0.619  0.00  0.00    +0.019 A 
ATOM     24  C   UNL     1       6.302   8.152  -1.897  0.00  0.00    +0.018 A 
ATOM     25  C   UNL     1       5.846   7.444  -2.995  0.00  0.00    +0.019 A 
ATOM     26  C   UNL     1       5.123   6.281  -2.817  0.00  0.00    +0.047 A 
ATOM     27 BR   UNL     1       7.291   9.745  -2.145  0.00  0.00    -0.050 Br
ENDBRANCH  20  21
ENDBRANCH  19  20
ENDBRANCH  17  19
ENDBRANCH   6  14
BRANCH   8  28
ATOM     28  N   UNL     1      -2.248   3.055  -2.254  0.00  0.00    -0.328 N 
ATOM     29  H   UNL     1      -2.089   2.615  -3.104  0.00  0.00    +0.145 HD
ATOM     30  H   UNL     1      -2.867   3.800  -2.202  0.00  0.00    +0.145 HD
ENDBRANCH   8  28
BRANCH   7  31
ATOM     31  C   UNL     1      -0.510   0.949  -2.479  0.00  0.00    +0.101 C 
ATOM     32  N   UNL     1      -0.332   0.447  -3.482  0.00  0.00    -0.191 NA
ENDBRANCH   7  31
TORSDOF 6
