REMARK  Name = ZINC47890847
REMARK  9 active torsions:
REMARK  status: ('A' for Active; 'I' for Inactive)
REMARK    1  A    between atoms: C_1  and  C_2
REMARK    2  A    between atoms: C_2  and  C_4
REMARK    3  A    between atoms: C_2  and  N_17
REMARK    4  A    between atoms: C_7  and  N_10
REMARK    5  A    between atoms: N_13  and  C_14
REMARK    6  A    between atoms: N_20  and  C_21
REMARK    7  A    between atoms: C_26  and  C_27
REMARK    8  A    between atoms: C_27  and  O_28
REMARK    9  A    between atoms: O_28  and  C_29
REMARK                            x       y       z     vdW  Elec       q    Type
REMARK                         _______ _______ _______ _____ _____    ______ ____
ROOT
ATOM      1  C   UNL     1      -0.365   1.448  -0.295  0.00  0.00    +0.033 C 
ATOM      2  C   UNL     1      -0.239  -0.072  -0.420  0.00  0.00    +0.102 C 
ENDROOT
BRANCH   2   3
ATOM      3  C   UNL     1      -1.609  -0.696  -0.365  0.00  0.00    -0.027 A 
ATOM      4  C   UNL     1      -2.236  -0.877   0.854  0.00  0.00    +0.007 A 
ATOM      5  C   UNL     1      -3.493  -1.448   0.908  0.00  0.00    +0.023 A 
ATOM      6  C   UNL     1      -4.126  -1.842  -0.264  0.00  0.00    +0.035 A 
ATOM      7  C   UNL     1      -3.493  -1.659  -1.486  0.00  0.00    +0.023 A 
ATOM      8  C   UNL     1      -2.239  -1.082  -1.534  0.00  0.00    +0.007 A 
BRANCH   6   9
ATOM      9  N   UNL     1      -5.398  -2.422  -0.212  0.00  0.00    -0.269 N 
ATOM     10  C   UNL     1      -6.281  -2.028   0.727  0.00  0.00    +0.304 C 
ATOM     11  O   UNL     1      -6.007  -1.106   1.470  0.00  0.00    -0.253 OA
ATOM     12  N   UNL     1      -7.467  -2.657   0.843  0.00  0.00    -0.296 N 
ATOM     13  H   UNL     1      -5.645  -3.107  -0.853  0.00  0.00    +0.156 HD
ATOM     14  H   UNL     1      -7.686  -3.393   0.250  0.00  0.00    +0.151 HD
BRANCH  12  15
ATOM     15  C   UNL     1      -8.427  -2.229   1.864  0.00  0.00    +0.075 C 
ATOM     16  C   UNL     1      -9.137  -3.321   2.667  0.00  0.00    +0.024 C 
ATOM     17  C   UNL     1      -9.906  -2.524   1.611  0.00  0.00    +0.024 C 
ENDBRANCH  12  15
ENDBRANCH   6   9
ENDBRANCH   2   3
BRANCH   2  18
ATOM     18  N   UNL     1       0.577  -0.586   0.683  0.00  0.00    -0.293 N 
ATOM     19  C   UNL     1       1.921  -0.596   0.580  0.00  0.00    +0.304 C 
ATOM     20  O   UNL     1       2.456  -0.178  -0.428  0.00  0.00    -0.252 OA
ATOM     21  N   UNL     1       2.671  -1.069   1.595  0.00  0.00    -0.269 N 
ATOM     22  H   UNL     1       0.150  -0.920   1.488  0.00  0.00    +0.151 HD
ATOM     23  H   UNL     1       2.243  -1.463   2.372  0.00  0.00    +0.156 HD
BRANCH  21  24
ATOM     24  C   UNL     1       4.067  -0.991   1.529  0.00  0.00    +0.040 A 
ATOM     25  C   UNL     1       4.712  -1.091   0.303  0.00  0.00    +0.024 A 
ATOM     26  C   UNL     1       6.089  -1.013   0.241  0.00  0.00    +0.002 A 
ATOM     27  C   UNL     1       6.826  -0.836   1.398  0.00  0.00    +0.000 A 
ATOM     28  C   UNL     1       6.187  -0.737   2.620  0.00  0.00    +0.008 A 
ATOM     29  C   UNL     1       4.809  -0.808   2.688  0.00  0.00    -0.001 A 
BRANCH  29  30
ATOM     30  C   UNL     1       4.112  -0.693   4.020  0.00  0.00    +0.196 C 
BRANCH  30  31
ATOM     31  O   UNL     1       5.084  -0.511   5.051  0.00  0.00    -0.378 OA
ATOM     32  C   UNL     1       4.526  -0.390   6.361  0.00  0.00    +0.194 C 
ENDBRANCH  30  31
ENDBRANCH  29  30
ENDBRANCH  21  24
ENDBRANCH   2  18
TORSDOF 7
