REMARK  Name = ZINC57324854
REMARK  12 active torsions:
REMARK  status: ('A' for Active; 'I' for Inactive)
REMARK    1  A    between atoms: C_1  and  C_2
REMARK    2  A    between atoms: C_4  and  S_18
REMARK    3  A    between atoms: C_6  and  C_17
REMARK    4  A    between atoms: C_7  and  N_8
REMARK    5  A    between atoms: C_9  and  C_11
REMARK    6  A    between atoms: S_18  and  C_19
REMARK    7  A    between atoms: C_19  and  C_20
REMARK    8  A    between atoms: C_20  and  O_21
REMARK    9  A    between atoms: O_21  and  C_22
REMARK   10  A    between atoms: C_22  and  C_24
REMARK   11  A    between atoms: C_26  and  N_35
REMARK   12  A    between atoms: C_29  and  N_30
REMARK                            x       y       z     vdW  Elec       q    Type
REMARK                         _______ _______ _______ _____ _____    ______ ____
ROOT
ATOM      1  S   UNL     1       0.105  -2.953  -2.723  0.00  0.00    -0.122 S 
ENDROOT
BRANCH   1   5
ATOM      2  C   UNL     1       1.979   0.674   0.548  0.00  0.00    +0.046 C 
ATOM      3  C   UNL     1       0.959  -0.398   0.263  0.00  0.00    -0.028 A 
ATOM      4  C   UNL     1       0.998  -1.086  -0.933  0.00  0.00    +0.020 A 
ATOM      5  C   UNL     1       0.057  -2.075  -1.196  0.00  0.00    +0.009 A 
ATOM      6  C   UNL     1      -0.921  -2.370  -0.255  0.00  0.00    +0.020 A 
ATOM      7  C   UNL     1      -0.959  -1.682   0.941  0.00  0.00    -0.028 A 
ATOM      8  C   UNL     1      -0.016  -0.698   1.206  0.00  0.00    +0.040 A 
ATOM      9  C   UNL     1      -2.021  -2.002   1.961  0.00  0.00    +0.046 C 
BRANCH   8  10
ATOM     10  N   UNL     1      -0.050  -0.003   2.422  0.00  0.00    -0.281 N 
ATOM     11  C   UNL     1       0.367  -0.605   3.553  0.00  0.00    +0.248 C 
ATOM     12  O   UNL     1       0.858  -1.716   3.505  0.00  0.00    -0.270 OA
ATOM     13  H   UNL     1      -0.375   0.910   2.449  0.00  0.00    +0.155 HD
BRANCH  11  14
ATOM     14  C   UNL     1       0.227   0.086   4.853  0.00  0.00    +0.037 A 
ATOM     15  C   UNL     1      -0.343   1.359   4.912  0.00  0.00    +0.013 A 
ATOM     16  C   UNL     1      -0.471   1.998   6.128  0.00  0.00    +0.001 A 
ATOM     17  C   UNL     1      -0.037   1.380   7.287  0.00  0.00    +0.000 A 
ATOM     18  C   UNL     1       0.528   0.118   7.235  0.00  0.00    +0.001 A 
ATOM     19  C   UNL     1       0.658  -0.534   6.026  0.00  0.00    +0.013 A 
ENDBRANCH  11  14
ENDBRANCH   8  10
ENDBRANCH   1   5
BRANCH   1  20
ATOM     20  C   UNL     1      -1.286  -4.111  -2.607  0.00  0.00    +0.115 C 
BRANCH  20  21
ATOM     21  C   UNL     1      -1.361  -4.948  -3.886  0.00  0.00    +0.243 C 
BRANCH  21  22
ATOM     22  O   UNL     1      -2.457  -5.861  -3.794  0.00  0.00    -0.460 OA
BRANCH  22  23
ATOM     23  C   UNL     1      -2.662  -6.677  -4.847  0.00  0.00    +0.341 C 
ATOM     24  O   UNL     1      -1.931  -6.616  -5.815  0.00  0.00    -0.245 OA
BRANCH  23  25
ATOM     25  C   UNL     1      -3.774  -7.643  -4.823  0.00  0.00    +0.082 A 
ATOM     26  C   UNL     1      -4.621  -7.714  -3.713  0.00  0.00    +0.049 A 
ATOM     27  C   UNL     1      -5.658  -8.620  -3.697  0.00  0.00    +0.127 A 
ATOM     28  C   UNL     1      -5.868  -9.464  -4.777  0.00  0.00    +0.034 A 
ATOM     29  C   UNL     1      -5.041  -9.407  -5.879  0.00  0.00    +0.026 A 
ATOM     30  C   UNL     1      -3.992  -8.496  -5.917  0.00  0.00    +0.044 A 
BRANCH  30  31
ATOM     31  N   UNL     1      -3.162  -8.432  -7.028  0.00  0.00    -0.329 N 
ATOM     32  C   UNL     1      -1.932  -9.214  -7.224  0.00  0.00    +0.105 C 
ATOM     33  C   UNL     1      -1.335  -8.794  -8.584  0.00  0.00    +0.020 C 
ATOM     34  C   UNL     1      -1.956  -7.392  -8.818  0.00  0.00    +0.020 C 
ATOM     35  C   UNL     1      -3.371  -7.575  -8.209  0.00  0.00    +0.105 C 
ENDBRANCH  30  31
BRANCH  27  36
ATOM     36  N   UNL     1      -6.554  -8.692  -2.521  0.00  0.00    +0.056 N 
ATOM     37  O   UNL     1      -6.374  -7.958  -1.578  0.00  0.00    -0.126 OA
ATOM     38  O   UNL     1      -7.465  -9.486  -2.504  0.00  0.00    -0.126 OA
ENDBRANCH  27  36
ENDBRANCH  23  25
ENDBRANCH  22  23
ENDBRANCH  21  22
ENDBRANCH  20  21
ENDBRANCH   1  20
TORSDOF 10
