REMARK  Name = ZINC02816253
REMARK  4 active torsions:
REMARK  status: ('A' for Active; 'I' for Inactive)
REMARK    1  A    between atoms: C_3  and  C_6
REMARK    2  A    between atoms: C_6  and  N_7
REMARK    3  A    between atoms: C_11  and  C_12
REMARK    4  A    between atoms: C_17  and  O_18
REMARK                            x       y       z     vdW  Elec       q    Type
REMARK                         _______ _______ _______ _____ _____    ______ ____
ROOT
ATOM      1  N   UNL     1       2.617   1.372  -1.502  0.00  0.00    -0.248 N 
ATOM      2  C   UNL     1       2.618   0.183  -2.079  0.00  0.00    +0.259 C 
ATOM      3  O   UNL     1       2.189  -0.804  -1.510  0.00  0.00    -0.269 OA
ATOM      4  C   UNL     1       3.162   0.112  -3.450  0.00  0.00    +0.077 C 
ATOM      5  C   UNL     1       3.285  -0.956  -4.279  0.00  0.00    +0.032 C 
ATOM      6  S   UNL     1       3.619   1.820  -3.716  0.00  0.00    -0.061 S 
ATOM      7  C   UNL     1       3.099   2.462  -2.133  0.00  0.00    +0.121 C 
ATOM      8  S   UNL     1       3.190   4.072  -1.557  0.00  0.00    -0.027 S 
ENDROOT
BRANCH   5   9
ATOM      9  C   UNL     1       3.717  -0.761  -5.668  0.00  0.00    +0.019 A 
ATOM     10  C   UNL     1       3.639   0.505  -6.259  0.00  0.00    +0.031 A 
ATOM     11  C   UNL     1       4.053   0.681  -7.562  0.00  0.00    +0.042 A 
ATOM     12  C   UNL     1       4.534  -0.394  -8.294  0.00  0.00    +0.023 A 
ATOM     13  C   UNL     1       4.611  -1.650  -7.725  0.00  0.00    +0.047 A 
ATOM     14  C   UNL     1       4.206  -1.846  -6.414  0.00  0.00    +0.124 A 
ATOM     15 CL   UNL     1       3.962   2.253  -8.293  0.00  0.00    -0.084 Cl
BRANCH  14  16
ATOM     16  O   UNL     1       4.281  -3.080  -5.854  0.00  0.00    -0.506 OA
ATOM     17  H   UNL     1       3.484  -3.615  -5.972  0.00  0.00    +0.292 HD
ENDBRANCH  14  16
ENDBRANCH   5   9
BRANCH   1  18
ATOM     18  C   UNL     1       2.086   1.509  -0.143  0.00  0.00    +0.189 C 
BRANCH  18  21
ATOM     19  C   UNL     1      -1.594   1.636  -0.297  0.00  0.00    +0.041 A 
ATOM     20  C   UNL     1      -0.381   0.912  -0.224  0.00  0.00    +0.046 A 
ATOM     21  C   UNL     1       0.613   1.818  -0.209  0.00  0.00    +0.122 A 
ATOM     22  O   UNL     1       0.070   3.046  -0.263  0.00  0.00    -0.466 OA
ATOM     23  C   UNL     1      -1.268   2.941  -0.312  0.00  0.00    +0.195 A 
ENDBRANCH  18  21
ENDBRANCH   1  18
TORSDOF 4
