REMARK  Name = ZINC66347853
REMARK  1 active torsions:
REMARK  status: ('A' for Active; 'I' for Inactive)
REMARK    1  A    between atoms: C_9  and  N_10
REMARK                            x       y       z     vdW  Elec       q    Type
REMARK                         _______ _______ _______ _____ _____    ______ ____
ROOT
ATOM      1  C   UNL     1      -0.017   1.406   0.010  0.00  0.00    +0.028 A 
ATOM      2  C   UNL     1       1.154   2.096   0.002  0.00  0.00    +0.050 A 
ATOM      3  C   UNL     1       2.372   1.389  -0.013  0.00  0.00    +0.162 A 
ATOM      4  N   UNL     1       3.641   1.766  -0.023  0.00  0.00    -0.129 NA
ATOM      5  N   UNL     1       4.397   0.725  -0.036  0.00  0.00    -0.121 NA
ATOM      6  C   UNL     1       3.670  -0.364  -0.035  0.00  0.00    +0.205 A 
ATOM      7  N   UNL     1       2.364   0.016  -0.020  0.00  0.00    -0.275 N 
ATOM      8  C   UNL     1       1.182  -0.670  -0.013  0.00  0.00    +0.118 A 
ATOM      9  C   UNL     1       0.002  -0.004   0.002  0.00  0.00    +0.042 A 
ATOM     10 BR   UNL     1       4.317  -2.141  -0.051  0.00  0.00    -0.006 Br
ENDROOT
BRANCH   9  11
ATOM     11  N   UNL     1      -1.203  -0.719   0.010  0.00  0.00    -0.357 N 
ATOM     12  H   UNL     1      -2.049  -0.243   0.021  0.00  0.00    +0.142 HD
ATOM     13  H   UNL     1      -1.192  -1.689   0.005  0.00  0.00    +0.142 HD
ENDBRANCH   9  11
TORSDOF 1
