REMARK  Name = ZINC22834026
REMARK  9 active torsions:
REMARK  status: ('A' for Active; 'I' for Inactive)
REMARK    1  A    between atoms: C_5  and  C_7
REMARK    2  A    between atoms: C_7  and  O_8
REMARK    3  A    between atoms: O_8  and  C_9
REMARK    4  A    between atoms: C_14  and  C_15
REMARK    5  A    between atoms: C_15  and  O_17
REMARK    6  A    between atoms: O_17  and  C_18
REMARK    7  A    between atoms: C_18  and  C_19
REMARK    8  A    between atoms: N_21  and  C_22
REMARK    9  A    between atoms: C_25  and  C_28
REMARK                            x       y       z     vdW  Elec       q    Type
REMARK                         _______ _______ _______ _____ _____    ______ ____
ROOT
ATOM      1  C   UNL     1       4.768   1.669   0.176  0.00  0.00    +0.343 C 
ATOM      2  O   UNL     1       5.013   0.482   0.260  0.00  0.00    -0.245 OA
ENDROOT
BRANCH   1   8
ATOM      3  C   UNL     1       7.200   2.216   0.250  0.00  0.00    +0.135 A 
ATOM      4  C   UNL     1       8.227   3.148   0.238  0.00  0.00    +0.046 A 
ATOM      5  C   UNL     1       7.940   4.495   0.143  0.00  0.00    +0.004 A 
ATOM      6  C   UNL     1       6.626   4.927   0.058  0.00  0.00    +0.001 A 
ATOM      7  C   UNL     1       5.593   4.016   0.062  0.00  0.00    +0.018 A 
ATOM      8  C   UNL     1       5.869   2.649   0.165  0.00  0.00    +0.101 A 
BRANCH   3   9
ATOM      9  O   UNL     1       7.481   0.893   0.343  0.00  0.00    -0.487 OA
BRANCH   9  10
ATOM     10  C   UNL     1       8.860   0.526   0.427  0.00  0.00    +0.265 C 
BRANCH  10  15
ATOM     11  C   UNL     1       7.944  -3.132   0.611  0.00  0.00    +0.000 A 
ATOM     12  C   UNL     1       9.190  -3.724   0.702  0.00  0.00    +0.001 A 
ATOM     13  C   UNL     1      10.329  -2.942   0.705  0.00  0.00    +0.015 A 
ATOM     14  C   UNL     1      10.223  -1.565   0.615  0.00  0.00    +0.024 A 
ATOM     15  C   UNL     1       8.976  -0.973   0.524  0.00  0.00    +0.004 A 
ATOM     16  C   UNL     1       7.837  -1.756   0.527  0.00  0.00    +0.008 A 
ATOM     17 BR   UNL     1      11.781  -0.494   0.619  0.00  0.00    -0.050 Br
ENDBRANCH  10  15
ENDBRANCH   9  10
ENDBRANCH   3   9
ENDBRANCH   1   8
BRANCH   1  18
ATOM     18  O   UNL     1       3.491   2.090   0.093  0.00  0.00    -0.452 OA
BRANCH  18  19
ATOM     19  C   UNL     1       2.458   1.069   0.110  0.00  0.00    +0.328 C 
BRANCH  19  20
ATOM     20  C   UNL     1       1.104   1.723   0.010  0.00  0.00    +0.255 C 
ATOM     21  O   UNL     1       1.018   2.930  -0.068  0.00  0.00    -0.272 OA
ATOM     22  N   UNL     1      -0.011   0.966   0.007  0.00  0.00    -0.283 N 
ATOM     23  H   UNL     1       0.069  -0.131   0.007  0.00  0.00    +0.155 HD
BRANCH  22  24
ATOM     24  C   UNL     1      -1.266   1.573   0.005  0.00  0.00    +0.034 A 
ATOM     25  C   UNL     1      -1.458   2.767  -0.684  0.00  0.00    +0.024 A 
ATOM     26  C   UNL     1      -2.698   3.366  -0.693  0.00  0.00    +0.015 A 
ATOM     27  C   UNL     1      -3.760   2.781   0.001  0.00  0.00    +0.037 A 
ATOM     28  C   UNL     1      -3.562   1.585   0.697  0.00  0.00    +0.015 A 
ATOM     29  C   UNL     1      -2.322   0.988   0.697  0.00  0.00    +0.024 A 
BRANCH  27  30
ATOM     30  C   UNL     1      -5.089   3.424  -0.002  0.00  0.00    +0.242 C 
ATOM     31  O   UNL     1      -6.013   2.913   0.602  0.00  0.00    -0.270 OA
ATOM     32  N   UNL     1      -5.278   4.577  -0.673  0.00  0.00    -0.325 N 
ATOM     33  H   UNL     1      -6.268   5.056  -0.676  0.00  0.00    +0.145 HD
ATOM     34  H   UNL     1      -4.442   5.039  -1.219  0.00  0.00    +0.145 HD
ENDBRANCH  27  30
ENDBRANCH  22  24
ENDBRANCH  19  20
ENDBRANCH  18  19
ENDBRANCH   1  18
TORSDOF 9
