REMARK  Name = ZINC56607075
REMARK  8 active torsions:
REMARK  status: ('A' for Active; 'I' for Inactive)
REMARK    1  A    between atoms: C_1  and  C_2
REMARK    2  A    between atoms: C_2  and  C_3
REMARK    3  A    between atoms: C_2  and  C_4
REMARK    4  A    between atoms: C_2  and  N_5
REMARK    5  A    between atoms: C_6  and  C_8
REMARK    6  A    between atoms: C_11  and  N_14
REMARK    7  A    between atoms: N_17  and  C_18
REMARK    8  A    between atoms: N_27  and  C_29
REMARK                            x       y       z     vdW  Elec       q    Type
REMARK                         _______ _______ _______ _____ _____    ______ ____
ROOT
ATOM      1  N   UNL     1       4.612  -1.950  -6.069  0.00  0.00    -0.269 N 
ATOM      2  C   UNL     1       5.862  -1.529  -6.341  0.00  0.00    +0.304 C 
ATOM      3  O   UNL     1       6.456  -0.831  -5.543  0.00  0.00    -0.253 OA
ATOM      4  N   UNL     1       6.455  -1.883  -7.499  0.00  0.00    -0.296 N 
ATOM      5  H   UNL     1       4.163  -2.561  -6.674  0.00  0.00    +0.156 HD
ATOM      6  H   UNL     1       5.982  -2.440  -8.136  0.00  0.00    +0.151 HD
ENDROOT
BRANCH   4   7
ATOM      7  C   UNL     1       7.812  -1.426  -7.795  0.00  0.00    +0.077 C 
ATOM      8  C   UNL     1       8.840  -2.389  -7.197  0.00  0.00    -0.007 C 
ATOM      9  C   UNL     1      10.242  -1.833  -7.419  0.00  0.00    +0.003 C 
ATOM     10  C   UNL     1      10.539  -1.555  -8.883  0.00  0.00    +0.001 C 
ATOM     11  C   UNL     1       9.423  -0.805  -9.593  0.00  0.00    +0.003 C 
ATOM     12  C   UNL     1       8.045  -1.392  -9.307  0.00  0.00    -0.007 C 
ATOM     13  C   UNL     1       7.894  -2.786  -9.896  0.00  0.00    -0.073 C 
ATOM     14  N   UNL     1       8.759  -3.776  -9.264  0.00  0.00    +0.382 N 
ATOM     15  C   UNL     1       8.682  -3.774  -7.807  0.00  0.00    -0.073 C 
ATOM     16  H   UNL     1       9.713  -3.650  -9.564  0.00  0.00    -0.081 HD
BRANCH  14  17
ATOM     17  C   UNL     1       8.351  -5.105  -9.738  0.00  0.00    -0.069 C 
ATOM     18  C   UNL     1       9.440  -6.020 -10.300  0.00  0.00    -0.017 C 
ATOM     19  C   UNL     1       8.425  -5.372 -11.243  0.00  0.00    -0.017 C 
ENDBRANCH  14  17
ENDBRANCH   4   7
BRANCH   1  23
ATOM     20  C   UNL     1       2.672  -0.629  -2.628  0.00  0.00    +0.037 A 
ATOM     21  C   UNL     1       4.051  -0.854  -2.612  0.00  0.00    +0.015 A 
ATOM     22  C   UNL     1       4.689  -1.291  -3.751  0.00  0.00    +0.024 A 
ATOM     23  C   UNL     1       3.962  -1.508  -4.917  0.00  0.00    +0.035 A 
ATOM     24  C   UNL     1       2.589  -1.284  -4.937  0.00  0.00    +0.024 A 
ATOM     25  C   UNL     1       1.944  -0.853  -3.800  0.00  0.00    +0.015 A 
BRANCH  20  27
ATOM     26  N   UNL     1       2.688   0.055  -0.279  0.00  0.00    -0.307 N 
ATOM     27  C   UNL     1       1.985  -0.161  -1.408  0.00  0.00    +0.244 C 
ATOM     28  O   UNL     1       0.784   0.030  -1.422  0.00  0.00    -0.270 OA
ATOM     29  H   UNL     1       3.646  -0.097  -0.268  0.00  0.00    +0.150 HD
BRANCH  26  31
ATOM     30  C   UNL     1       0.948  -0.505   1.345  0.00  0.00    +0.031 C 
ATOM     31  C   UNL     1       2.006   0.519   0.931  0.00  0.00    +0.026 C 
ATOM     32  C   UNL     1       1.332   1.864   0.653  0.00  0.00    +0.031 C 
ATOM     33  C   UNL     1       3.026   0.683   2.060  0.00  0.00    +0.031 C 
ENDBRANCH  26  31
ENDBRANCH  20  27
ENDBRANCH   1  23
TORSDOF 5
