REMARK  Name = ZINC33375127
REMARK  9 active torsions:
REMARK  status: ('A' for Active; 'I' for Inactive)
REMARK    1  A    between atoms: C_1  and  C_2
REMARK    2  A    between atoms: C_5  and  N_9
REMARK    3  A    between atoms: C_14  and  C_27
REMARK    4  A    between atoms: C_17  and  C_22
REMARK    5  A    between atoms: C_17  and  C_24
REMARK    6  A    between atoms: C_22  and  O_23
REMARK    7  A    between atoms: C_30  and  N_33
REMARK    8  A    between atoms: N_33  and  C_34
REMARK    9  A    between atoms: N_33  and  C_35
REMARK                            x       y       z     vdW  Elec       q    Type
REMARK                         _______ _______ _______ _____ _____    ______ ____
ROOT
ATOM      1  N   UNL     1       0.240  -4.190  -0.561  0.00  0.00    -0.210 N 
ATOM      2  C   UNL     1       0.440  -5.006  -1.647  0.00  0.00    +0.229 C 
ATOM      3  O   UNL     1       0.848  -4.692  -2.745  0.00  0.00    -0.275 OA
ATOM      4  C   UNL     1       0.057  -6.321  -1.190  0.00  0.00    +0.077 C 
ATOM      5  C   UNL     1       0.234  -7.736  -1.549  0.00  0.00    -0.027 C 
ATOM      6  N   UNL     1      -0.106  -8.482  -0.293  0.00  0.00    +0.397 N 
ATOM      7  C   UNL     1      -0.347  -7.467   0.784  0.00  0.00    +0.071 C 
ATOM      8  C   UNL     1       0.532  -6.287   0.317  0.00  0.00    +0.088 C 
ATOM      9  C   UNL     1       0.054  -4.889   0.598  0.00  0.00    +0.229 C 
ATOM     10  O   UNL     1      -0.405  -4.470   1.639  0.00  0.00    -0.275 OA
ATOM     11  H   UNL     1      -0.939  -9.033  -0.436  0.00  0.00    -0.083 HD
ATOM     12  H   UNL     1       0.662  -9.082  -0.032  0.00  0.00    -0.083 HD
ENDROOT
BRANCH   1  17
ATOM     13  C   UNL     1       0.213   1.479  -0.854  0.00  0.00    +0.045 C 
ATOM     14  C   UNL     1       0.220  -0.026  -0.775  0.00  0.00    -0.032 A 
ATOM     15  C   UNL     1       0.424  -0.776  -1.920  0.00  0.00    +0.006 A 
ATOM     16  C   UNL     1       0.431  -2.155  -1.851  0.00  0.00    +0.024 A 
ATOM     17  C   UNL     1       0.234  -2.790  -0.632  0.00  0.00    +0.045 A 
ATOM     18  C   UNL     1       0.030  -2.036   0.515  0.00  0.00    +0.044 A 
ATOM     19  C   UNL     1       0.028  -0.656   0.442  0.00  0.00    +0.046 A 
ATOM     20 CL   UNL     1      -0.221   0.289   1.877  0.00  0.00    -0.083 Cl
ENDBRANCH   1  17
BRANCH   5  21
ATOM     21  C   UNL     1       1.661  -8.002  -1.954  0.00  0.00    -0.060 A 
ATOM     22  C   UNL     1       2.631  -8.180  -0.984  0.00  0.00    +0.004 A 
ATOM     23  C   UNL     1       3.940  -8.425  -1.352  0.00  0.00    +0.023 A 
ATOM     24  C   UNL     1       4.281  -8.492  -2.696  0.00  0.00    +0.029 A 
ATOM     25  C   UNL     1       3.304  -8.312  -3.668  0.00  0.00    +0.023 A 
ATOM     26  C   UNL     1       1.996  -8.074  -3.293  0.00  0.00    +0.004 A 
BRANCH  24  27
ATOM     27  N   UNL     1       5.604  -8.738  -3.071  0.00  0.00    -0.336 N 
ATOM     28  C   UNL     1       6.609  -9.046  -2.051  0.00  0.00    +0.129 C 
ATOM     29  C   UNL     1       5.985  -8.690  -4.485  0.00  0.00    +0.129 C 
ENDBRANCH  24  27
ENDBRANCH   5  21
BRANCH   7  30
ATOM     30  C   UNL     1       0.127  -7.981   2.119  0.00  0.00    +0.348 C 
ATOM     31  O   UNL     1       0.602  -9.100   2.207  0.00  0.00    -0.248 OA
ATOM     32  O   UNL     1       0.036  -7.277   3.110  0.00  0.00    -0.248 OA
ENDBRANCH   7  30
BRANCH   7  33
ATOM     33  C   UNL     1      -1.827  -7.082   0.844  0.00  0.00    +0.155 C 
BRANCH  33  34
ATOM     34  O   UNL     1      -2.619  -8.259   1.015  0.00  0.00    -0.396 OA
ATOM     35  H   UNL     1      -3.570  -8.089   1.062  0.00  0.00    +0.209 HD
ENDBRANCH  33  34
ENDBRANCH   7  33
TORSDOF 6
