REMARK  Name = ZINC06149469
REMARK  14 active torsions:
REMARK  status: ('A' for Active; 'I' for Inactive)
REMARK    1  A    between atoms: C_1  and  C_2
REMARK    2  A    between atoms: C_2  and  C_3
REMARK    3  A    between atoms: C_3  and  C_4
REMARK    4  A    between atoms: C_3  and  C_5
REMARK    5  A    between atoms: C_3  and  N_6
REMARK    6  A    between atoms: C_7  and  C_11
REMARK    7  A    between atoms: C_11  and  C_13
REMARK    8  A    between atoms: C_11  and  N_70
REMARK    9  A    between atoms: C_17  and  O_25
REMARK   10  A    between atoms: O_25  and  C_26
REMARK   11  A    between atoms: C_27  and  C_28
REMARK   12  A    between atoms: C_27  and  N_70
REMARK   13  A    between atoms: C_34  and  C_35
REMARK   14  A    between atoms: C_34  and  N_70
REMARK                            x       y       z     vdW  Elec       q    Type
REMARK                         _______ _______ _______ _____ _____    ______ ____
ROOT
ATOM      1  C   UNL     1       6.317  -0.825  -3.218  0.00  0.00    +0.040 C 
ENDROOT
BRANCH   1   2
ATOM      2  C   UNL     1       7.088  -0.669  -4.503  0.00  0.00    +0.011 A 
ATOM      3  C   UNL     1       7.840  -1.697  -4.969  0.00  0.00    +0.017 A 
ATOM      4  C   UNL     1       8.573  -1.516  -6.223  0.00  0.00    +0.002 A 
ATOM      5  C   UNL     1       9.361  -2.544  -6.753  0.00  0.00    +0.055 A 
ATOM      6  C   UNL     1      10.043  -2.338  -7.935  0.00  0.00    +0.121 A 
ATOM      7  C   UNL     1       9.950  -1.116  -8.597  0.00  0.00    +0.047 A 
ATOM      8  C   UNL     1       9.178  -0.097  -8.085  0.00  0.00    +0.030 A 
ATOM      9  C   UNL     1       8.482  -0.283  -6.895  0.00  0.00    +0.049 A 
ATOM     10  N   UNL     1       7.703   0.725  -6.365  0.00  0.00    -0.322 N 
ATOM     11  H   UNL     1       7.639   1.601  -6.844  0.00  0.00    +0.169 HD
ATOM     12  C   UNL     1       7.029   0.548  -5.215  0.00  0.00    +0.251 A 
ATOM     13  O   UNL     1       6.351   1.460  -4.777  0.00  0.00    -0.268 OA
BRANCH   6  14
ATOM     14  O   UNL     1      10.810  -3.332  -8.455  0.00  0.00    -0.495 OA
ATOM     15  C   UNL     1      11.490  -3.054  -9.681  0.00  0.00    +0.277 C 
ENDBRANCH   6  14
ENDBRANCH   1   2
BRANCH   1  17
ATOM     16  N   UNL     1       7.632  -0.205  -1.122  0.00  0.00    -0.225 N 
ATOM     17  C   UNL     1       6.870   0.121  -2.183  0.00  0.00    +0.143 A 
ATOM     18  N   UNL     1       6.697   1.419  -2.138  0.00  0.00    -0.115 NA
ATOM     19  N   UNL     1       7.325   1.869  -1.106  0.00  0.00    -0.023 NA
ATOM     20  N   UNL     1       7.893   0.890  -0.492  0.00  0.00    -0.043 NA
BRANCH  16  21
ATOM     21  C   UNL     1       8.082  -1.549  -0.755  0.00  0.00    +0.061 C 
ATOM     22  C   UNL     1       6.869  -2.422  -0.428  0.00  0.00    +0.036 C 
ATOM     23  C   UNL     1       8.854  -2.166  -1.923  0.00  0.00    +0.036 C 
BRANCH  21  25
ATOM     24  C   UNL     1       9.465  -2.868   0.855  0.00  0.00    +0.006 C 
ATOM     25  C   UNL     1       8.994  -1.464   0.471  0.00  0.00    +0.026 C 
ENDBRANCH  21  25
ENDBRANCH  16  21
ENDBRANCH   1  17
BRANCH   1  26
ATOM     26  N   UNL     1       4.898  -0.488  -3.462  0.00  0.00    +0.395 N 
ATOM     27  H   UNL     1       4.825   0.513  -3.676  0.00  0.00    -0.079 HD
BRANCH  26  28
ATOM     28  C   UNL     1       4.095  -0.782  -2.257  0.00  0.00    -0.041 C 
BRANCH  28  29
ATOM     29  C   UNL     1       4.169   0.403  -1.329  0.00  0.00    -0.064 A 
ATOM     30  C   UNL     1       3.337   1.490  -1.527  0.00  0.00    +0.002 A 
ATOM     31  C   UNL     1       3.406   2.577  -0.676  0.00  0.00    +0.000 A 
ATOM     32  C   UNL     1       4.306   2.577   0.373  0.00  0.00    +0.000 A 
ATOM     33  C   UNL     1       5.137   1.491   0.572  0.00  0.00    +0.000 A 
ATOM     34  C   UNL     1       5.069   0.404  -0.279  0.00  0.00    +0.002 A 
ENDBRANCH  28  29
ENDBRANCH  26  28
BRANCH  26  35
ATOM     35  C   UNL     1       4.386  -1.263  -4.612  0.00  0.00    -0.034 C 
BRANCH  35  36
ATOM     36  C   UNL     1       3.135  -0.598  -5.124  0.00  0.00    -0.027 A 
ATOM     37  C   UNL     1       3.009   0.404  -6.029  0.00  0.00    +0.009 A 
ATOM     38  C   UNL     1       1.746   0.862  -6.351  0.00  0.00    +0.008 A 
ATOM     39  C   UNL     1       0.669   0.296  -5.753  0.00  0.00    +0.045 A 
ATOM     40  S   UNL     1       1.432  -0.929  -4.701  0.00  0.00    -0.103 S 
ENDBRANCH  35  36
ENDBRANCH  26  35
ENDBRANCH   1  26
TORSDOF 10
