REMARK  Name = ZINC20328522
REMARK  12 active torsions:
REMARK  status: ('A' for Active; 'I' for Inactive)
REMARK    1  A    between atoms: C_1  and  C_2
REMARK    2  A    between atoms: C_2  and  O_3
REMARK    3  A    between atoms: O_3  and  C_4
REMARK    4  A    between atoms: C_4  and  C_6
REMARK    5  A    between atoms: C_7  and  C_22
REMARK    6  A    between atoms: C_12  and  C_14
REMARK    7  A    between atoms: C_17  and  O_21
REMARK    8  A    between atoms: C_18  and  O_20
REMARK    9  A    between atoms: C_22  and  S_23
REMARK   10  A    between atoms: S_23  and  C_26
REMARK   11  A    between atoms: C_29  and  C_33
REMARK   12  A    between atoms: C_30  and  C_32
REMARK                            x       y       z     vdW  Elec       q    Type
REMARK                         _______ _______ _______ _____ _____    ______ ____
ROOT
ATOM      1  C   UNL     1       0.374  -0.379   1.539  0.00  0.00    +0.080 C 
ATOM      2  C   UNL     1       1.299  -1.354   1.658  0.00  0.00    +0.045 C 
ATOM      3  N   UNL     1       1.991  -1.806   0.570  0.00  0.00    -0.271 N 
ATOM      4  C   UNL     1       1.816  -1.332  -0.670  0.00  0.00    +0.304 C 
ATOM      5  O   UNL     1       2.480  -1.798  -1.576  0.00  0.00    -0.252 OA
ATOM      6  N   UNL     1       0.928  -0.357  -0.947  0.00  0.00    -0.288 N 
ATOM      7  C   UNL     1       0.130   0.199   0.159  0.00  0.00    +0.144 C 
ATOM      8  H   UNL     1       2.740  -2.602   0.687  0.00  0.00    +0.156 HD
ATOM      9  H   UNL     1       0.792   0.025  -1.969  0.00  0.00    +0.151 HD
ENDROOT
BRANCH   7  10
ATOM     10  C   UNL     1       0.392   1.681   0.223  0.00  0.00    -0.019 A 
ATOM     11  C   UNL     1       1.684   2.159   0.099  0.00  0.00    +0.009 A 
ATOM     12  C   UNL     1       1.929   3.518   0.156  0.00  0.00    +0.049 A 
ATOM     13  C   UNL     1       0.880   4.405   0.337  0.00  0.00    +0.158 A 
ATOM     14  C   UNL     1      -0.420   3.924   0.462  0.00  0.00    +0.159 A 
ATOM     15  C   UNL     1      -0.660   2.561   0.398  0.00  0.00    +0.055 A 
BRANCH  14  16
ATOM     16  O   UNL     1      -1.453   4.790   0.639  0.00  0.00    -0.503 OA
ATOM     17  H   UNL     1      -2.480   4.409   0.738  0.00  0.00    +0.292 HD
ENDBRANCH  14  16
BRANCH  13  18
ATOM     18  O   UNL     1       1.120   5.742   0.393  0.00  0.00    -0.503 OA
ATOM     19  H   UNL     1       0.286   6.445   0.537  0.00  0.00    +0.292 HD
ENDBRANCH  13  18
ENDBRANCH   7  10
BRANCH   1  20
ATOM     20  C   UNL     1      -0.343   0.089   2.665  0.00  0.00    +0.339 C 
ATOM     21  O   UNL     1      -0.032  -0.281   3.781  0.00  0.00    -0.245 OA
BRANCH  20  22
ATOM     22  O   UNL     1      -1.372   0.947   2.501  0.00  0.00    -0.462 OA
BRANCH  22  24
ATOM     23  C   UNL     1      -3.179   2.339   3.299  0.00  0.00    +0.048 C 
ATOM     24  C   UNL     1      -2.051   1.378   3.681  0.00  0.00    +0.229 C 
ENDBRANCH  22  24
ENDBRANCH  20  22
ENDBRANCH   1  20
BRANCH   2  25
ATOM     25  C   UNL     1       1.573  -1.955   3.012  0.00  0.00    +0.223 C 
BRANCH  25  26
ATOM     26  S   UNL     1       3.068  -1.205   3.715  0.00  0.00    +0.002 S 
ATOM     27  O   UNL     1       4.210  -1.593   2.963  0.00  0.00    -0.169 OA
ATOM     28  O   UNL     1       2.832   0.162   4.021  0.00  0.00    -0.169 OA
BRANCH  26  29
ATOM     29  C   UNL     1       3.273  -1.987   5.281  0.00  0.00    +0.089 A 
ATOM     30  C   UNL     1       2.691  -1.440   6.409  0.00  0.00    +0.027 A 
ATOM     31  C   UNL     1       2.848  -2.055   7.636  0.00  0.00    +0.005 A 
ATOM     32  C   UNL     1       3.596  -3.214   7.737  0.00  0.00    -0.047 A 
ATOM     33  C   UNL     1       4.183  -3.758   6.611  0.00  0.00    -0.046 A 
ATOM     34  C   UNL     1       4.022  -3.145   5.382  0.00  0.00    +0.030 A 
ATOM     35  C   UNL     1       4.999  -5.020   6.721  0.00  0.00    +0.044 C 
ATOM     36  C   UNL     1       3.772  -3.882   9.076  0.00  0.00    +0.044 C 
ENDBRANCH  26  29
ENDBRANCH  25  26
ENDBRANCH   2  25
TORSDOF 9
