REMARK  Name = ZINC48258698
REMARK  7 active torsions:
REMARK  status: ('A' for Active; 'I' for Inactive)
REMARK    1  A    between atoms: C_1  and  C_2
REMARK    2  A    between atoms: C_2  and  C_3
REMARK    3  A    between atoms: N_5  and  C_6
REMARK    4  A    between atoms: C_9  and  C_28
REMARK    5  A    between atoms: C_10  and  N_12
REMARK    6  A    between atoms: N_15  and  C_16
REMARK    7  A    between atoms: C_21  and  C_24
REMARK                            x       y       z     vdW  Elec       q    Type
REMARK                         _______ _______ _______ _____ _____    ______ ____
ROOT
ATOM      1  N   UNL     1       2.574  -5.624   3.715  0.00  0.00    -0.269 N 
ATOM      2  C   UNL     1       2.117  -6.426   2.734  0.00  0.00    +0.304 C 
ATOM      3  O   UNL     1       1.490  -5.954   1.805  0.00  0.00    -0.253 OA
ATOM      4  N   UNL     1       2.353  -7.752   2.782  0.00  0.00    -0.296 N 
ATOM      5  H   UNL     1       3.016  -6.008   4.489  0.00  0.00    +0.156 HD
ATOM      6  H   UNL     1       2.853  -8.129   3.523  0.00  0.00    +0.151 HD
ENDROOT
BRANCH   1  11
ATOM      7  C   UNL     1       1.121  -2.336   2.921  0.00  0.00    +0.035 A 
ATOM      8  C   UNL     1       2.099  -1.490   3.429  0.00  0.00    +0.024 A 
ATOM      9  C   UNL     1       3.227  -2.017   4.028  0.00  0.00    +0.007 A 
ATOM     10  C   UNL     1       3.386  -3.386   4.124  0.00  0.00    -0.029 A 
ATOM     11  C   UNL     1       2.412  -4.237   3.618  0.00  0.00    +0.039 A 
ATOM     12  C   UNL     1       1.275  -3.711   3.021  0.00  0.00    +0.047 A 
ATOM     13  C   UNL     1       4.618  -3.957   4.778  0.00  0.00    +0.045 C 
BRANCH   7  16
ATOM     14  C   UNL     1       0.068  -0.670   1.588  0.00  0.00    +0.217 C 
ATOM     15  O   UNL     1       1.121  -0.070   1.528  0.00  0.00    -0.275 OA
ATOM     16  N   UNL     1      -0.021  -1.802   2.314  0.00  0.00    -0.285 N 
ATOM     17  H   UNL     1      -0.878  -2.246   2.417  0.00  0.00    +0.155 HD
BRANCH  14  19
ATOM     18  C   UNL     1      -0.769   1.137   0.111  0.00  0.00    +0.013 C 
ATOM     19  C   UNL     1      -1.139  -0.151   0.850  0.00  0.00    +0.093 C 
ENDBRANCH  14  19
ENDBRANCH   7  16
ENDBRANCH   1  11
BRANCH   4  20
ATOM     20  C   UNL     1       1.856  -8.625   1.716  0.00  0.00    +0.075 C 
ATOM     21  C   UNL     1       0.409  -9.021   2.014  0.00  0.00    +0.022 C 
ATOM     22  C   UNL     1      -0.110  -9.932   0.900  0.00  0.00    +0.002 C 
ATOM     23  C   UNL     1       0.757 -11.190   0.823  0.00  0.00    +0.012 C 
ATOM     24  C   UNL     1       2.205 -10.794   0.525  0.00  0.00    +0.095 C 
ATOM     25  C   UNL     1       2.724  -9.883   1.639  0.00  0.00    +0.034 C 
BRANCH  24  26
ATOM     26  C   UNL     1       3.072 -12.051   0.449  0.00  0.00    +0.393 C 
ATOM     27  F   UNL     1       2.598 -12.884  -0.570  0.00  0.00    -0.170 F 
ATOM     28  F   UNL     1       4.396 -11.689   0.176  0.00  0.00    -0.170 F 
ATOM     29  F   UNL     1       3.017 -12.731   1.671  0.00  0.00    -0.170 F 
ENDBRANCH  24  26
ENDBRANCH   4  20
TORSDOF 5
