REMARK  Name = ZINC15230536
REMARK  9 active torsions:
REMARK  status: ('A' for Active; 'I' for Inactive)
REMARK    1  A    between atoms: C_8  and  S_9
REMARK    2  A    between atoms: S_9  and  N_12
REMARK    3  A    between atoms: N_12  and  C_13
REMARK    4  A    between atoms: C_16  and  N_19
REMARK    5  A    between atoms: C_22  and  N_24
REMARK    6  A    between atoms: C_25  and  C_27
REMARK    7  A    between atoms: C_28  and  C_29
REMARK    8  A    between atoms: C_31  and  O_36
REMARK    9  A    between atoms: C_33  and  O_35
REMARK                            x       y       z     vdW  Elec       q    Type
REMARK                         _______ _______ _______ _____ _____    ______ ____
ROOT
ATOM      1  C   UNL     1      -3.560  -0.756   0.329  0.00  0.00    +0.002 A 
ATOM      2  C   UNL     1      -3.500  -2.115   0.385  0.00  0.00    +0.010 A 
ATOM      3  C   UNL     1      -2.254  -2.760   0.468  0.00  0.00    +0.010 A 
ATOM      4  C   UNL     1      -1.068  -1.984   0.492  0.00  0.00    +0.005 A 
ATOM      5  C   UNL     1       0.176  -2.629   0.576  0.00  0.00    +0.010 A 
ATOM      6  C   UNL     1       0.228  -3.988   0.632  0.00  0.00    +0.003 A 
ATOM      7  C   UNL     1      -0.938  -4.752   0.609  0.00  0.00    +0.029 A 
ATOM      8  C   UNL     1      -2.161  -4.161   0.528  0.00  0.00    +0.116 A 
ATOM      9  C   UNL     1      -1.161  -0.577   0.431  0.00  0.00    +0.041 A 
ATOM     10  C   UNL     1      -2.403   0.016   0.356  0.00  0.00    +0.024 A 
ENDROOT
BRANCH   9  11
ATOM     11  N   UNL     1      -0.007   0.206   0.454  0.00  0.00    -0.281 N 
ATOM     12  C   UNL     1      -0.018   1.404   1.071  0.00  0.00    +0.241 C 
ATOM     13  O   UNL     1      -1.058   1.846   1.524  0.00  0.00    -0.270 OA
ATOM     14  H   UNL     1       0.803  -0.112   0.026  0.00  0.00    +0.155 HD
BRANCH  12  15
ATOM     15  C   UNL     1       1.219   2.177   1.190  0.00  0.00    +0.068 C 
ATOM     16  C   UNL     1       1.208   3.376   1.807  0.00  0.00    +0.013 C 
BRANCH  16  17
ATOM     17  C   UNL     1       2.453   4.154   1.927  0.00  0.00    -0.018 A 
ATOM     18  C   UNL     1       3.648   3.649   1.407  0.00  0.00    +0.053 A 
ATOM     19  C   UNL     1       4.814   4.387   1.517  0.00  0.00    +0.121 A 
ATOM     20  C   UNL     1       4.800   5.620   2.152  0.00  0.00    +0.090 A 
ATOM     21  C   UNL     1       3.617   6.124   2.675  0.00  0.00    +0.121 A 
ATOM     22  C   UNL     1       2.444   5.397   2.566  0.00  0.00    +0.053 A 
BRANCH  21  23
ATOM     23  O   UNL     1       3.610   7.333   3.296  0.00  0.00    -0.507 OA
ATOM     24  H   UNL     1       3.781   7.288   4.247  0.00  0.00    +0.292 HD
ENDBRANCH  21  23
BRANCH  19  25
ATOM     25  O   UNL     1       5.976   3.899   1.008  0.00  0.00    -0.507 OA
ATOM     26  H   UNL     1       6.485   3.363   1.632  0.00  0.00    +0.292 HD
ENDBRANCH  19  25
ENDBRANCH  16  17
ENDBRANCH  12  15
ENDBRANCH   9  11
BRANCH   8  27
ATOM     27  S   UNL     1      -3.621  -5.147   0.500  0.00  0.00    +0.073 S 
ATOM     28  O   UNL     1      -4.400  -4.688  -0.596  0.00  0.00    -0.150 OA
ATOM     29  O   UNL     1      -3.200  -6.499   0.623  0.00  0.00    -0.150 OA
BRANCH  27  30
ATOM     30  N   UNL     1      -4.478  -4.792   1.872  0.00  0.00    -0.216 N 
ATOM     31  H   UNL     1      -5.348  -4.369   1.804  0.00  0.00    +0.174 HD
BRANCH  30  32
ATOM     32  C   UNL     1      -3.947  -5.101   3.127  0.00  0.00    +0.048 A 
ATOM     33  C   UNL     1      -3.381  -6.349   3.355  0.00  0.00    +0.027 A 
ATOM     34  C   UNL     1      -2.852  -6.649   4.595  0.00  0.00    +0.034 A 
ATOM     35  C   UNL     1      -2.896  -5.713   5.612  0.00  0.00    +0.126 A 
ATOM     36  C   UNL     1      -3.465  -4.472   5.390  0.00  0.00    +0.034 A 
ATOM     37  C   UNL     1      -3.990  -4.163   4.151  0.00  0.00    +0.027 A 
BRANCH  35  38
ATOM     38  N   UNL     1      -2.333  -6.040   6.941  0.00  0.00    +0.056 N 
ATOM     39  O   UNL     1      -2.371  -5.217   7.838  0.00  0.00    -0.126 OA
ATOM     40  O   UNL     1      -1.833  -7.133   7.138  0.00  0.00    -0.126 OA
ENDBRANCH  35  38
ENDBRANCH  30  32
ENDBRANCH  27  30
ENDBRANCH   8  27
TORSDOF 9
