REMARK  Name = ZINC00675853
REMARK  8 active torsions:
REMARK  status: ('A' for Active; 'I' for Inactive)
REMARK    1  A    between atoms: C_1  and  C_2
REMARK    2  A    between atoms: C_3  and  C_20
REMARK    3  A    between atoms: C_4  and  C_10
REMARK    4  A    between atoms: C_12  and  O_18
REMARK    5  A    between atoms: C_15  and  O_16
REMARK    6  A    between atoms: O_16  and  C_17
REMARK    7  A    between atoms: O_18  and  C_19
REMARK    8  A    between atoms: N_22  and  C_23
REMARK                            x       y       z     vdW  Elec       q    Type
REMARK                         _______ _______ _______ _____ _____    ______ ____
ROOT
ATOM      1  C   UNL     1      -3.401  -3.665   0.034  0.00  0.00    +0.061 C 
ATOM      2  C   UNL     1      -1.897  -3.758   0.030  0.00  0.00    +0.017 C 
ATOM      3  C   UNL     1      -1.163  -2.638  -0.148  0.00  0.00    +0.056 C 
ATOM      4  C   UNL     1       0.346  -2.775  -0.139  0.00  0.00    +0.143 C 
ATOM      5  N   UNL     1       0.892  -4.128   0.058  0.00  0.00    -0.315 N 
ATOM      6  C   UNL     1       0.029  -5.151   0.216  0.00  0.00    +0.135 C 
ATOM      7  S   UNL     1       0.650  -6.730   0.446  0.00  0.00    -0.019 S 
ATOM      8  N   UNL     1      -1.298  -4.973   0.199  0.00  0.00    -0.300 N 
ATOM      9  H   UNL     1       1.850  -4.279   0.073  0.00  0.00    +0.149 HD
ATOM     10  H   UNL     1      -1.866  -5.750   0.319  0.00  0.00    +0.154 HD
ENDROOT
BRANCH   4  11
ATOM     11  C   UNL     1       0.868  -2.249  -1.451  0.00  0.00    +0.022 A 
ATOM     12  C   UNL     1       0.899  -3.072  -2.561  0.00  0.00    +0.055 A 
ATOM     13  C   UNL     1       1.375  -2.587  -3.770  0.00  0.00    +0.121 A 
ATOM     14  C   UNL     1       1.830  -1.279  -3.862  0.00  0.00    +0.049 A 
ATOM     15  C   UNL     1       1.803  -0.459  -2.751  0.00  0.00    +0.049 A 
ATOM     16  C   UNL     1       1.321  -0.942  -1.543  0.00  0.00    +0.126 A 
BRANCH  16  17
ATOM     17  O   UNL     1       1.295  -0.135  -0.450  0.00  0.00    -0.495 OA
ATOM     18  C   UNL     1       1.711   1.220  -0.634  0.00  0.00    +0.277 C 
ENDBRANCH  16  17
BRANCH  13  19
ATOM     19  O   UNL     1       1.401  -3.394  -4.863  0.00  0.00    -0.495 OA
ATOM     20  C   UNL     1       1.910  -2.831  -6.074  0.00  0.00    +0.277 C 
ENDBRANCH  13  19
ENDBRANCH   4  11
BRANCH   3  21
ATOM     21  C   UNL     1      -1.784  -1.378  -0.330  0.00  0.00    +0.248 C 
ATOM     22  O   UNL     1      -1.968  -0.646   0.625  0.00  0.00    -0.270 OA
ATOM     23  N   UNL     1      -2.170  -0.989  -1.561  0.00  0.00    -0.282 N 
ATOM     24  H   UNL     1      -2.103  -1.605  -2.308  0.00  0.00    +0.155 HD
BRANCH  23  25
ATOM     25  C   UNL     1      -2.668   0.302  -1.763  0.00  0.00    +0.034 A 
ATOM     26  C   UNL     1      -3.461   0.901  -0.792  0.00  0.00    +0.024 A 
ATOM     27  C   UNL     1      -3.946   2.179  -0.991  0.00  0.00    +0.017 A 
ATOM     28  C   UNL     1      -3.653   2.857  -2.161  0.00  0.00    +0.018 A 
ATOM     29  C   UNL     1      -2.868   2.261  -3.132  0.00  0.00    +0.017 A 
ATOM     30  C   UNL     1      -2.375   0.986  -2.936  0.00  0.00    +0.024 A 
ATOM     31 BR   UNL     1      -4.327   4.603  -2.433  0.00  0.00    -0.050 Br
ENDBRANCH  23  25
ENDBRANCH   3  21
TORSDOF 5
