REMARK  Name = ZINC18330557
REMARK  4 active torsions:
REMARK  status: ('A' for Active; 'I' for Inactive)
REMARK    1  A    between atoms: C_4  and  N_7
REMARK    2  A    between atoms: C_11  and  S_13
REMARK    3  A    between atoms: S_13  and  C_14
REMARK    4  A    between atoms: C_14  and  C_15
REMARK                            x       y       z     vdW  Elec       q    Type
REMARK                         _______ _______ _______ _____ _____    ______ ____
ROOT
ATOM      1  C   UNL     1       6.384  -7.756  -2.562  0.00  0.00    +0.143 A 
ATOM      2  N   UNL     1       5.720  -8.769  -3.089  0.00  0.00    -0.216 NA
ATOM      3  C   UNL     1       6.264  -9.964  -3.245  0.00  0.00    +0.128 A 
ATOM      4  C   UNL     1       7.610 -10.171  -2.833  0.00  0.00    +0.051 A 
ATOM      5  C   UNL     1       8.414 -11.393  -2.904  0.00  0.00    -0.025 A 
ATOM      6  C   UNL     1       9.678 -11.321  -2.441  0.00  0.00    -0.004 A 
ATOM      7  S   UNL     1       9.875  -9.647  -1.889  0.00  0.00    -0.073 S 
ATOM      8  C   UNL     1       8.253  -9.045  -2.281  0.00  0.00    +0.114 A 
ATOM      9  N   UNL     1       7.636  -7.885  -2.167  0.00  0.00    -0.224 NA
ATOM     10  C   UNL     1      10.694 -12.421  -2.401  0.00  0.00    +0.043 C 
ATOM     11  C   UNL     1       9.971 -13.757  -2.626  0.00  0.00    +0.005 C 
ATOM     12  C   UNL     1       9.037 -13.613  -3.831  0.00  0.00    +0.005 C 
ATOM     13  C   UNL     1       7.865 -12.698  -3.473  0.00  0.00    +0.037 C 
ATOM     14  N   UNL     1       5.535 -11.000  -3.801  0.00  0.00    -0.343 N 
ATOM     15  H   UNL     1       4.716 -10.811  -4.285  0.00  0.00    +0.144 HD
ATOM     16  H   UNL     1       5.843 -11.915  -3.707  0.00  0.00    +0.144 HD
ENDROOT
BRANCH   1  17
ATOM     17  C   UNL     1       5.698  -6.422  -2.415  0.00  0.00    +0.152 C 
BRANCH  17  18
ATOM     18  S   UNL     1       5.962  -5.438  -3.915  0.00  0.00    -0.089 S 
BRANCH  18  23
ATOM     19  N   UNL     1       3.439  -0.224  -3.662  0.00  0.00    -0.319 N 
ATOM     20  C   UNL     1       3.951  -1.506  -3.499  0.00  0.00    +0.183 A 
ATOM     21  N   UNL     1       3.839  -2.326  -2.473  0.00  0.00    -0.125 NA
ATOM     22  N   UNL     1       4.432  -3.566  -2.519  0.00  0.00    -0.133 NA
ATOM     23  C   UNL     1       5.111  -3.929  -3.591  0.00  0.00    +0.160 A 
ATOM     24  S   UNL     1       4.932  -2.485  -4.626  0.00  0.00    -0.025 S 
ATOM     25  H   UNL     1       3.602   0.263  -4.485  0.00  0.00    +0.148 HD
BRANCH  19  29
ATOM     26  C   UNL     1       0.454   2.118  -1.712  0.00  0.00    +0.000 C 
ATOM     27  C   UNL     1       1.914   2.559  -1.590  0.00  0.00    +0.002 C 
ATOM     28  C   UNL     1       2.736   1.915  -2.708  0.00  0.00    +0.022 C 
ATOM     29  C   UNL     1       2.652   0.392  -2.591  0.00  0.00    +0.072 C 
ATOM     30  C   UNL     1       1.192  -0.049  -2.713  0.00  0.00    +0.022 C 
ATOM     31  C   UNL     1       0.369   0.595  -1.595  0.00  0.00    +0.002 C 
ENDBRANCH  19  29
ENDBRANCH  18  23
ENDBRANCH  17  18
ENDBRANCH   1  17
TORSDOF 4
