REMARK  Name = ZINC42407072
REMARK  3 active torsions:
REMARK  status: ('A' for Active; 'I' for Inactive)
REMARK    1  A    between atoms: C_5  and  C_8
REMARK    2  A    between atoms: C_15  and  O_23
REMARK    3  A    between atoms: C_18  and  C_20
REMARK                            x       y       z     vdW  Elec       q    Type
REMARK                         _______ _______ _______ _____ _____    ______ ____
ROOT
ATOM      1  C   UNL     1      -0.170   1.799  -0.588  0.00  0.00    +0.004 C 
ATOM      2  C   UNL     1       1.222   2.407  -0.776  0.00  0.00    +0.019 C 
ATOM      3  C   UNL     1       1.985   1.607  -1.836  0.00  0.00    +0.110 C 
ATOM      4  N   UNL     1       1.993   0.191  -1.445  0.00  0.00    -0.274 N 
ATOM      5  C   UNL     1       0.714  -0.468  -1.151  0.00  0.00    +0.163 C 
ATOM      6  C   UNL     1      -0.036   0.355  -0.099  0.00  0.00    +0.032 C 
ATOM      7  C   UNL     1       3.153  -0.490  -1.357  0.00  0.00    +0.306 C 
ATOM      8  O   UNL     1       3.139  -1.696  -1.200  0.00  0.00    -0.252 OA
ATOM      9  N   UNL     1       4.328   0.165  -1.442  0.00  0.00    -0.269 N 
ATOM     10  C   UNL     1       4.507   1.624  -1.335  0.00  0.00    +0.141 C 
ATOM     11  C   UNL     1       5.976   1.810  -0.878  0.00  0.00    +0.134 C 
ATOM     12  C   UNL     1       6.691   0.675  -1.657  0.00  0.00    +0.067 C 
ATOM     13  C   UNL     1       5.643  -0.458  -1.652  0.00  0.00    +0.193 C 
ENDROOT
BRANCH   5  14
ATOM     14  C   UNL     1       0.970  -1.856  -0.623  0.00  0.00    +0.231 C 
ATOM     15  O   UNL     1       1.618  -2.009   0.391  0.00  0.00    -0.274 OA
ATOM     16  N   UNL     1       0.479  -2.927  -1.277  0.00  0.00    -0.328 N 
ATOM     17  H   UNL     1      -0.040  -2.805  -2.088  0.00  0.00    +0.145 HD
ATOM     18  H   UNL     1       0.643  -3.821  -0.937  0.00  0.00    +0.145 HD
ENDBRANCH   5  14
BRANCH  13  19
ATOM     19  C   UNL     1       5.664  -1.178  -2.975  0.00  0.00    +0.376 C 
ATOM     20  O   UNL     1       4.978  -0.775  -3.899  0.00  0.00    -0.244 OA
ATOM     21  O   UNL     1       6.367  -2.163  -3.122  0.00  0.00    -0.244 OA
ENDBRANCH  13  19
BRANCH  11  22
ATOM     22  O   UNL     1       6.101   1.622   0.533  0.00  0.00    -0.390 OA
ATOM     23  H   UNL     1       5.590   2.251   1.061  0.00  0.00    +0.210 HD
ENDBRANCH  11  22
TORSDOF 3
