REMARK  Name = ZINC28308925
REMARK  6 active torsions:
REMARK  status: ('A' for Active; 'I' for Inactive)
REMARK    1  A    between atoms: C_6  and  N_11
REMARK    2  A    between atoms: C_12  and  C_14
REMARK    3  A    between atoms: C_14  and  N_23
REMARK    4  A    between atoms: C_15  and  C_16
REMARK    5  A    between atoms: C_19  and  O_22
REMARK    6  A    between atoms: C_24  and  C_26
REMARK                            x       y       z     vdW  Elec       q    Type
REMARK                         _______ _______ _______ _____ _____    ______ ____
ROOT
ATOM      1  C   UNL     1      -0.850   1.627   0.298  0.00  0.00    +0.097 C 
ATOM      2  C   UNL     1       0.205   0.781   0.221  0.00  0.00    +0.036 C 
ENDROOT
BRANCH   2   3
ATOM      3  C   UNL     1      -0.010  -0.670   0.302  0.00  0.00    -0.023 A 
ATOM      4  C   UNL     1      -0.990  -1.188   1.156  0.00  0.00    +0.011 A 
ATOM      5  C   UNL     1      -1.190  -2.549   1.225  0.00  0.00    +0.046 A 
ATOM      6  C   UNL     1      -0.415  -3.408   0.456  0.00  0.00    +0.117 A 
ATOM      7  C   UNL     1       0.564  -2.899  -0.391  0.00  0.00    +0.046 A 
ATOM      8  C   UNL     1       0.769  -1.540  -0.471  0.00  0.00    +0.011 A 
BRANCH   6   9
ATOM      9  O   UNL     1      -0.613  -4.749   0.531  0.00  0.00    -0.507 OA
ATOM     10  H   UNL     1       0.000  -5.431  -0.077  0.00  0.00    +0.292 HD
ENDBRANCH   6   9
ENDBRANCH   2   3
BRANCH   1  12
ATOM     11  N   UNL     1      -2.791   0.652  -0.811  0.00  0.00    -0.280 N 
ATOM     12  C   UNL     1      -2.218   1.095   0.326  0.00  0.00    +0.262 C 
ATOM     13  O   UNL     1      -2.834   1.053   1.374  0.00  0.00    -0.268 OA
ATOM     14  H   UNL     1      -2.211   0.623  -1.745  0.00  0.00    +0.155 HD
BRANCH  11  20
ATOM     15  C   UNL     1      -8.508  -2.035  -1.552  0.00  0.00    +0.001 A 
ATOM     16  C   UNL     1      -7.594  -2.675  -2.388  0.00  0.00    +0.001 A 
ATOM     17  C   UNL     1      -6.289  -2.291  -2.424  0.00  0.00    +0.008 A 
ATOM     18  C   UNL     1      -5.853  -1.233  -1.607  0.00  0.00    -0.016 A 
ATOM     19  C   UNL     1      -4.513  -0.811  -1.618  0.00  0.00    +0.031 A 
ATOM     20  C   UNL     1      -4.123   0.229  -0.802  0.00  0.00    +0.034 A 
ATOM     21  C   UNL     1      -5.046   0.862   0.039  0.00  0.00    +0.024 A 
ATOM     22  C   UNL     1      -6.349   0.475   0.063  0.00  0.00    +0.010 A 
ATOM     23  C   UNL     1      -6.781  -0.583  -0.756  0.00  0.00    -0.018 A 
ATOM     24  C   UNL     1      -8.121  -1.008  -0.747  0.00  0.00    +0.008 A 
ENDBRANCH  11  20
ENDBRANCH   1  12
BRANCH   1  25
ATOM     25  N   UNL     1      -0.636   3.009   0.353  0.00  0.00    -0.277 N 
ATOM     26  C   UNL     1      -1.684   3.855   0.305  0.00  0.00    +0.248 C 
ATOM     27  O   UNL     1      -2.818   3.418   0.293  0.00  0.00    -0.270 OA
ATOM     28  H   UNL     1       0.387   3.404   0.435  0.00  0.00    +0.155 HD
BRANCH  26  29
ATOM     29  C   UNL     1      -1.453   5.314   0.266  0.00  0.00    +0.037 A 
ATOM     30  C   UNL     1      -0.152   5.819   0.285  0.00  0.00    +0.014 A 
ATOM     31  C   UNL     1       0.057   7.182   0.242  0.00  0.00    +0.016 A 
ATOM     32  C   UNL     1      -1.022   8.049   0.193  0.00  0.00    +0.018 A 
ATOM     33  C   UNL     1      -2.315   7.555   0.180  0.00  0.00    +0.016 A 
ATOM     34  C   UNL     1      -2.537   6.194   0.216  0.00  0.00    +0.014 A 
ATOM     35 BR   UNL     1      -0.727   9.916   0.143  0.00  0.00    -0.050 Br
ENDBRANCH  26  29
ENDBRANCH   1  25
TORSDOF 6
