REMARK  Name = ZINC45782966
REMARK  7 active torsions:
REMARK  status: ('A' for Active; 'I' for Inactive)
REMARK    1  A    between atoms: C_1  and  C_2
REMARK    2  A    between atoms: C_2  and  C_4
REMARK    3  A    between atoms: C_2  and  N_14
REMARK    4  A    between atoms: C_7  and  N_10
REMARK    5  A    between atoms: C_15  and  C_17
REMARK    6  A    between atoms: C_17  and  O_18
REMARK    7  A    between atoms: O_18  and  C_19
REMARK                            x       y       z     vdW  Elec       q    Type
REMARK                         _______ _______ _______ _____ _____    ______ ____
ROOT
ATOM      1  C   UNL     1      -0.027   1.534   0.214  0.00  0.00    +0.033 C 
ATOM      2  C   UNL     1      -0.007   0.020  -0.005  0.00  0.00    +0.100 C 
ENDROOT
BRANCH   2   3
ATOM      3  C   UNL     1      -1.419  -0.508   0.008  0.00  0.00    -0.027 A 
ATOM      4  C   UNL     1      -2.208  -0.394  -1.122  0.00  0.00    +0.007 A 
ATOM      5  C   UNL     1      -3.502  -0.877  -1.114  0.00  0.00    +0.023 A 
ATOM      6  C   UNL     1      -4.010  -1.477   0.031  0.00  0.00    +0.035 A 
ATOM      7  C   UNL     1      -3.215  -1.590   1.164  0.00  0.00    +0.023 A 
ATOM      8  C   UNL     1      -1.920  -1.110   1.147  0.00  0.00    +0.007 A 
BRANCH   6   9
ATOM      9  N   UNL     1      -5.321  -1.967   0.042  0.00  0.00    -0.270 N 
ATOM     10  C   UNL     1      -5.857  -2.483  -1.081  0.00  0.00    +0.301 C 
ATOM     11  O   UNL     1      -5.173  -2.611  -2.078  0.00  0.00    -0.253 OA
ATOM     12  N   UNL     1      -7.152  -2.856  -1.100  0.00  0.00    -0.313 N 
ATOM     13  H   UNL     1      -5.843  -1.936   0.859  0.00  0.00    +0.156 HD
ATOM     14  H   UNL     1      -7.698  -2.753  -0.304  0.00  0.00    +0.146 HD
ATOM     15  H   UNL     1      -7.539  -3.227  -1.909  0.00  0.00    +0.146 HD
ENDBRANCH   6   9
ENDBRANCH   2   3
BRANCH   2  16
ATOM     16  N   UNL     1       0.615  -0.278  -1.297  0.00  0.00    -0.306 N 
ATOM     17  C   UNL     1       1.955  -0.376  -1.394  0.00  0.00    +0.251 C 
ATOM     18  O   UNL     1       2.647  -0.218  -0.410  0.00  0.00    -0.272 OA
ATOM     19  H   UNL     1       0.061  -0.404  -2.084  0.00  0.00    +0.149 HD
BRANCH  17  20
ATOM     20  C   UNL     1       2.595  -0.683  -2.723  0.00  0.00    +0.324 C 
BRANCH  20  21
ATOM     21  O   UNL     1       4.014  -0.735  -2.569  0.00  0.00    -0.483 OA
BRANCH  21  22
ATOM     22  C   UNL     1       4.747  -1.003  -3.682  0.00  0.00    +0.121 A 
ATOM     23  C   UNL     1       4.112  -1.206  -4.899  0.00  0.00    +0.047 A 
ATOM     24  C   UNL     1       4.859  -1.479  -6.028  0.00  0.00    +0.019 A 
ATOM     25  C   UNL     1       6.238  -1.549  -5.947  0.00  0.00    +0.018 A 
ATOM     26  C   UNL     1       6.873  -1.348  -4.734  0.00  0.00    +0.019 A 
ATOM     27  C   UNL     1       6.130  -1.069  -3.603  0.00  0.00    +0.047 A 
ATOM     28 BR   UNL     1       7.258  -1.923  -7.495  0.00  0.00    -0.050 Br
ENDBRANCH  21  22
ENDBRANCH  20  21
ENDBRANCH  17  20
ENDBRANCH   2  16
TORSDOF 6
