REMARK  Name = ZINC06144520
REMARK  5 active torsions:
REMARK  status: ('A' for Active; 'I' for Inactive)
REMARK    1  A    between atoms: C_1  and  C_2
REMARK    2  A    between atoms: C_9  and  N_14
REMARK    3  A    between atoms: C_10  and  C_11
REMARK    4  A    between atoms: N_14  and  S_15
REMARK    5  A    between atoms: S_15  and  C_18
REMARK                            x       y       z     vdW  Elec       q    Type
REMARK                         _______ _______ _______ _____ _____    ______ ____
ROOT
ATOM      1  C   UNL     1      -4.237  -2.366  -4.656  0.00  0.00    +0.008 C 
ATOM      2  C   UNL     1      -3.567  -1.650  -3.482  0.00  0.00    -0.009 C 
ATOM      3  C   UNL     1      -2.045  -1.717  -3.638  0.00  0.00    +0.008 C 
ATOM      4  C   UNL     1      -1.376  -0.798  -2.614  0.00  0.00    +0.037 C 
ATOM      5  C   UNL     1      -1.919  -1.128  -1.229  0.00  0.00    -0.023 A 
ATOM      6  C   UNL     1      -3.069  -1.820  -1.079  0.00  0.00    -0.004 A 
ATOM      7  S   UNL     1      -3.285  -1.968   0.672  0.00  0.00    -0.076 S 
ATOM      8  C   UNL     1      -1.864  -1.128   1.201  0.00  0.00    +0.098 A 
ATOM      9  C   UNL     1      -1.256  -0.753   0.010  0.00  0.00    +0.069 A 
ATOM     10  C   UNL     1      -3.959  -2.337  -2.166  0.00  0.00    +0.046 C 
ENDROOT
BRANCH   9  11
ATOM     11  C   UNL     1       0.002  -0.004   0.002  0.00  0.00    +0.244 C 
ATOM     12  O   UNL     1       1.064  -0.598  -0.011  0.00  0.00    -0.270 OA
ATOM     13  N   UNL     1      -0.016   1.344   0.009  0.00  0.00    -0.325 N 
ATOM     14  H   UNL     1       0.817   1.840   0.004  0.00  0.00    +0.145 HD
ATOM     15  H   UNL     1      -0.863   1.817   0.016  0.00  0.00    +0.145 HD
ENDBRANCH   9  11
BRANCH   8  16
ATOM     16  N   UNL     1      -1.440  -0.890   2.495  0.00  0.00    -0.209 N 
ATOM     17  H   UNL     1      -0.616  -0.403   2.653  0.00  0.00    +0.174 HD
BRANCH  16  18
ATOM     18  S   UNL     1      -2.336  -1.438   3.775  0.00  0.00    +0.073 S 
ATOM     19  O   UNL     1      -1.633  -1.065   4.952  0.00  0.00    -0.150 OA
ATOM     20  O   UNL     1      -3.678  -1.039   3.530  0.00  0.00    -0.150 OA
BRANCH  18  21
ATOM     21  C   UNL     1      -2.314  -3.198   3.711  0.00  0.00    +0.110 A 
ATOM     22  C   UNL     1      -3.292  -3.877   3.007  0.00  0.00    +0.030 A 
ATOM     23  C   UNL     1      -3.272  -5.258   2.952  0.00  0.00    +0.023 A 
ATOM     24  C   UNL     1      -2.281  -5.962   3.611  0.00  0.00    +0.059 A 
ATOM     25  C   UNL     1      -1.305  -5.283   4.320  0.00  0.00    +0.061 A 
ATOM     26  C   UNL     1      -1.323  -3.901   4.370  0.00  0.00    +0.050 A 
ATOM     27 CL   UNL     1      -0.059  -6.166   5.147  0.00  0.00    -0.082 Cl
ATOM     28 CL   UNL     1      -2.259  -7.697   3.547  0.00  0.00    -0.082 Cl
ENDBRANCH  18  21
ENDBRANCH  16  18
ENDBRANCH   8  16
TORSDOF 4
