REMARK  Name = ZINC40761061
REMARK  4 active torsions:
REMARK  status: ('A' for Active; 'I' for Inactive)
REMARK    1  A    between atoms: C_12  and  N_26
REMARK    2  A    between atoms: C_13  and  N_17
REMARK    3  A    between atoms: N_17  and  C_18
REMARK    4  A    between atoms: C_18  and  C_19
REMARK                            x       y       z     vdW  Elec       q    Type
REMARK                         _______ _______ _______ _____ _____    ______ ____
ROOT
ATOM      1  C   UNL     1      -0.017   1.366   0.010  0.00  0.00    +0.002 A 
ATOM      2  C   UNL     1       1.156   2.107   0.002  0.00  0.00    +0.001 A 
ATOM      3  C   UNL     1       2.373   1.449  -0.013  0.00  0.00    +0.017 A 
ATOM      4  C   UNL     1       2.401   0.077  -0.020  0.00  0.00    +0.041 A 
ATOM      5  C   UNL     1       1.227  -0.710  -0.013  0.00  0.00    +0.080 A 
ATOM      6  C   UNL     1       0.002  -0.004   0.002  0.00  0.00    +0.029 A 
ATOM      7  N   UNL     1       1.419  -2.047  -0.023  0.00  0.00    -0.225 NA
ATOM      8  C   UNL     1       2.616  -2.588  -0.037  0.00  0.00    +0.165 A 
ATOM      9  S   UNL     1       3.682  -1.153  -0.040  0.00  0.00    -0.052 S 
ATOM     10  N   UNL     1       2.963  -3.925  -0.048  0.00  0.00    -0.277 N 
ATOM     11  C   UNL     1       4.304  -4.296  -0.063  0.00  0.00    +0.150 A 
ATOM     12  C   UNL     1       4.666  -5.644  -0.080  0.00  0.00    +0.106 A 
ATOM     13  C   UNL     1       6.026  -5.961  -0.096  0.00  0.00    +0.145 A 
ATOM     14  N   UNL     1       6.918  -4.974  -0.093  0.00  0.00    -0.219 NA
ATOM     15  C   UNL     1       6.534  -3.713  -0.077  0.00  0.00    +0.225 A 
ATOM     16  N   UNL     1       5.261  -3.372  -0.068  0.00  0.00    -0.219 NA
ATOM     17  H   UNL     1       2.272  -4.606  -0.045  0.00  0.00    +0.156 HD
ENDROOT
BRANCH  12  18
ATOM     18  N   UNL     1       3.691  -6.653  -0.082  0.00  0.00    -0.353 N 
ATOM     19  H   UNL     1       2.750  -6.418  -0.071  0.00  0.00    +0.143 HD
ATOM     20  H   UNL     1       3.957  -7.586  -0.093  0.00  0.00    +0.143 HD
ENDBRANCH  12  18
BRANCH  13  21
ATOM     21  N   UNL     1       6.442  -7.287  -0.112  0.00  0.00    -0.323 N 
ATOM     22  H   UNL     1       5.785  -8.001  -0.113  0.00  0.00    +0.148 HD
BRANCH  21  23
ATOM     23  C   UNL     1       7.871  -7.607  -0.128  0.00  0.00    +0.138 C 
BRANCH  23  24
ATOM     24  C   UNL     1       8.051  -9.103  -0.144  0.00  0.00    -0.030 A 
ATOM     25  C   UNL     1       8.139  -9.802   1.045  0.00  0.00    +0.006 A 
ATOM     26  C   UNL     1       8.304 -11.174   1.031  0.00  0.00    +0.020 A 
ATOM     27  C   UNL     1       8.382 -11.848  -0.174  0.00  0.00    +0.041 A 
ATOM     28  C   UNL     1       8.294 -11.149  -1.365  0.00  0.00    +0.020 A 
ATOM     29  C   UNL     1       8.123  -9.777  -1.349  0.00  0.00    +0.006 A 
ATOM     30 CL   UNL     1       8.589 -13.572  -0.193  0.00  0.00    -0.084 Cl
ENDBRANCH  23  24
ENDBRANCH  21  23
ENDBRANCH  13  21
TORSDOF 4
