REMARK  Name = ZINC35991374
REMARK  13 active torsions:
REMARK  status: ('A' for Active; 'I' for Inactive)
REMARK    1  A    between atoms: C_1  and  C_2
REMARK    2  A    between atoms: C_2  and  N_3
REMARK    3  A    between atoms: C_4  and  C_24
REMARK    4  A    between atoms: C_5  and  C_19
REMARK    5  A    between atoms: C_6  and  C_11
REMARK    6  A    between atoms: C_19  and  O_21
REMARK    7  A    between atoms: O_21  and  C_22
REMARK    8  A    between atoms: C_22  and  C_23
REMARK    9  A    between atoms: C_24  and  N_25
REMARK   10  A    between atoms: C_28  and  C_31
REMARK   11  A    between atoms: C_31  and  O_33
REMARK   12  A    between atoms: O_33  and  C_34
REMARK   13  A    between atoms: C_34  and  C_35
REMARK                            x       y       z     vdW  Elec       q    Type
REMARK                         _______ _______ _______ _____ _____    ______ ____
ROOT
ATOM      1  N   UNL     1      -1.625  -0.024   0.023  0.00  0.00    -0.258 N 
ATOM      2  C   UNL     1      -2.031  -0.638   1.173  0.00  0.00    +0.041 C 
ATOM      3  C   UNL     1      -3.013  -1.566   1.158  0.00  0.00    +0.080 C 
ATOM      4  C   UNL     1      -3.647  -1.901  -0.177  0.00  0.00    +0.145 C 
ATOM      5  N   UNL     1      -3.137  -1.182  -1.357  0.00  0.00    -0.288 N 
ATOM      6  C   UNL     1      -2.153  -0.278  -1.181  0.00  0.00    +0.307 C 
ATOM      7  O   UNL     1      -1.728   0.324  -2.148  0.00  0.00    -0.252 OA
ATOM      8  H   UNL     1      -3.503  -1.353  -2.239  0.00  0.00    +0.151 HD
ENDROOT
BRANCH   4   9
ATOM      9  C   UNL     1      -3.466  -3.377  -0.419  0.00  0.00    -0.003 A 
ATOM     10  C   UNL     1      -2.515  -4.084   0.293  0.00  0.00    +0.007 A 
ATOM     11  C   UNL     1      -2.349  -5.438   0.071  0.00  0.00    +0.002 A 
ATOM     12  C   UNL     1      -3.133  -6.087  -0.864  0.00  0.00    +0.021 A 
ATOM     13  C   UNL     1      -4.085  -5.382  -1.578  0.00  0.00    +0.060 A 
ATOM     14  C   UNL     1      -4.256  -4.026  -1.351  0.00  0.00    +0.064 A 
ATOM     15 CL   UNL     1      -5.456  -3.141  -2.240  0.00  0.00    -0.082 Cl
ATOM     16 CL   UNL     1      -5.071  -6.197  -2.752  0.00  0.00    -0.082 Cl
ENDBRANCH   4   9
BRANCH   1  18
ATOM     17  C   UNL     1      -1.163   2.350   0.385  0.00  0.00    +0.025 C 
ATOM     18  C   UNL     1      -0.555   0.973   0.112  0.00  0.00    +0.111 C 
ENDBRANCH   1  18
BRANCH   3  19
ATOM     19  C   UNL     1      -3.434  -2.204   2.348  0.00  0.00    +0.339 C 
ATOM     20  O   UNL     1      -2.836  -2.005   3.389  0.00  0.00    -0.245 OA
BRANCH  19  21
ATOM     21  O   UNL     1      -4.499  -3.032   2.329  0.00  0.00    -0.462 OA
BRANCH  21  22
ATOM     22  C   UNL     1      -4.869  -3.642   3.568  0.00  0.00    +0.229 C 
ATOM     23  C   UNL     1      -6.088  -4.540   3.350  0.00  0.00    +0.048 C 
ENDBRANCH  21  22
ENDBRANCH  19  21
ENDBRANCH   3  19
BRANCH   2  24
ATOM     24  C   UNL     1      -1.374  -0.276   2.479  0.00  0.00    +0.136 C 
BRANCH  24  25
ATOM     25  N   UNL     1      -0.379  -1.299   2.828  0.00  0.00    -0.297 NA
ATOM     26  C   UNL     1       0.771  -1.247   1.915  0.00  0.00    +0.085 C 
ATOM     27  C   UNL     1       1.714  -2.415   2.215  0.00  0.00    +0.030 C 
ATOM     28  C   UNL     1       2.188  -2.322   3.668  0.00  0.00    +0.100 C 
ATOM     29  C   UNL     1       0.969  -2.329   4.595  0.00  0.00    +0.030 C 
ATOM     30  C   UNL     1       0.047  -1.164   4.226  0.00  0.00    +0.085 C 
BRANCH  28  31
ATOM     31  C   UNL     1       3.069  -3.502   3.986  0.00  0.00    +0.310 C 
ATOM     32  O   UNL     1       3.296  -4.332   3.139  0.00  0.00    -0.251 OA
BRANCH  31  33
ATOM     33  O   UNL     1       3.602  -3.630   5.212  0.00  0.00    -0.465 OA
BRANCH  33  34
ATOM     34  C   UNL     1       4.428  -4.773   5.444  0.00  0.00    +0.229 C 
ATOM     35  C   UNL     1       4.941  -4.748   6.885  0.00  0.00    +0.048 C 
ENDBRANCH  33  34
ENDBRANCH  31  33
ENDBRANCH  28  31
ENDBRANCH  24  25
ENDBRANCH   2  24
TORSDOF 10
