REMARK  Name = ZINC06702111
REMARK  7 active torsions:
REMARK  status: ('A' for Active; 'I' for Inactive)
REMARK    1  A    between atoms: C_3  and  S_17
REMARK    2  A    between atoms: C_6  and  C_7
REMARK    3  A    between atoms: C_7  and  C_8
REMARK    4  A    between atoms: C_8  and  N_37
REMARK    5  A    between atoms: C_9  and  C_10
REMARK    6  A    between atoms: C_9  and  N_37
REMARK    7  A    between atoms: S_17  and  N_20
REMARK                            x       y       z     vdW  Elec       q    Type
REMARK                         _______ _______ _______ _____ _____    ______ ____
ROOT
ATOM      1  C   UNL     1      -3.132   3.072   4.905  0.00  0.00    +0.016 C 
ENDROOT
BRANCH   1   7
ATOM      2  C   UNL     1      -2.559   1.412   3.121  0.00  0.00    +0.005 A 
ATOM      3  C   UNL     1      -1.846   1.033   2.000  0.00  0.00    +0.029 A 
ATOM      4  C   UNL     1      -0.927   1.900   1.439  0.00  0.00    +0.105 A 
ATOM      5  C   UNL     1      -0.717   3.145   2.004  0.00  0.00    +0.029 A 
ATOM      6  C   UNL     1      -1.434   3.526   3.123  0.00  0.00    +0.005 A 
ATOM      7  C   UNL     1      -2.354   2.659   3.683  0.00  0.00    -0.049 A 
BRANCH   4   8
ATOM      8  S   UNL     1      -0.017   1.417   0.010  0.00  0.00    +0.056 S 
ATOM      9  O   UNL     1       0.002  -0.004   0.002  0.00  0.00    -0.153 OA
ATOM     10  O   UNL     1       1.172   2.195   0.003  0.00  0.00    -0.153 OA
BRANCH   8  11
ATOM     11  N   UNL     1      -0.897   1.885  -1.312  0.00  0.00    -0.204 NA
ATOM     12  H   UNL     1      -1.747   2.338  -1.194  0.00  0.00    +0.144 HD
ATOM     13  H   UNL     1      -0.563   1.708  -2.205  0.00  0.00    +0.144 HD
ENDBRANCH   8  11
ENDBRANCH   4   8
ENDBRANCH   1   7
BRANCH   1  14
ATOM     14  C   UNL     1      -2.364   2.662   6.162  0.00  0.00    -0.077 C 
BRANCH  14  15
ATOM     15  N   UNL     1      -3.132   3.071   7.354  0.00  0.00    +0.382 N 
ATOM     16  H   UNL     1      -4.049   2.609   7.339  0.00  0.00    -0.085 HD
ATOM     17  H   UNL     1      -3.261   4.089   7.340  0.00  0.00    -0.085 HD
BRANCH  15  18
ATOM     18  C   UNL     1      -2.413   2.687   8.583  0.00  0.00    -0.047 C 
BRANCH  18  19
ATOM     19  C   UNL     1      -3.221   3.116   9.781  0.00  0.00    -0.064 A 
ATOM     20  C   UNL     1      -3.024   4.367  10.335  0.00  0.00    +0.003 A 
ATOM     21  C   UNL     1      -3.767   4.763  11.431  0.00  0.00    +0.015 A 
ATOM     22  C   UNL     1      -4.701   3.903  11.980  0.00  0.00    +0.018 A 
ATOM     23  C   UNL     1      -4.894   2.649  11.429  0.00  0.00    +0.015 A 
ATOM     24  C   UNL     1      -4.154   2.256  10.330  0.00  0.00    +0.003 A 
ATOM     25 BR   UNL     1      -5.714   4.441  13.483  0.00  0.00    -0.050 Br
ENDBRANCH  18  19
ENDBRANCH  15  18
ENDBRANCH  14  15
ENDBRANCH   1  14
TORSDOF 7
