REMARK  Name = ZINC36228867
REMARK  8 active torsions:
REMARK  status: ('A' for Active; 'I' for Inactive)
REMARK    1  A    between atoms: C_1  and  C_2
REMARK    2  A    between atoms: C_11  and  N_32
REMARK    3  A    between atoms: C_13  and  S_15
REMARK    4  A    between atoms: S_15  and  C_16
REMARK    5  A    between atoms: C_16  and  C_17
REMARK    6  A    between atoms: N_19  and  C_20
REMARK    7  A    between atoms: C_25  and  C_26
REMARK    8  A    between atoms: N_28  and  C_29
REMARK                            x       y       z     vdW  Elec       q    Type
REMARK                         _______ _______ _______ _____ _____    ______ ____
ROOT
ATOM      1  S   UNL     1      -0.694  -7.854   3.394  0.00  0.00    -0.077 S 
ENDROOT
BRANCH   1  13
ATOM      2  C   UNL     1      -0.930   1.318  -1.056  0.00  0.00    +0.008 C 
ATOM      3  C   UNL     1      -0.781  -0.165  -0.712  0.00  0.00    -0.009 C 
ATOM      4  C   UNL     1      -2.152  -0.845  -0.760  0.00  0.00    +0.008 C 
ATOM      5  C   UNL     1      -1.983  -2.361  -0.662  0.00  0.00    +0.037 C 
ATOM      6  C   UNL     1      -1.134  -2.686   0.565  0.00  0.00    -0.025 A 
ATOM      7  C   UNL     1      -0.362  -1.736   1.137  0.00  0.00    -0.004 A 
ATOM      8  S   UNL     1       0.434  -2.541   2.505  0.00  0.00    -0.073 S 
ATOM      9  C   UNL     1      -0.269  -4.147   2.311  0.00  0.00    +0.115 A 
ATOM     10  C   UNL     1      -1.108  -4.005   1.177  0.00  0.00    +0.051 A 
ATOM     11  C   UNL     1      -1.831  -5.160   0.759  0.00  0.00    +0.129 A 
ATOM     12  N   UNL     1      -1.641  -6.259   1.484  0.00  0.00    -0.207 NA
ATOM     13  C   UNL     1      -0.839  -6.321   2.536  0.00  0.00    +0.191 A 
ATOM     14  N   UNL     1      -0.135  -5.276   2.977  0.00  0.00    -0.214 NA
ATOM     15  C   UNL     1      -0.206  -0.309   0.705  0.00  0.00    +0.046 C 
BRANCH  11  16
ATOM     16  N   UNL     1      -2.679  -5.139  -0.333  0.00  0.00    -0.343 N 
ATOM     17  H   UNL     1      -2.629  -4.410  -0.972  0.00  0.00    +0.144 HD
ATOM     18  H   UNL     1      -3.323  -5.852  -0.461  0.00  0.00    +0.144 HD
ENDBRANCH  11  16
ENDBRANCH   1  13
BRANCH   1  19
ATOM     19  C   UNL     1      -1.793  -8.973   2.482  0.00  0.00    +0.173 C 
BRANCH  19  20
ATOM     20  C   UNL     1      -1.762 -10.337   3.120  0.00  0.00    +0.228 C 
ATOM     21  O   UNL     1      -1.068 -10.536   4.094  0.00  0.00    -0.275 OA
ATOM     22  N   UNL     1      -2.507 -11.337   2.608  0.00  0.00    -0.284 N 
ATOM     23  H   UNL     1      -3.000 -11.202   1.783  0.00  0.00    +0.155 HD
BRANCH  22  24
ATOM     24  C   UNL     1      -2.568 -12.566   3.262  0.00  0.00    +0.046 A 
ATOM     25  C   UNL     1      -1.435 -13.088   3.872  0.00  0.00    +0.024 A 
ATOM     26  C   UNL     1      -1.498 -14.306   4.519  0.00  0.00    +0.002 A 
ATOM     27  C   UNL     1      -2.688 -15.014   4.567  0.00  0.00    +0.001 A 
ATOM     28  C   UNL     1      -3.822 -14.511   3.967  0.00  0.00    +0.015 A 
ATOM     29  C   UNL     1      -3.775 -13.277   3.313  0.00  0.00    +0.058 A 
BRANCH  29  30
ATOM     30  C   UNL     1      -4.987 -12.730   2.675  0.00  0.00    +0.246 C 
ATOM     31  O   UNL     1      -4.962 -11.624   2.169  0.00  0.00    -0.270 OA
ATOM     32  N   UNL     1      -6.123 -13.455   2.652  0.00  0.00    -0.308 N 
ATOM     33  H   UNL     1      -6.144 -14.337   3.055  0.00  0.00    +0.149 HD
BRANCH  32  34
ATOM     34  C   UNL     1      -7.327 -12.911   2.018  0.00  0.00    +0.073 C 
ATOM     35  C   UNL     1      -8.656 -13.091   2.755  0.00  0.00    +0.024 C 
ATOM     36  C   UNL     1      -8.362 -13.909   1.496  0.00  0.00    +0.024 C 
ENDBRANCH  32  34
ENDBRANCH  29  30
ENDBRANCH  22  24
ENDBRANCH  19  20
ENDBRANCH   1  19
TORSDOF 7
