REMARK  Name = ZINC01198518
REMARK  5 active torsions:
REMARK  status: ('A' for Active; 'I' for Inactive)
REMARK    1  A    between atoms: C_6  and  C_7
REMARK    2  A    between atoms: C_8  and  C_9
REMARK    3  A    between atoms: C_8  and  N_13
REMARK    4  A    between atoms: N_11  and  N_12
REMARK    5  A    between atoms: C_14  and  C_16
REMARK                            x       y       z     vdW  Elec       q    Type
REMARK                         _______ _______ _______ _____ _____    ______ ____
ROOT
ATOM      1  C   UNL     1       0.894   2.437   0.152  0.00  0.00    +0.036 C 
ATOM      2  C   UNL     1      -0.157   1.661  -0.200  0.00  0.00    +0.098 C 
ENDROOT
BRANCH   1   8
ATOM      3  C   UNL     1       2.411   0.554   0.738  0.00  0.00    +0.009 A 
ATOM      4  C   UNL     1       3.676   0.012   0.818  0.00  0.00    +0.016 A 
ATOM      5  C   UNL     1       4.778   0.752   0.423  0.00  0.00    +0.018 A 
ATOM      6  C   UNL     1       4.617   2.040  -0.061  0.00  0.00    +0.016 A 
ATOM      7  C   UNL     1       3.358   2.595  -0.152  0.00  0.00    +0.009 A 
ATOM      8  C   UNL     1       2.241   1.853   0.246  0.00  0.00    -0.023 A 
ATOM      9 BR   UNL     1       6.509   0.002   0.544  0.00  0.00    -0.050 Br
ENDBRANCH   1   8
BRANCH   2  10
ATOM     10  C   UNL     1       0.067   0.274  -0.634  0.00  0.00    +0.272 C 
ATOM     11  O   UNL     1      -0.216  -0.648   0.108  0.00  0.00    -0.268 OA
ATOM     12  N   UNL     1       0.584   0.023  -1.853  0.00  0.00    -0.249 N 
ATOM     13  H   UNL     1       0.739   0.753  -2.473  0.00  0.00    +0.169 HD
BRANCH  12  14
ATOM     14  N   UNL     1       0.891  -1.258  -2.215  0.00  0.00    -0.254 NA
ATOM     15  H   UNL     1       1.340  -1.280  -3.118  0.00  0.00    +0.140 HD
ATOM     16  H   UNL     1       1.464  -1.704  -1.514  0.00  0.00    +0.140 HD
ENDBRANCH  12  14
ENDBRANCH   2  10
BRANCH   2  17
ATOM     17  N   UNL     1      -1.454   2.179  -0.158  0.00  0.00    -0.275 N 
ATOM     18  C   UNL     1      -2.503   1.400  -0.487  0.00  0.00    +0.284 C 
ATOM     19  O   UNL     1      -2.332   0.218  -0.724  0.00  0.00    -0.266 OA
ATOM     20  H   UNL     1      -1.599   3.101   0.109  0.00  0.00    +0.155 HD
BRANCH  18  21
ATOM     21  C   UNL     1      -3.848   1.974  -0.560  0.00  0.00    +0.191 A 
ATOM     22  C   UNL     1      -4.993   1.300  -0.880  0.00  0.00    +0.056 A 
ATOM     23  C   UNL     1      -6.039   2.234  -0.829  0.00  0.00    +0.058 A 
ATOM     24  C   UNL     1      -5.495   3.424  -0.483  0.00  0.00    +0.171 A 
ATOM     25  O   UNL     1      -4.175   3.261  -0.317  0.00  0.00    -0.444 OA
ATOM     26 BR   UNL     1      -6.441   5.046  -0.265  0.00  0.00    -0.008 Br
ENDBRANCH  18  21
ENDBRANCH   2  17
TORSDOF 5
