REMARK  Name = ZINC39559533
REMARK  11 active torsions:
REMARK  status: ('A' for Active; 'I' for Inactive)
REMARK    1  A    between atoms: C_1  and  C_2
REMARK    2  A    between atoms: C_2  and  C_3
REMARK    3  A    between atoms: C_3  and  O_4
REMARK    4  A    between atoms: O_4  and  C_5
REMARK    5  A    between atoms: C_6  and  O_33
REMARK    6  A    between atoms: C_8  and  C_12
REMARK    7  A    between atoms: C_13  and  C_14
REMARK    8  A    between atoms: N_16  and  C_17
REMARK    9  A    between atoms: C_17  and  C_18
REMARK   10  A    between atoms: N_20  and  C_21
REMARK   11  A    between atoms: O_33  and  C_34
REMARK                            x       y       z     vdW  Elec       q    Type
REMARK                         _______ _______ _______ _____ _____    ______ ____
ROOT
ATOM      1  C   UNL     1       3.297  -5.470   7.745  0.00  0.00    +0.237 C 
ATOM      2  O   UNL     1       4.482  -5.736   7.675  0.00  0.00    -0.271 OA
ATOM      3  N   UNL     1       2.599  -5.790   8.852  0.00  0.00    -0.303 N 
ATOM      4  H   UNL     1       1.654  -5.578   8.908  0.00  0.00    +0.149 HD
ENDROOT
BRANCH   1   6
ATOM      5  C   UNL     1       3.328  -4.484   5.517  0.00  0.00    +0.013 C 
ATOM      6  C   UNL     1       2.629  -4.804   6.626  0.00  0.00    +0.068 C 
BRANCH   5  10
ATOM      7  C   UNL     1       1.387  -2.553   2.273  0.00  0.00    +0.180 A 
ATOM      8  C   UNL     1       2.745  -2.854   2.189  0.00  0.00    +0.164 A 
ATOM      9  C   UNL     1       3.381  -3.482   3.242  0.00  0.00    +0.057 A 
ATOM     10  C   UNL     1       2.658  -3.815   4.393  0.00  0.00    -0.020 A 
ATOM     11  C   UNL     1       1.294  -3.509   4.471  0.00  0.00    +0.031 A 
ATOM     12  C   UNL     1       0.669  -2.877   3.417  0.00  0.00    +0.087 A 
ATOM     13 CL   UNL     1      -1.021  -2.492   3.518  0.00  0.00    -0.080 Cl
BRANCH   8  14
ATOM     14  O   UNL     1       3.445  -2.530   1.069  0.00  0.00    -0.491 OA
ATOM     15  C   UNL     1       4.834  -2.868   1.051  0.00  0.00    +0.277 C 
ENDBRANCH   8  14
BRANCH   7  16
ATOM     16  O   UNL     1       0.764  -1.935   1.236  0.00  0.00    -0.487 OA
BRANCH  16  17
ATOM     17  C   UNL     1       0.755  -0.506   1.242  0.00  0.00    +0.229 C 
BRANCH  17  19
ATOM     18  C   UNL     1       0.005   1.535   0.012  0.00  0.00    +0.007 C 
ATOM     19  C   UNL     1       0.015   0.005   0.005  0.00  0.00    +0.038 C 
ENDBRANCH  17  19
ENDBRANCH  16  17
ENDBRANCH   7  16
ENDBRANCH   5  10
ENDBRANCH   1   6
BRANCH   3  20
ATOM     20  C   UNL     1       3.267  -6.457   9.972  0.00  0.00    +0.200 C 
BRANCH  20  21
ATOM     21  C   UNL     1       2.272  -6.701  11.078  0.00  0.00    +0.234 C 
ATOM     22  O   UNL     1       1.119  -6.352  10.943  0.00  0.00    -0.274 OA
ATOM     23  N   UNL     1       2.665  -7.307  12.216  0.00  0.00    -0.284 N 
ATOM     24  H   UNL     1       3.570  -7.646  12.297  0.00  0.00    +0.155 HD
BRANCH  23  25
ATOM     25  C   UNL     1       1.766  -7.447  13.281  0.00  0.00    +0.036 A 
ATOM     26  C   UNL     1       2.222  -7.355  14.591  0.00  0.00    +0.025 A 
ATOM     27  C   UNL     1       1.341  -7.493  15.644  0.00  0.00    +0.029 A 
ATOM     28  C   UNL     1      -0.004  -7.724  15.396  0.00  0.00    +0.067 A 
ATOM     29  C   UNL     1      -0.465  -7.817  14.082  0.00  0.00    +0.069 A 
ATOM     30  C   UNL     1       0.421  -7.673  13.026  0.00  0.00    +0.051 A 
ATOM     31  N   UNL     1      -1.837  -8.048  14.152  0.00  0.00    -0.306 N 
ATOM     32  H   UNL     1      -2.433  -8.158  13.394  0.00  0.00    +0.170 HD
ATOM     33  C   UNL     1      -2.195  -8.094  15.449  0.00  0.00    +0.325 A 
ATOM     34  O   UNL     1      -3.326  -8.281  15.857  0.00  0.00    -0.247 OA
ATOM     35  N   UNL     1      -1.112  -7.902  16.225  0.00  0.00    -0.306 N 
ATOM     36  H   UNL     1      -1.103  -7.889  17.195  0.00  0.00    +0.170 HD
ENDBRANCH  23  25
ENDBRANCH  20  21
ENDBRANCH   3  20
TORSDOF 9
