REMARK  Name = ZINC09423156
REMARK  8 active torsions:
REMARK  status: ('A' for Active; 'I' for Inactive)
REMARK    1  A    between atoms: C_1  and  C_2
REMARK    2  A    between atoms: C_6  and  N_23
REMARK    3  A    between atoms: C_10  and  C_11
REMARK    4  A    between atoms: C_11  and  C_13
REMARK    5  A    between atoms: C_15  and  O_21
REMARK    6  A    between atoms: C_18  and  O_19
REMARK    7  A    between atoms: O_19  and  C_20
REMARK    8  A    between atoms: O_21  and  C_22
REMARK                            x       y       z     vdW  Elec       q    Type
REMARK                         _______ _______ _______ _____ _____    ______ ____
ROOT
ATOM      1  C   UNL     1      -4.654   3.982   3.720  0.00  0.00    +0.048 C 
ATOM      2  C   UNL     1      -3.837   3.454   4.870  0.00  0.00    +0.006 A 
ATOM      3  C   UNL     1      -4.147   3.568   6.248  0.00  0.00    +0.024 A 
ATOM      4  C   UNL     1      -5.207   4.148   6.956  0.00  0.00    +0.014 A 
ATOM      5  C   UNL     1      -5.225   4.094   8.318  0.00  0.00    +0.023 A 
ATOM      6  C   UNL     1      -4.192   3.462   9.013  0.00  0.00    +0.028 A 
ATOM      7  C   UNL     1      -3.135   2.882   8.330  0.00  0.00    +0.069 A 
ATOM      8  C   UNL     1      -3.102   2.929   6.944  0.00  0.00    +0.138 A 
ATOM      9  O   UNL     1      -2.230   2.462   6.027  0.00  0.00    -0.451 OA
ATOM     10  C   UNL     1      -2.660   2.776   4.784  0.00  0.00    +0.179 A 
ENDROOT
BRANCH   6  11
ATOM     11  N   UNL     1      -4.224   3.414  10.405  0.00  0.00    -0.358 N 
ATOM     12  H   UNL     1      -4.962   3.819  10.888  0.00  0.00    +0.142 HD
ATOM     13  H   UNL     1      -3.509   2.976  10.892  0.00  0.00    +0.142 HD
ENDBRANCH   6  11
BRANCH  10  14
ATOM     14  C   UNL     1      -1.969   2.434   3.537  0.00  0.00    +0.232 C 
ATOM     15  O   UNL     1      -2.398   2.840   2.473  0.00  0.00    -0.283 OA
BRANCH  14  16
ATOM     16  C   UNL     1      -0.754   1.598   3.573  0.00  0.00    +0.070 A 
ATOM     17  C   UNL     1      -0.190   1.229   4.797  0.00  0.00    +0.061 A 
ATOM     18  C   UNL     1       0.948   0.446   4.822  0.00  0.00    +0.121 A 
ATOM     19  C   UNL     1       1.532   0.023   3.634  0.00  0.00    +0.049 A 
ATOM     20  C   UNL     1       0.979   0.378   2.420  0.00  0.00    +0.050 A 
ATOM     21  C   UNL     1      -0.159   1.168   2.378  0.00  0.00    +0.131 A 
BRANCH  21  22
ATOM     22  O   UNL     1      -0.700   1.521   1.184  0.00  0.00    -0.494 OA
ATOM     23  C   UNL     1      -0.040   1.047   0.008  0.00  0.00    +0.277 C 
ENDBRANCH  21  22
BRANCH  18  24
ATOM     24  O   UNL     1       1.497   0.086   6.013  0.00  0.00    -0.495 OA
ATOM     25  C   UNL     1       2.673  -0.725   5.967  0.00  0.00    +0.277 C 
ENDBRANCH  18  24
ENDBRANCH  14  16
ENDBRANCH  10  14
TORSDOF 5
