REMARK  Name = ZINC13585869
REMARK  5 active torsions:
REMARK  status: ('A' for Active; 'I' for Inactive)
REMARK    1  A    between atoms: C_3  and  C_7
REMARK    2  A    between atoms: C_7  and  N_8
REMARK    3  A    between atoms: N_8  and  C_9
REMARK    4  A    between atoms: C_9  and  C_10
REMARK    5  A    between atoms: C_29  and  C_31
REMARK                            x       y       z     vdW  Elec       q    Type
REMARK                         _______ _______ _______ _____ _____    ______ ____
ROOT
ATOM      1  C   UNL     1       5.871   3.173   2.842  0.00  0.00    -0.014 C 
ATOM      2  C   UNL     1       6.124   1.816   3.507  0.00  0.00    +0.001 C 
ATOM      3  C   UNL     1       7.261   1.113   2.764  0.00  0.00    -0.014 C 
ATOM      4  C   UNL     1       8.515   1.995   2.775  0.00  0.00    -0.051 C 
ATOM      5  C   UNL     1       9.612   1.262   1.990  0.00  0.00    +0.092 C 
ATOM      6  N   UNL     1      10.774   2.149   1.844  0.00  0.00    -0.304 N 
ATOM      7  C   UNL     1      10.537   3.507   1.328  0.00  0.00    +0.089 C 
ATOM      8  C   UNL     1       9.425   4.143   2.165  0.00  0.00    -0.059 C 
ATOM      9  N   UNL     1       8.225   3.290   2.151  0.00  0.00    +0.384 N 
ATOM     10  C   UNL     1       7.161   3.991   2.879  0.00  0.00    -0.074 C 
ATOM     11  C   UNL     1      12.034   1.726   2.175  0.00  0.00    +0.201 A 
ATOM     12  N   UNL     1      13.092   2.590   2.027  0.00  0.00    -0.297 N 
ATOM     13  C   UNL     1      14.244   2.374   2.784  0.00  0.00    +0.227 A 
ATOM     14  N   UNL     1      14.470   1.042   3.092  0.00  0.00    -0.162 N 
ATOM     15  C   UNL     1      13.443   0.125   3.019  0.00  0.00    +0.259 A 
ATOM     16  N   UNL     1      12.204   0.498   2.636  0.00  0.00    -0.179 NA
ATOM     17  N   UNL     1      13.931  -1.037   3.371  0.00  0.00    -0.186 NA
ATOM     18  C   UNL     1      15.238  -0.908   3.663  0.00  0.00    +0.219 A 
ATOM     19  N   UNL     1      15.600   0.353   3.500  0.00  0.00    -0.137 NA
ATOM     20  N   UNL     1      15.035   3.336   3.164  0.00  0.00    -0.266 NA
ATOM     21  H   UNL     1      15.825   3.135   3.690  0.00  0.00    +0.190 HD
ATOM     22  H   UNL     1      13.039   3.335   1.409  0.00  0.00    +0.171 HD
ATOM     23  H   UNL     1       7.932   3.146   1.196  0.00  0.00    -0.081 HD
ENDROOT
BRANCH  18  24
ATOM     24  C   UNL     1      16.128  -2.004   4.098  0.00  0.00    +0.173 A 
ATOM     25  C   UNL     1      15.770  -3.305   4.265  0.00  0.00    +0.053 A 
ATOM     26  C   UNL     1      16.925  -3.994   4.686  0.00  0.00    +0.042 A 
ATOM     27  C   UNL     1      17.921  -3.089   4.754  0.00  0.00    +0.196 A 
ATOM     28  O   UNL     1      17.438  -1.889   4.393  0.00  0.00    -0.460 OA
ENDBRANCH  18  24
BRANCH   1  29
ATOM     29  C   UNL     1       5.440   2.959   1.389  0.00  0.00    +0.083 C 
BRANCH  29  30
ATOM     30  N   UNL     1       4.142   2.271   1.359  0.00  0.00    -0.312 NA
ATOM     31  H   UNL     1       3.450   2.783   1.885  0.00  0.00    +0.122 HD
BRANCH  30  32
ATOM     32  C   UNL     1       3.696   2.049  -0.023  0.00  0.00    +0.117 C 
BRANCH  32  35
ATOM     33  C   UNL     1      -0.017   1.378   0.010  0.00  0.00    +0.020 A 
ATOM     34  C   UNL     1       1.185   2.070   0.002  0.00  0.00    +0.008 A 
ATOM     35  C   UNL     1       2.365   1.343  -0.013  0.00  0.00    -0.016 A 
ATOM     36  C   UNL     1       2.305  -0.038  -0.020  0.00  0.00    +0.115 A 
ATOM     37  N   UNL     1       1.144  -0.663  -0.013  0.00  0.00    -0.263 NA
ATOM     38  C   UNL     1       0.002  -0.004   0.002  0.00  0.00    +0.111 A 
ENDBRANCH  32  35
ENDBRANCH  30  32
ENDBRANCH  29  30
ENDBRANCH   1  29
TORSDOF 5
