REMARK  Name = ZINC12531547
REMARK  16 active torsions:
REMARK  status: ('A' for Active; 'I' for Inactive)
REMARK    1  A    between atoms: C_1  and  C_2
REMARK    2  A    between atoms: C_2  and  O_39
REMARK    3  A    between atoms: C_5  and  C_23
REMARK    4  A    between atoms: C_9  and  C_21
REMARK    5  A    between atoms: C_9  and  C_22
REMARK    6  A    between atoms: C_11  and  N_13
REMARK    7  A    between atoms: C_14  and  C_16
REMARK    8  A    between atoms: C_16  and  C_17
REMARK    9  A    between atoms: C_17  and  C_18
REMARK   10  A    between atoms: C_17  and  C_19
REMARK   11  A    between atoms: C_17  and  C_20
REMARK   12  A    between atoms: C_23  and  C_24
REMARK   13  A    between atoms: C_24  and  C_25
REMARK   14  A    between atoms: N_27  and  C_28
REMARK   15  A    between atoms: C_28  and  C_29
REMARK   16  A    between atoms: C_29  and  C_30
REMARK                            x       y       z     vdW  Elec       q    Type
REMARK                         _______ _______ _______ _____ _____    ______ ____
ROOT
ATOM      1  C   UNL     1       0.247   1.705  -0.138  0.00  0.00    +0.041 C 
ATOM      2  C   UNL     1       0.257   0.178  -0.227  0.00  0.00    +0.064 C 
ATOM      3  C   UNL     1      -1.182  -0.348  -0.198  0.00  0.00    +0.035 C 
ATOM      4  C   UNL     1      -1.143  -1.867  -0.365  0.00  0.00    +0.012 C 
ATOM      5  C   UNL     1      -0.338  -2.521   0.734  0.00  0.00    -0.007 C 
ATOM      6  C   UNL     1       1.075  -1.927   0.882  0.00  0.00    +0.005 C 
ATOM      7  C   UNL     1       1.012  -0.400   0.968  0.00  0.00    +0.039 C 
ATOM      8  C   UNL     1       1.482  -2.435   2.297  0.00  0.00    -0.030 C 
ATOM      9  C   UNL     1       0.184  -2.308   3.124  0.00  0.00    +0.029 C 
ATOM     10  C   UNL     1      -0.983  -2.357   2.116  0.00  0.00    +0.080 C 
ATOM     11  C   UNL     1       1.937  -3.895   2.233  0.00  0.00    +0.011 C 
ATOM     12  C   UNL     1       2.584  -1.553   2.888  0.00  0.00    +0.011 C 
ENDROOT
BRANCH  10  13
ATOM     13  N   UNL     1      -1.852  -3.499   2.406  0.00  0.00    -0.312 N 
ATOM     14  C   UNL     1      -2.954  -3.332   3.165  0.00  0.00    +0.214 C 
ATOM     15  O   UNL     1      -3.225  -2.236   3.607  0.00  0.00    -0.276 OA
ATOM     16  H   UNL     1      -1.636  -4.376   2.053  0.00  0.00    +0.149 HD
BRANCH  14  17
ATOM     17  C   UNL     1      -3.849  -4.508   3.463  0.00  0.00    +0.102 C 
BRANCH  17  18
ATOM     18  C   UNL     1      -5.018  -4.049   4.337  0.00  0.00    -0.029 C 
ATOM     19  C   UNL     1      -5.817  -2.975   3.596  0.00  0.00    +0.011 C 
ATOM     20  C   UNL     1      -5.927  -5.242   4.640  0.00  0.00    +0.011 C 
ATOM     21  C   UNL     1      -4.480  -3.472   5.648  0.00  0.00    +0.011 C 
ENDBRANCH  17  18
ENDBRANCH  14  17
ENDBRANCH  10  13
BRANCH   2  22
ATOM     22  O   UNL     1       0.895  -0.228  -1.439  0.00  0.00    -0.389 OA
ATOM     23  H   UNL     1       0.464   0.100  -2.240  0.00  0.00    +0.210 HD
ENDBRANCH   2  22
BRANCH   5  24
ATOM     24  C   UNL     1      -0.196  -4.013   0.427  0.00  0.00    +0.018 C 
BRANCH  24  25
ATOM     25  C   UNL     1       0.653  -4.196  -0.834  0.00  0.00    +0.096 C 
BRANCH  25  26
ATOM     26  C   UNL     1       0.908  -5.664  -1.058  0.00  0.00    +0.213 C 
ATOM     27  O   UNL     1       0.457  -6.483  -0.287  0.00  0.00    -0.276 OA
ATOM     28  N   UNL     1       1.639  -6.066  -2.117  0.00  0.00    -0.315 N 
ATOM     29  H   UNL     1       2.000  -5.411  -2.734  0.00  0.00    +0.149 HD
BRANCH  28  30
ATOM     30  C   UNL     1       1.887  -7.493  -2.336  0.00  0.00    +0.109 C 
BRANCH  30  31
ATOM     31  C   UNL     1       2.736  -7.676  -3.596  0.00  0.00    +0.056 C 
BRANCH  31  32
ATOM     32  C   UNL     1       2.991  -9.144  -3.821  0.00  0.00    -0.021 A 
ATOM     33  C   UNL     1       2.109 -10.086  -4.513  0.00  0.00    +0.003 A 
ATOM     34  C   UNL     1       0.866  -9.972  -5.137  0.00  0.00    +0.010 A 
ATOM     35  C   UNL     1       0.289 -11.071  -5.708  0.00  0.00    +0.001 A 
ATOM     36  C   UNL     1       0.930 -12.302  -5.672  0.00  0.00    +0.002 A 
ATOM     37  C   UNL     1       2.158 -12.437  -5.062  0.00  0.00    +0.026 A 
ATOM     38  C   UNL     1       2.763 -11.331  -4.475  0.00  0.00    +0.047 A 
ATOM     39  N   UNL     1       3.952 -11.145  -3.806  0.00  0.00    -0.360 N 
ATOM     40  C   UNL     1       4.074  -9.835  -3.429  0.00  0.00    +0.087 A 
ATOM     41  H   UNL     1       4.608 -11.838  -3.632  0.00  0.00    +0.165 HD
ENDBRANCH  31  32
ENDBRANCH  30  31
ENDBRANCH  28  30
ENDBRANCH  25  26
ENDBRANCH  24  25
ENDBRANCH   5  24
TORSDOF 10
