REMARK  Name = ZINC06003408
REMARK  6 active torsions:
REMARK  status: ('A' for Active; 'I' for Inactive)
REMARK    1  A    between atoms: C_1  and  C_2
REMARK    2  A    between atoms: C_2  and  C_3
REMARK    3  A    between atoms: C_3  and  C_5
REMARK    4  A    between atoms: C_3  and  S_6
REMARK    5  A    between atoms: S_6  and  C_7
REMARK    6  A    between atoms: C_18  and  C_20
REMARK                            x       y       z     vdW  Elec       q    Type
REMARK                         _______ _______ _______ _____ _____    ______ ____
ROOT
ATOM      1  C   UNL     1       1.160   1.662  -0.000  0.00  0.00    +0.171 A 
ATOM      2  N   UNL     1      -0.011   0.966   0.007  0.00  0.00    -0.302 N 
ATOM      3  H   UNL     1       0.003  -0.134   0.006  0.00  0.00    +0.171 HD
ATOM      4  C   UNL     1      -1.190   1.623   0.017  0.00  0.00    +0.258 A 
ATOM      5  O   UNL     1      -2.245   1.009   0.019  0.00  0.00    -0.267 OA
ATOM      6  C   UNL     1      -1.180   3.023   0.028  0.00  0.00    +0.069 A 
ATOM      7  C   UNL     1       0.037   3.682   0.021  0.00  0.00    +0.135 A 
ATOM      8  N   UNL     1       1.175   2.979   0.007  0.00  0.00    -0.208 NA
ATOM      9  N   UNL     1       0.067   5.063   0.032  0.00  0.00    -0.302 N 
ATOM     10  C   UNL     1      -1.025   5.782   0.434  0.00  0.00    +0.017 C 
ATOM     11  C   UNL     1      -2.252   5.220   0.467  0.00  0.00    +0.024 C 
ATOM     12  C   UNL     1      -2.468   3.790   0.039  0.00  0.00    +0.092 C 
ATOM     13  C   UNL     1      -3.372   5.952   0.898  0.00  0.00    +0.162 C 
ATOM     14  O   UNL     1      -4.464   5.419   0.910  0.00  0.00    -0.292 OA
ATOM     15  C   UNL     1      -3.246   7.383   1.345  0.00  0.00    +0.080 C 
ATOM     16  C   UNL     1      -1.839   7.608   1.909  0.00  0.00    +0.014 C 
ATOM     17  C   UNL     1      -0.821   7.223   0.834  0.00  0.00    +0.051 C 
ATOM     18  H   UNL     1       0.976   5.595  -0.286  0.00  0.00    +0.153 HD
ENDROOT
BRANCH  12  19
ATOM     19  C   UNL     1      -3.062   3.775  -1.345  0.00  0.00    -0.035 A 
ATOM     20  C   UNL     1      -2.376   4.349  -2.399  0.00  0.00    +0.004 A 
ATOM     21  C   UNL     1      -2.919   4.331  -3.670  0.00  0.00    +0.000 A 
ATOM     22  C   UNL     1      -4.153   3.746  -3.886  0.00  0.00    +0.000 A 
ATOM     23  C   UNL     1      -4.842   3.176  -2.832  0.00  0.00    +0.000 A 
ATOM     24  C   UNL     1      -4.297   3.191  -1.561  0.00  0.00    +0.004 A 
ENDBRANCH  12  19
BRANCH   1  25
ATOM     25  S   UNL     1       2.686   0.782  -0.020  0.00  0.00    -0.085 S 
BRANCH  25  26
ATOM     26  C   UNL     1       3.849   2.169  -0.024  0.00  0.00    +0.051 C 
ATOM     27  C   UNL     1       3.696   2.959  -1.325  0.00  0.00    +0.019 C 
BRANCH  26  29
ATOM     28  C   UNL     1       5.468   0.954   1.441  0.00  0.00    +0.005 C 
ATOM     29  C   UNL     1       5.279   1.636   0.085  0.00  0.00    +0.011 C 
ENDBRANCH  26  29
ENDBRANCH  25  26
ENDBRANCH   1  25
TORSDOF 4
