REMARK  Name = ZINC06045355
REMARK  7 active torsions:
REMARK  status: ('A' for Active; 'I' for Inactive)
REMARK    1  A    between atoms: C_6  and  N_7
REMARK    2  A    between atoms: C_9  and  C_11
REMARK    3  A    between atoms: C_11  and  C_13
REMARK    4  A    between atoms: C_11  and  O_26
REMARK    5  A    between atoms: C_13  and  C_15
REMARK    6  A    between atoms: C_13  and  O_25
REMARK    7  A    between atoms: C_20  and  N_24
REMARK                            x       y       z     vdW  Elec       q    Type
REMARK                         _______ _______ _______ _____ _____    ______ ____
ROOT
ATOM      1  C   UNL     1       6.564  -0.818   1.329  0.00  0.00    +0.205 C 
ENDROOT
BRANCH   1   9
ATOM      2  C   UNL     1      12.738  -1.116   1.270  0.00  0.00    +0.025 A 
ATOM      3  C   UNL     1      11.571  -0.420   1.284  0.00  0.00    +0.030 A 
ATOM      4  C   UNL     1      10.325  -1.089   1.291  0.00  0.00    +0.079 A 
ATOM      5  C   UNL     1      10.373  -2.502   1.284  0.00  0.00    +0.041 A 
ATOM      6  C   UNL     1      11.554  -3.203   1.269  0.00  0.00    +0.040 A 
ATOM      7  C   UNL     1      12.757  -2.510   1.262  0.00  0.00    +0.026 A 
ATOM      8  S   UNL     1       8.651  -2.937   1.305  0.00  0.00    -0.069 S 
ATOM      9  C   UNL     1       8.001  -1.272   1.312  0.00  0.00    +0.111 A 
ATOM     10  N   UNL     1       9.087  -0.548   1.306  0.00  0.00    -0.241 NA
BRANCH   7  11
ATOM     11  N   UNL     1      13.973  -3.201   1.247  0.00  0.00    -0.358 N 
ATOM     12  H   UNL     1      13.979  -4.301   1.241  0.00  0.00    +0.142 HD
ATOM     13  H   UNL     1      14.922  -2.645   1.242  0.00  0.00    +0.142 HD
ENDBRANCH   7  11
ENDBRANCH   1   9
BRANCH   1  14
ATOM     14  O   UNL     1       6.406   0.229   2.288  0.00  0.00    -0.382 OA
ATOM     15  H   UNL     1       5.418   0.689   2.442  0.00  0.00    +0.210 HD
ENDBRANCH   1  14
BRANCH   1  16
ATOM     16  C   UNL     1       6.176  -0.302  -0.059  0.00  0.00    +0.205 C 
BRANCH  16  17
ATOM     17  C   UNL     1       4.739   0.152  -0.042  0.00  0.00    +0.111 A 
ATOM     18  N   UNL     1       3.653  -0.572  -0.035  0.00  0.00    -0.241 NA
ATOM     19  C   UNL     1       2.415  -0.031  -0.021  0.00  0.00    +0.079 A 
ATOM     20  C   UNL     1       1.169  -0.700  -0.012  0.00  0.00    +0.030 A 
ATOM     21  C   UNL     1       0.002  -0.004   0.002  0.00  0.00    +0.025 A 
ATOM     22  C   UNL     1      -0.017   1.390   0.010  0.00  0.00    +0.026 A 
ATOM     23  C   UNL     1       1.186   2.083   0.002  0.00  0.00    +0.040 A 
ATOM     24  C   UNL     1       2.367   1.382  -0.013  0.00  0.00    +0.041 A 
ATOM     25  S   UNL     1       4.090   1.817  -0.028  0.00  0.00    -0.069 S 
BRANCH  22  26
ATOM     26  N   UNL     1      -1.232   2.081   0.019  0.00  0.00    -0.358 N 
ATOM     27  H   UNL     1      -1.239   3.181   0.025  0.00  0.00    +0.142 HD
ATOM     28  H   UNL     1      -2.181   1.525   0.021  0.00  0.00    +0.142 HD
ENDBRANCH  22  26
ENDBRANCH  16  17
BRANCH  16  29
ATOM     29  O   UNL     1       6.335  -1.349  -1.018  0.00  0.00    -0.382 OA
ATOM     30  H   UNL     1       6.103  -1.164  -2.077  0.00  0.00    +0.210 HD
ENDBRANCH  16  29
ENDBRANCH   1  16
TORSDOF 7
