REMARK  Name = ZINC00687149
REMARK  10 active torsions:
REMARK  status: ('A' for Active; 'I' for Inactive)
REMARK    1  A    between atoms: C_1  and  C_2
REMARK    2  A    between atoms: C_2  and  O_3
REMARK    3  A    between atoms: O_3  and  C_4
REMARK    4  A    between atoms: C_7  and  O_25
REMARK    5  A    between atoms: C_8  and  C_10
REMARK    6  A    between atoms: C_15  and  O_24
REMARK    7  A    between atoms: C_19  and  N_23
REMARK    8  A    between atoms: C_20  and  C_21
REMARK    9  A    between atoms: O_25  and  C_26
REMARK   10  A    between atoms: C_26  and  C_27
REMARK                            x       y       z     vdW  Elec       q    Type
REMARK                         _______ _______ _______ _____ _____    ______ ____
ROOT
ATOM      1  C   UNL     1      -0.972   1.737  -6.020  0.00  0.00    +0.102 C 
ATOM      2  C   UNL     1      -2.378   1.198  -6.061  0.00  0.00    +0.008 A 
ATOM      3  C   UNL     1      -2.587  -0.131  -6.385  0.00  0.00    +0.012 A 
ATOM      4  C   UNL     1      -3.869  -0.643  -6.427  0.00  0.00    +0.046 A 
ATOM      5  C   UNL     1      -4.953   0.176  -6.143  0.00  0.00    +0.120 A 
ATOM      6  C   UNL     1      -4.746   1.507  -5.819  0.00  0.00    +0.092 A 
ATOM      7  C   UNL     1      -3.456   2.020  -5.777  0.00  0.00    +0.138 A 
ATOM      8  O   UNL     1      -3.271   3.325  -5.457  0.00  0.00    -0.441 OA
ATOM      9  C   UNL     1      -2.118   3.936  -5.776  0.00  0.00    +0.199 C 
ATOM     10  C   UNL     1      -0.991   3.240  -6.054  0.00  0.00    +0.098 C 
ENDROOT
BRANCH   1  15
ATOM     11  C   UNL     1      -0.194   1.207  -2.360  0.00  0.00    +0.121 A 
ATOM     12  C   UNL     1       0.951   0.428  -2.430  0.00  0.00    +0.049 A 
ATOM     13  C   UNL     1       1.466   0.065  -3.659  0.00  0.00    +0.049 A 
ATOM     14  C   UNL     1       0.845   0.491  -4.824  0.00  0.00    +0.125 A 
ATOM     15  C   UNL     1      -0.297   1.275  -4.754  0.00  0.00    +0.010 A 
ATOM     16  C   UNL     1      -0.815   1.633  -3.525  0.00  0.00    +0.053 A 
BRANCH  11  17
ATOM     17  O   UNL     1      -0.704   1.559  -1.150  0.00  0.00    -0.492 OA
BRANCH  17  19
ATOM     18  C   UNL     1      -0.729   1.579   1.267  0.00  0.00    +0.048 C 
ATOM     19  C   UNL     1      -0.013   1.086   0.008  0.00  0.00    +0.225 C 
ENDBRANCH  17  19
ENDBRANCH  11  17
BRANCH  14  20
ATOM     20  O   UNL     1       1.355   0.139  -6.035  0.00  0.00    -0.492 OA
BRANCH  20  21
ATOM     21  C   UNL     1       2.532  -0.670  -6.032  0.00  0.00    +0.225 C 
ATOM     22  C   UNL     1       2.954  -0.962  -7.473  0.00  0.00    +0.048 C 
ENDBRANCH  20  21
ENDBRANCH  14  20
ENDBRANCH   1  15
BRANCH   9  23
ATOM     23  N   UNL     1      -2.082   5.308  -5.821  0.00  0.00    -0.328 N 
ATOM     24  H   UNL     1      -1.257   5.763  -6.050  0.00  0.00    +0.145 HD
ATOM     25  H   UNL     1      -2.881   5.821  -5.624  0.00  0.00    +0.145 HD
ENDBRANCH   9  23
BRANCH  10  26
ATOM     26  C   UNL     1       0.207   3.949  -6.388  0.00  0.00    +0.101 C 
ATOM     27  N   UNL     1       1.158   4.511  -6.653  0.00  0.00    -0.191 NA
ENDBRANCH  10  26
BRANCH   5  28
ATOM     28  O   UNL     1      -6.215  -0.326  -6.184  0.00  0.00    -0.507 OA
ATOM     29  H   UNL     1      -6.521  -0.690  -5.341  0.00  0.00    +0.292 HD
ENDBRANCH   5  28
TORSDOF 8
