REMARK  Name = ZINC01067859
REMARK  11 active torsions:
REMARK  status: ('A' for Active; 'I' for Inactive)
REMARK    1  A    between atoms: C_1  and  C_2
REMARK    2  A    between atoms: C_2  and  O_3
REMARK    3  A    between atoms: O_3  and  C_4
REMARK    4  A    between atoms: C_4  and  C_6
REMARK    5  A    between atoms: C_11  and  C_16
REMARK    6  A    between atoms: C_14  and  N_15
REMARK    7  A    between atoms: C_23  and  C_27
REMARK    8  A    between atoms: C_24  and  N_26
REMARK    9  A    between atoms: C_27  and  O_29
REMARK   10  A    between atoms: O_29  and  C_30
REMARK   11  A    between atoms: C_30  and  C_31
REMARK                            x       y       z     vdW  Elec       q    Type
REMARK                         _______ _______ _______ _____ _____    ______ ____
ROOT
ATOM      1  C   UNL     1      -1.056  -1.038   0.006  0.00  0.00    +0.127 A 
ATOM      2  C   UNL     1       0.002  -0.004   0.002  0.00  0.00    +0.040 A 
ATOM      3  C   UNL     1      -0.017   1.386   0.010  0.00  0.00    +0.059 A 
ATOM      4  C   UNL     1       1.173   2.097   0.002  0.00  0.00    +0.140 A 
ATOM      5  C   UNL     1       2.392   1.403  -0.011  0.00  0.00    +0.047 A 
ATOM      6  C   UNL     1       2.418   0.003  -0.020  0.00  0.00    +0.037 A 
ATOM      7  C   UNL     1       1.214  -0.708  -0.013  0.00  0.00    +0.147 A 
ATOM      8  O   UNL     1       0.935  -2.029  -0.018  0.00  0.00    -0.440 OA
ATOM      9  C   UNL     1      -0.386  -2.252  -0.007  0.00  0.00    +0.199 A 
ATOM     10  C   UNL     1       3.442   2.442  -0.015  0.00  0.00    +0.127 A 
ATOM     11  C   UNL     1       2.764   3.653  -0.001  0.00  0.00    +0.199 A 
ATOM     12  O   UNL     1       1.444   3.421   0.010  0.00  0.00    -0.441 OA
ENDROOT
BRANCH   6  13
ATOM     13  C   UNL     1       3.711  -0.719  -0.036  0.00  0.00    -0.014 A 
ATOM     14  C   UNL     1       4.583  -0.617   1.048  0.00  0.00    +0.010 A 
ATOM     15  C   UNL     1       5.784  -1.297   1.030  0.00  0.00    +0.020 A 
ATOM     16  C   UNL     1       6.128  -2.070  -0.065  0.00  0.00    +0.041 A 
ATOM     17  C   UNL     1       5.269  -2.170  -1.146  0.00  0.00    +0.020 A 
ATOM     18  C   UNL     1       4.064  -1.499  -1.137  0.00  0.00    +0.010 A 
ATOM     19 CL   UNL     1       7.644  -2.917  -0.084  0.00  0.00    -0.084 Cl
ENDBRANCH   6  13
BRANCH   9  20
ATOM     20  N   UNL     1      -0.982  -3.488  -0.009  0.00  0.00    -0.329 N 
ATOM     21  H   UNL     1      -1.950  -3.560  -0.001  0.00  0.00    +0.145 HD
ATOM     22  H   UNL     1      -0.437  -4.290  -0.019  0.00  0.00    +0.145 HD
ENDBRANCH   9  20
BRANCH  11  23
ATOM     23  N   UNL     1       3.353   4.892   0.001  0.00  0.00    -0.329 N 
ATOM     24  H   UNL     1       4.319   4.970  -0.008  0.00  0.00    +0.145 HD
ATOM     25  H   UNL     1       2.802   5.690   0.011  0.00  0.00    +0.145 HD
ENDBRANCH  11  23
BRANCH   1  26
ATOM     26  C   UNL     1      -2.458  -0.832   0.020  0.00  0.00    +0.345 C 
ATOM     27  O   UNL     1      -3.069  -0.737  -1.028  0.00  0.00    -0.245 OA
BRANCH  26  28
ATOM     28  O   UNL     1      -3.114  -0.740   1.196  0.00  0.00    -0.461 OA
BRANCH  28  30
ATOM     29  C   UNL     1      -5.092  -0.453   2.554  0.00  0.00    +0.048 C 
ATOM     30  C   UNL     1      -4.527  -0.531   1.135  0.00  0.00    +0.229 C 
ENDBRANCH  28  30
ENDBRANCH  26  28
ENDBRANCH   1  26
BRANCH  10  31
ATOM     31  C   UNL     1       4.846   2.244  -0.029  0.00  0.00    +0.345 C 
ATOM     32  O   UNL     1       5.438   2.166  -1.089  0.00  0.00    -0.245 OA
BRANCH  31  33
ATOM     33  O   UNL     1       5.525   2.142   1.132  0.00  0.00    -0.461 OA
BRANCH  33  34
ATOM     34  C   UNL     1       6.937   1.943   1.043  0.00  0.00    +0.229 C 
ATOM     35  C   UNL     1       7.530   1.853   2.450  0.00  0.00    +0.048 C 
ENDBRANCH  33  34
ENDBRANCH  31  33
ENDBRANCH  10  31
TORSDOF 9
