REMARK  Name = ZINC56054433
REMARK  6 active torsions:
REMARK  status: ('A' for Active; 'I' for Inactive)
REMARK    1  A    between atoms: C_3  and  C_28
REMARK    2  A    between atoms: C_5  and  C_7
REMARK    3  A    between atoms: C_9  and  C_21
REMARK    4  A    between atoms: C_11  and  C_16
REMARK    5  A    between atoms: C_11  and  O_20
REMARK    6  A    between atoms: C_21  and  C_23
REMARK                            x       y       z     vdW  Elec       q    Type
REMARK                         _______ _______ _______ _____ _____    ______ ____
ROOT
ATOM      1  C   UNL     1       1.216  -2.193  -0.021  0.00  0.00    +0.118 C 
ATOM      2  C   UNL     1       0.953  -2.699  -1.443  0.00  0.00    +0.147 C 
ATOM      3  C   UNL     1       0.853  -4.228  -1.406  0.00  0.00    +0.241 C 
ATOM      4  N   UNL     1      -0.176  -4.619  -0.440  0.00  0.00    -0.291 N 
ATOM      5  C   UNL     1      -0.457  -3.855   0.626  0.00  0.00    +0.133 C 
ATOM      6  S   UNL     1      -1.663  -4.385   1.720  0.00  0.00    -0.019 S 
ATOM      7  N   UNL     1       0.170  -2.694   0.871  0.00  0.00    -0.319 N 
ATOM      8  H   UNL     1      -0.663  -5.446  -0.575  0.00  0.00    +0.151 HD
ATOM      9  H   UNL     1      -0.077  -2.176   1.653  0.00  0.00    +0.148 HD
ENDROOT
BRANCH   1  14
ATOM     10  C   UNL     1      -0.017   1.379   0.010  0.00  0.00    +0.002 A 
ATOM     11  C   UNL     1       1.167   2.088   0.002  0.00  0.00    +0.019 A 
ATOM     12  C   UNL     1       2.385   1.407  -0.013  0.00  0.00    +0.052 A 
ATOM     13  C   UNL     1       2.397   0.010  -0.021  0.00  0.00    +0.024 A 
ATOM     14  C   UNL     1       1.206  -0.686  -0.013  0.00  0.00    -0.025 A 
ATOM     15  C   UNL     1       0.002  -0.004   0.002  0.00  0.00    +0.005 A 
BRANCH  12  16
ATOM     16  C   UNL     1       3.617   2.136  -0.021  0.00  0.00    +0.099 C 
ATOM     17  N   UNL     1       4.595   2.715  -0.028  0.00  0.00    -0.191 NA
ENDBRANCH  12  16
ENDBRANCH   1  14
BRANCH   3  18
ATOM     18  C   UNL     1       0.475  -4.750  -2.794  0.00  0.00    +0.436 C 
ATOM     19  F   UNL     1       1.455  -4.369  -3.717  0.00  0.00    -0.166 F 
ATOM     20  F   UNL     1       0.384  -6.145  -2.759  0.00  0.00    -0.166 F 
ATOM     21  F   UNL     1      -0.759  -4.211  -3.175  0.00  0.00    -0.166 F 
ENDBRANCH   3  18
BRANCH   3  22
ATOM     22  O   UNL     1       2.111  -4.779  -1.013  0.00  0.00    -0.364 OA
ATOM     23  H   UNL     1       2.120  -5.745  -0.969  0.00  0.00    +0.212 HD
ENDBRANCH   3  22
BRANCH   2  24
ATOM     24  C   UNL     1       2.085  -2.284  -2.347  0.00  0.00    +0.208 C 
ATOM     25  O   UNL     1       3.205  -2.155  -1.896  0.00  0.00    -0.288 OA
BRANCH  24  26
ATOM     26  C   UNL     1       1.843  -2.045  -3.718  0.00  0.00    +0.170 A 
ATOM     27  C   UNL     1       2.783  -1.667  -4.656  0.00  0.00    +0.053 A 
ATOM     28  C   UNL     1       2.103  -1.545  -5.875  0.00  0.00    +0.042 A 
ATOM     29  C   UNL     1       0.805  -1.846  -5.641  0.00  0.00    +0.196 A 
ATOM     30  O   UNL     1       0.653  -2.151  -4.347  0.00  0.00    -0.460 OA
ENDBRANCH  24  26
ENDBRANCH   2  24
TORSDOF 6
