REMARK  Name = ZINC35709840
REMARK  5 active torsions:
REMARK  status: ('A' for Active; 'I' for Inactive)
REMARK    1  A    between atoms: C_3  and  N_9
REMARK    2  A    between atoms: N_12  and  C_13
REMARK    3  A    between atoms: C_16  and  N_25
REMARK    4  A    between atoms: C_17  and  C_19
REMARK    5  A    between atoms: N_21  and  C_22
REMARK                            x       y       z     vdW  Elec       q    Type
REMARK                         _______ _______ _______ _____ _____    ______ ____
ROOT
ATOM      1  C   UNL     1       4.815   5.558  -0.186  0.00  0.00    +0.036 A 
ATOM      2  C   UNL     1       3.603   6.242  -0.164  0.00  0.00    +0.025 A 
ATOM      3  C   UNL     1       3.581   7.620  -0.151  0.00  0.00    +0.026 A 
ATOM      4  C   UNL     1       4.771   8.337  -0.163  0.00  0.00    +0.042 A 
ATOM      5  C   UNL     1       5.996   7.654  -0.186  0.00  0.00    +0.059 A 
ATOM      6  C   UNL     1       6.008   6.256  -0.192  0.00  0.00    +0.038 A 
ENDROOT
BRANCH   1  10
ATOM      7  N   UNL     1       3.801   2.135  -0.760  0.00  0.00    -0.268 N 
ATOM      8  C   UNL     1       3.852   3.479  -0.839  0.00  0.00    +0.308 C 
ATOM      9  O   UNL     1       3.019   4.082  -1.488  0.00  0.00    -0.252 OA
ATOM     10  N   UNL     1       4.825   4.156  -0.198  0.00  0.00    -0.269 N 
ATOM     11  H   UNL     1       4.416   1.659  -0.180  0.00  0.00    +0.156 HD
ATOM     12  H   UNL     1       5.534   3.672   0.255  0.00  0.00    +0.156 HD
BRANCH   7  15
ATOM     13  C   UNL     1       1.367   1.299  -3.388  0.00  0.00    +0.003 A 
ATOM     14  C   UNL     1       2.295   2.002  -2.644  0.00  0.00    +0.025 A 
ATOM     15  C   UNL     1       2.860   1.425  -1.515  0.00  0.00    +0.055 A 
ATOM     16  C   UNL     1       2.490   0.140  -1.136  0.00  0.00    +0.080 A 
ATOM     17  C   UNL     1       1.561  -0.559  -1.885  0.00  0.00    +0.061 A 
ATOM     18  C   UNL     1       1.000   0.021  -3.010  0.00  0.00    +0.021 A 
ATOM     19 CL   UNL     1       1.097  -2.164  -1.414  0.00  0.00    -0.082 Cl
ATOM     20 CL   UNL     1       3.194  -0.587   0.274  0.00  0.00    -0.080 Cl
ENDBRANCH   7  15
ENDBRANCH   1  10
BRANCH   4  21
ATOM     21  N   UNL     1       4.748   9.728  -0.152  0.00  0.00    -0.329 N 
ATOM     22  C   UNL     1       4.711  10.594  -1.339  0.00  0.00    +0.105 C 
ATOM     23  C   UNL     1       4.723  12.055  -0.842  0.00  0.00    +0.020 C 
ATOM     24  C   UNL     1       5.337  11.933   0.578  0.00  0.00    +0.020 C 
ATOM     25  C   UNL     1       4.751  10.578   1.053  0.00  0.00    +0.105 C 
ENDBRANCH   4  21
BRANCH   5  26
ATOM     26  C   UNL     1       7.264   8.406  -0.198  0.00  0.00    +0.246 C 
ATOM     27  O   UNL     1       7.250   9.622  -0.188  0.00  0.00    -0.270 OA
ATOM     28  N   UNL     1       8.439   7.746  -0.220  0.00  0.00    -0.308 N 
ATOM     29  H   UNL     1       8.450   6.776  -0.228  0.00  0.00    +0.149 HD
BRANCH  28  30
ATOM     30  C   UNL     1       9.699   8.493  -0.232  0.00  0.00    +0.073 C 
ATOM     31  C   UNL     1      10.794   8.016  -1.188  0.00  0.00    +0.024 C 
ATOM     32  C   UNL     1      10.942   7.791   0.318  0.00  0.00    +0.024 C 
ENDBRANCH  28  30
ENDBRANCH   5  26
TORSDOF 5
