REMARK  Name = ZINC17027684
REMARK  10 active torsions:
REMARK  status: ('A' for Active; 'I' for Inactive)
REMARK    1  A    between atoms: C_1  and  C_2
REMARK    2  A    between atoms: C_5  and  S_8
REMARK    3  A    between atoms: S_8  and  C_9
REMARK    4  A    between atoms: C_9  and  C_10
REMARK    5  A    between atoms: C_14  and  N_16
REMARK    6  A    between atoms: N_18  and  C_19
REMARK    7  A    between atoms: C_21  and  O_27
REMARK    8  A    between atoms: C_23  and  O_25
REMARK    9  A    between atoms: O_25  and  C_26
REMARK   10  A    between atoms: O_27  and  C_28
REMARK                            x       y       z     vdW  Elec       q    Type
REMARK                         _______ _______ _______ _____ _____    ______ ____
ROOT
ATOM      1  C   UNL     1      -1.389  -6.346   1.036  0.00  0.00    +0.034 A 
ATOM      2  C   UNL     1      -0.310  -6.655   0.287  0.00  0.00    +0.094 A 
ATOM      3  C   UNL     1       0.057  -8.018   0.136  0.00  0.00    +0.275 A 
ATOM      4  N   UNL     1      -0.668  -8.970   0.734  0.00  0.00    -0.173 NA
ATOM      5  C   UNL     1      -1.726  -8.652   1.466  0.00  0.00    +0.234 A 
ATOM      6  N   UNL     1      -2.099  -7.348   1.634  0.00  0.00    -0.327 N 
ATOM      7  O   UNL     1       1.030  -8.320  -0.538  0.00  0.00    -0.266 OA
ATOM      8  H   UNL     1      -2.873  -7.134   2.177  0.00  0.00    +0.169 HD
ENDROOT
BRANCH   5   9
ATOM      9  N   UNL     1      -2.438  -9.625   2.057  0.00  0.00    -0.179 NA
ATOM     10  C   UNL     1      -2.015 -10.877   2.007  0.00  0.00    +0.203 C 
ATOM     11  N   UNL     1      -0.759 -11.156   1.546  0.00  0.00    -0.326 N 
ATOM     12  N   UNL     1      -2.833 -11.891   2.417  0.00  0.00    -0.369 N 
ATOM     13  H   UNL     1      -3.757 -11.705   2.649  0.00  0.00    +0.159 HD
ATOM     14  H   UNL     1      -2.491 -12.796   2.475  0.00  0.00    +0.159 HD
ATOM     15  H   UNL     1      -0.066 -10.479   1.587  0.00  0.00    +0.169 HD
BRANCH  11  16
ATOM     16  C   UNL     1      -0.473 -12.418   1.017  0.00  0.00    +0.049 A 
ATOM     17  C   UNL     1      -1.455 -13.124   0.335  0.00  0.00    +0.071 A 
ATOM     18  C   UNL     1      -1.171 -14.376  -0.190  0.00  0.00    +0.126 A 
ATOM     19  C   UNL     1       0.094 -14.923  -0.034  0.00  0.00    +0.091 A 
ATOM     20  C   UNL     1       1.076 -14.218   0.648  0.00  0.00    +0.126 A 
ATOM     21  C   UNL     1       0.795 -12.964   1.167  0.00  0.00    +0.071 A 
BRANCH  20  22
ATOM     22  O   UNL     1       2.315 -14.755   0.801  0.00  0.00    -0.495 OA
ATOM     23  C   UNL     1       2.536 -16.049   0.234  0.00  0.00    +0.277 C 
ENDBRANCH  20  22
BRANCH  18  24
ATOM     24  O   UNL     1      -2.132 -15.066  -0.858  0.00  0.00    -0.495 OA
ATOM     25  C   UNL     1      -1.769 -16.350  -1.372  0.00  0.00    +0.277 C 
ENDBRANCH  18  24
ENDBRANCH  11  16
ENDBRANCH   5   9
BRANCH   1  26
ATOM     26  C   UNL     1      -1.804  -4.908   1.216  0.00  0.00    +0.127 C 
BRANCH  26  27
ATOM     27  S   UNL     1      -3.275  -4.573   0.209  0.00  0.00    -0.119 S 
BRANCH  27  32
ATOM     28  C   UNL     1      -4.490   1.240   1.290  0.00  0.00    +0.044 C 
ATOM     29  C   UNL     1      -4.186  -0.211   1.020  0.00  0.00    -0.050 A 
ATOM     30  C   UNL     1      -4.989  -0.935   0.157  0.00  0.00    +0.004 A 
ATOM     31  C   UNL     1      -4.714  -2.264  -0.093  0.00  0.00    +0.015 A 
ATOM     32  C   UNL     1      -3.629  -2.876   0.524  0.00  0.00    +0.008 A 
ATOM     33  C   UNL     1      -2.825  -2.146   1.391  0.00  0.00    +0.015 A 
ATOM     34  C   UNL     1      -3.103  -0.815   1.632  0.00  0.00    +0.004 A 
ENDBRANCH  27  32
ENDBRANCH  26  27
ENDBRANCH   1  26
TORSDOF 7
