REMARK  Name = ZINC42014686
REMARK  5 active torsions:
REMARK  status: ('A' for Active; 'I' for Inactive)
REMARK    1  A    between atoms: C_1  and  O_2
REMARK    2  A    between atoms: O_2  and  C_3
REMARK    3  A    between atoms: C_6  and  N_9
REMARK    4  A    between atoms: C_10  and  C_14
REMARK    5  A    between atoms: C_18  and  N_20
REMARK                            x       y       z     vdW  Elec       q    Type
REMARK                         _______ _______ _______ _____ _____    ______ ____
ROOT
ATOM      1  N   UNL     1       2.638  -2.350  -4.287  0.00  0.00    -0.193 N 
ATOM      2  C   UNL     1       3.250  -3.569  -4.283  0.00  0.00    +0.187 A 
ATOM      3  N   UNL     1       3.442  -3.904  -5.542  0.00  0.00    -0.108 NA
ATOM      4  N   UNL     1       2.998  -2.988  -6.325  0.00  0.00    -0.022 NA
ATOM      5  N   UNL     1       2.492  -2.017  -5.645  0.00  0.00    -0.039 NA
ENDROOT
BRANCH   2   6
ATOM      6  C   UNL     1       3.625  -4.363  -3.093  0.00  0.00    +0.023 A 
ATOM      7  C   UNL     1       2.861  -4.283  -1.928  0.00  0.00    +0.013 A 
ATOM      8  C   UNL     1       3.212  -5.024  -0.819  0.00  0.00    +0.018 A 
ATOM      9  C   UNL     1       4.322  -5.849  -0.856  0.00  0.00    +0.039 A 
ATOM     10  C   UNL     1       5.090  -5.936  -2.012  0.00  0.00    +0.039 A 
ATOM     11  C   UNL     1       4.740  -5.199  -3.133  0.00  0.00    +0.035 A 
ATOM     12 BR   UNL     1       4.797  -6.860   0.670  0.00  0.00    -0.048 Br
BRANCH  10  13
ATOM     13  N   UNL     1       6.211  -6.770  -2.046  0.00  0.00    -0.357 N 
ATOM     14  H   UNL     1       6.453  -7.288  -1.262  0.00  0.00    +0.142 HD
ATOM     15  H   UNL     1       6.746  -6.830  -2.852  0.00  0.00    +0.142 HD
ENDBRANCH  10  13
ENDBRANCH   2   6
BRANCH   1  19
ATOM     16  C   UNL     1       1.444  -0.103  -0.982  0.00  0.00    +0.120 A 
ATOM     17  C   UNL     1       0.601  -0.228  -2.077  0.00  0.00    +0.048 A 
ATOM     18  C   UNL     1       0.996  -0.971  -3.171  0.00  0.00    +0.031 A 
ATOM     19  C   UNL     1       2.237  -1.594  -3.176  0.00  0.00    +0.070 A 
ATOM     20  C   UNL     1       3.080  -1.469  -2.079  0.00  0.00    +0.031 A 
ATOM     21  C   UNL     1       2.686  -0.721  -0.988  0.00  0.00    +0.048 A 
BRANCH  16  23
ATOM     22  C   UNL     1      -0.237   1.237   0.034  0.00  0.00    +0.277 C 
ATOM     23  O   UNL     1       1.054   0.629   0.095  0.00  0.00    -0.495 OA
ENDBRANCH  16  23
ENDBRANCH   1  19
TORSDOF 4
