REMARK  Name = ZINC43171039
REMARK  12 active torsions:
REMARK  status: ('A' for Active; 'I' for Inactive)
REMARK    1  A    between atoms: C_1  and  C_2
REMARK    2  A    between atoms: C_2  and  C_3
REMARK    3  A    between atoms: C_2  and  C_4
REMARK    4  A    between atoms: C_8  and  C_26
REMARK    5  A    between atoms: C_9  and  N_10
REMARK    6  A    between atoms: N_13  and  C_14
REMARK    7  A    between atoms: C_14  and  C_15
REMARK    8  A    between atoms: C_15  and  C_16
REMARK    9  A    between atoms: C_19  and  S_22
REMARK   10  A    between atoms: S_22  and  N_25
REMARK   11  A    between atoms: C_26  and  C_27
REMARK   12  A    between atoms: C_26  and  C_28
REMARK                            x       y       z     vdW  Elec       q    Type
REMARK                         _______ _______ _______ _____ _____    ______ ____
ROOT
ATOM      1  N   UNL     1      -0.937  -0.206  -2.335  0.00  0.00    -0.269 N 
ATOM      2  C   UNL     1      -0.756  -1.110  -3.318  0.00  0.00    +0.304 C 
ATOM      3  O   UNL     1      -1.298  -2.196  -3.252  0.00  0.00    -0.253 OA
ATOM      4  N   UNL     1       0.026  -0.809  -4.374  0.00  0.00    -0.299 N 
ATOM      5  H   UNL     1      -0.570   0.688  -2.424  0.00  0.00    +0.156 HD
ATOM      6  H   UNL     1       0.458   0.057  -4.427  0.00  0.00    +0.150 HD
ENDROOT
BRANCH   1  12
ATOM      7  C   UNL     1      -1.039  -0.515   0.059  0.00  0.00    -0.023 A 
ATOM      8  C   UNL     1      -1.752  -0.856   1.192  0.00  0.00    +0.006 A 
ATOM      9  C   UNL     1      -3.075  -1.243   1.087  0.00  0.00    +0.001 A 
ATOM     10  C   UNL     1      -3.689  -1.290  -0.151  0.00  0.00    +0.006 A 
ATOM     11  C   UNL     1      -2.982  -0.951  -1.288  0.00  0.00    -0.023 A 
ATOM     12  C   UNL     1      -1.655  -0.556  -1.185  0.00  0.00    +0.042 A 
BRANCH   7  14
ATOM     13  C   UNL     1       0.503   1.145   1.065  0.00  0.00    +0.012 C 
ATOM     14  C   UNL     1       0.403  -0.094   0.173  0.00  0.00    +0.015 C 
ATOM     15  C   UNL     1       1.220  -1.232   0.788  0.00  0.00    +0.012 C 
ENDBRANCH   7  14
BRANCH  11  16
ATOM     16  C   UNL     1      -3.651  -1.004  -2.637  0.00  0.00    +0.015 C 
ATOM     17  C   UNL     1      -4.791  -2.025  -2.601  0.00  0.00    +0.012 C 
ATOM     18  C   UNL     1      -4.214   0.376  -2.982  0.00  0.00    +0.012 C 
ENDBRANCH  11  16
ENDBRANCH   1  12
BRANCH   4  19
ATOM     19  C   UNL     1       0.222  -1.792  -5.443  0.00  0.00    +0.110 C 
BRANCH  19  20
ATOM     20  C   UNL     1       1.145  -1.204  -6.513  0.00  0.00    +0.054 C 
BRANCH  20  21
ATOM     21  C   UNL     1       1.347  -2.215  -7.612  0.00  0.00    -0.046 A 
ATOM     22  C   UNL     1       2.388  -3.122  -7.534  0.00  0.00    +0.005 A 
ATOM     23  C   UNL     1       2.573  -4.049  -8.542  0.00  0.00    +0.029 A 
ATOM     24  C   UNL     1       1.718  -4.070  -9.628  0.00  0.00    +0.105 A 
ATOM     25  C   UNL     1       0.677  -3.164  -9.705  0.00  0.00    +0.029 A 
ATOM     26  C   UNL     1       0.489  -2.240  -8.695  0.00  0.00    +0.005 A 
BRANCH  24  27
ATOM     27  S   UNL     1       1.955  -5.251 -10.914  0.00  0.00    +0.056 S 
ATOM     28  O   UNL     1       1.351  -4.709 -12.080  0.00  0.00    -0.153 OA
ATOM     29  O   UNL     1       3.324  -5.629 -10.871  0.00  0.00    -0.153 OA
BRANCH  27  30
ATOM     30  N   UNL     1       1.080  -6.598 -10.510  0.00  0.00    -0.204 NA
ATOM     31  H   UNL     1       0.567  -6.614  -9.686  0.00  0.00    +0.144 HD
ATOM     32  H   UNL     1       1.079  -7.370 -11.097  0.00  0.00    +0.144 HD
ENDBRANCH  27  30
ENDBRANCH  24  27
ENDBRANCH  20  21
ENDBRANCH  19  20
ENDBRANCH   4  19
TORSDOF 8
