REMARK  Name = ZINC01646794
REMARK  3 active torsions:
REMARK  status: ('A' for Active; 'I' for Inactive)
REMARK    1  A    between atoms: C_3  and  N_8
REMARK    2  A    between atoms: C_6  and  N_7
REMARK    3  A    between atoms: N_8  and  C_9
REMARK                            x       y       z     vdW  Elec       q    Type
REMARK                         _______ _______ _______ _____ _____    ______ ____
ROOT
ATOM      1  N   UNL     1       1.157   3.488   0.009  0.00  0.00    -0.301 N 
ATOM      2  H   UNL     1       0.315   3.962  -0.073  0.00  0.00    +0.154 HD
ENDROOT
BRANCH   1   3
ATOM      3  C   UNL     1       2.333   4.189   0.105  0.00  0.00    +0.109 A 
ATOM      4  C   UNL     1       2.316   5.553   0.210  0.00  0.00    +0.112 A 
ATOM      5  C   UNL     1       3.533   6.244   0.314  0.00  0.00    +0.256 A 
ATOM      6  O   UNL     1       3.542   7.459   0.414  0.00  0.00    -0.268 OA
ATOM      7  N   UNL     1       4.692   5.556   0.295  0.00  0.00    -0.275 N 
ATOM      8  H   UNL     1       5.561   6.048   0.364  0.00  0.00    +0.173 HD
ATOM      9  C   UNL     1       4.691   4.215   0.185  0.00  0.00    +0.328 A 
ATOM     10  O   UNL     1       5.748   3.615   0.171  0.00  0.00    -0.247 OA
ATOM     11  N   UNL     1       3.538   3.529   0.092  0.00  0.00    -0.296 N 
ATOM     12  H   UNL     1       3.558   2.532   0.011  0.00  0.00    +0.172 HD
ENDBRANCH   1   3
BRANCH   1  15
ATOM     13  C   UNL     1       2.035   0.036   0.925  0.00  0.00    +0.024 A 
ATOM     14  C   UNL     1       2.019   1.416   0.904  0.00  0.00    +0.025 A 
ATOM     15  C   UNL     1       1.174   2.087   0.030  0.00  0.00    +0.032 A 
ATOM     16  C   UNL     1       0.345   1.370  -0.822  0.00  0.00    +0.025 A 
ATOM     17  C   UNL     1       0.361  -0.010  -0.801  0.00  0.00    +0.024 A 
ATOM     18  C   UNL     1       1.206  -0.682   0.072  0.00  0.00    +0.025 A 
BRANCH  18  19
ATOM     19  N   UNL     1       1.222  -2.081   0.094  0.00  0.00    -0.358 N 
ATOM     20  H   UNL     1       1.812  -2.550   0.705  0.00  0.00    +0.142 HD
ATOM     21  H   UNL     1       0.643  -2.582  -0.501  0.00  0.00    +0.142 HD
ENDBRANCH  18  19
ENDBRANCH   1  15
TORSDOF 3
