REMARK  Name = ZINC41629280
REMARK  7 active torsions:
REMARK  status: ('A' for Active; 'I' for Inactive)
REMARK    1  A    between atoms: C_1  and  C_2
REMARK    2  A    between atoms: C_2  and  C_3
REMARK    3  A    between atoms: C_3  and  C_5
REMARK    4  A    between atoms: C_3  and  S_16
REMARK    5  A    between atoms: N_7  and  C_8
REMARK    6  A    between atoms: S_16  and  C_17
REMARK    7  A    between atoms: C_23  and  C_25
REMARK                            x       y       z     vdW  Elec       q    Type
REMARK                         _______ _______ _______ _____ _____    ______ ____
ROOT
ATOM      1  C   UNL     1      -1.375  -0.305   0.189  0.00  0.00    +0.140 C 
ENDROOT
BRANCH   1   2
ATOM      2  C   UNL     1      -1.303  -1.790   0.433  0.00  0.00    +0.231 C 
ATOM      3  O   UNL     1      -1.498  -2.565  -0.479  0.00  0.00    -0.274 OA
ATOM      4  N   UNL     1      -1.020  -2.258   1.665  0.00  0.00    -0.285 N 
ATOM      5  H   UNL     1      -0.795  -1.640   2.378  0.00  0.00    +0.155 HD
BRANCH   4   6
ATOM      6  C   UNL     1      -1.051  -3.634   1.915  0.00  0.00    +0.035 A 
ATOM      7  C   UNL     1      -0.643  -4.529   0.935  0.00  0.00    +0.025 A 
ATOM      8  C   UNL     1      -0.674  -5.887   1.184  0.00  0.00    +0.023 A 
ATOM      9  C   UNL     1      -1.111  -6.357   2.410  0.00  0.00    +0.059 A 
ATOM     10  C   UNL     1      -1.520  -5.468   3.389  0.00  0.00    +0.061 A 
ATOM     11  C   UNL     1      -1.485  -4.107   3.146  0.00  0.00    +0.044 A 
ATOM     12 CL   UNL     1      -2.070  -6.061   4.925  0.00  0.00    -0.082 Cl
ATOM     13 CL   UNL     1      -1.149  -8.065   2.719  0.00  0.00    -0.082 Cl
ENDBRANCH   4   6
ENDBRANCH   1   2
BRANCH   1  15
ATOM     14  C   UNL     1      -0.024   1.761  -0.198  0.00  0.00    +0.005 C 
ATOM     15  C   UNL     1       0.029   0.236  -0.088  0.00  0.00    +0.020 C 
ENDBRANCH   1  15
BRANCH   1  16
ATOM     16  S   UNL     1      -2.442   0.021  -1.242  0.00  0.00    -0.075 S 
BRANCH  16  17
ATOM     17  C   UNL     1      -4.056  -0.399  -0.675  0.00  0.00    +0.170 A 
ATOM     18  N   UNL     1      -5.100  -0.374  -1.549  0.00  0.00    -0.302 N 
ATOM     19  H   UNL     1      -4.954  -0.127  -2.476  0.00  0.00    +0.171 HD
ATOM     20  C   UNL     1      -6.340  -0.695  -1.122  0.00  0.00    +0.252 A 
ATOM     21  O   UNL     1      -7.287  -0.679  -1.891  0.00  0.00    -0.268 OA
ATOM     22  C   UNL     1      -6.519  -1.049   0.227  0.00  0.00    +0.093 A 
ATOM     23  C   UNL     1      -5.436  -1.057   1.057  0.00  0.00    +0.046 A 
ATOM     24  N   UNL     1      -4.232  -0.737   0.588  0.00  0.00    -0.228 NA
ATOM     25  C   UNL     1      -5.602  -1.432   2.507  0.00  0.00    +0.066 C 
ENDBRANCH  16  17
ENDBRANCH   1  16
TORSDOF 5
