REMARK  Name = ZINC36591934
REMARK  13 active torsions:
REMARK  status: ('A' for Active; 'I' for Inactive)
REMARK    1  A    between atoms: C_1  and  C_2
REMARK    2  A    between atoms: C_2  and  C_4
REMARK    3  A    between atoms: N_6  and  C_7
REMARK    4  A    between atoms: N_6  and  C_27
REMARK    5  A    between atoms: C_7  and  C_9
REMARK    6  A    between atoms: C_7  and  C_18
REMARK    7  A    between atoms: C_10  and  O_17
REMARK    8  A    between atoms: C_12  and  O_16
REMARK    9  A    between atoms: C_14  and  O_15
REMARK   10  A    between atoms: N_20  and  C_21
REMARK   11  A    between atoms: C_27  and  C_28
REMARK   12  A    between atoms: C_27  and  C_29
REMARK   13  A    between atoms: C_27  and  C_30
REMARK                            x       y       z     vdW  Elec       q    Type
REMARK                         _______ _______ _______ _____ _____    ______ ____
ROOT
ATOM      1  C   UNL     1      -2.901   2.454  -1.331  0.00  0.00    +0.200 C 
ENDROOT
BRANCH   1   2
ATOM      2  C   UNL     1      -2.080   2.948  -0.168  0.00  0.00    +0.065 A 
ATOM      3  C   UNL     1      -0.843   2.380   0.098  0.00  0.00    +0.129 A 
ATOM      4  C   UNL     1      -0.088   2.835   1.169  0.00  0.00    +0.091 A 
ATOM      5  C   UNL     1      -0.569   3.857   1.973  0.00  0.00    +0.124 A 
ATOM      6  C   UNL     1      -1.806   4.425   1.706  0.00  0.00    +0.091 A 
ATOM      7  C   UNL     1      -2.559   3.973   0.633  0.00  0.00    +0.129 A 
BRANCH   7   8
ATOM      8  O   UNL     1      -3.769   4.533   0.369  0.00  0.00    -0.506 OA
ATOM      9  H   UNL     1      -4.509   4.102   0.819  0.00  0.00    +0.292 HD
ENDBRANCH   7   8
BRANCH   5  10
ATOM     10  O   UNL     1       0.171   4.301   3.022  0.00  0.00    -0.507 OA
ATOM     11  H   UNL     1       0.772   5.025   2.801  0.00  0.00    +0.292 HD
ENDBRANCH   5  10
BRANCH   3  12
ATOM     12  O   UNL     1      -0.372   1.379  -0.690  0.00  0.00    -0.506 OA
ATOM     13  H   UNL     1       0.239   1.675  -1.379  0.00  0.00    +0.292 HD
ENDBRANCH   3  12
ENDBRANCH   1   2
BRANCH   1  14
ATOM     14  C   UNL     1      -4.300   2.142  -0.863  0.00  0.00    +0.239 C 
ATOM     15  O   UNL     1      -4.494   1.209  -0.113  0.00  0.00    -0.273 OA
ATOM     16  N   UNL     1      -5.334   2.900  -1.278  0.00  0.00    -0.311 N 
ATOM     17  H   UNL     1      -5.179   3.646  -1.878  0.00  0.00    +0.149 HD
BRANCH  16  18
ATOM     18  C   UNL     1      -6.693   2.597  -0.823  0.00  0.00    +0.073 C 
ATOM     19  C   UNL     1      -7.306   1.525  -1.726  0.00  0.00    +0.022 C 
ATOM     20  C   UNL     1      -8.726   1.209  -1.251  0.00  0.00    +0.002 C 
ATOM     21  C   UNL     1      -9.579   2.477  -1.312  0.00  0.00    +0.000 C 
ATOM     22  C   UNL     1      -8.966   3.549  -0.409  0.00  0.00    +0.002 C 
ATOM     23  C   UNL     1      -7.546   3.865  -0.884  0.00  0.00    +0.022 C 
ENDBRANCH  16  18
ENDBRANCH   1  14
BRANCH   1  26
ATOM     24  C   UNL     1      -1.367   1.338  -2.861  0.00  0.00    +0.243 C 
ATOM     25  O   UNL     1      -0.898   0.331  -3.354  0.00  0.00    -0.270 OA
ATOM     26  N   UNL     1      -2.289   1.243  -1.882  0.00  0.00    -0.277 N 
BRANCH  26  27
ATOM     27  C   UNL     1      -2.679  -0.073  -1.369  0.00  0.00    +0.030 C 
ATOM     28  C   UNL     1      -1.740  -1.140  -1.936  0.00  0.00    +0.031 C 
ATOM     29  C   UNL     1      -2.587  -0.073   0.158  0.00  0.00    +0.031 C 
ATOM     30  C   UNL     1      -4.116  -0.381  -1.793  0.00  0.00    +0.031 C 
ENDBRANCH  26  27
BRANCH  24  32
ATOM     31  C   UNL     1      -0.655   3.762  -2.339  0.00  0.00    +0.048 C 
ATOM     32  C   UNL     1      -0.929   2.661  -3.332  0.00  0.00    +0.004 C 
ATOM     33  C   UNL     1      -0.775   2.886  -4.633  0.00  0.00    +0.017 C 
ENDBRANCH  24  32
ENDBRANCH   1  26
TORSDOF 9
