REMARK  Name = ZINC61593024
REMARK  5 active torsions:
REMARK  status: ('A' for Active; 'I' for Inactive)
REMARK    1  A    between atoms: C_1  and  N_2
REMARK    2  A    between atoms: C_8  and  S_9
REMARK    3  A    between atoms: S_9  and  C_10
REMARK    4  A    between atoms: C_13  and  N_19
REMARK    5  A    between atoms: C_15  and  C_16
REMARK                            x       y       z     vdW  Elec       q    Type
REMARK                         _______ _______ _______ _____ _____    ______ ____
ROOT
ATOM      1  C   UNL     1       0.101  -1.675   3.844  0.00  0.00    +0.030 A 
ATOM      2  C   UNL     1       0.215  -2.949   3.300  0.00  0.00    +0.018 A 
ATOM      3  C   UNL     1       0.269  -4.052   4.126  0.00  0.00    +0.024 A 
ATOM      4  C   UNL     1       0.210  -3.901   5.509  0.00  0.00    +0.025 A 
ATOM      5  C   UNL     1       0.097  -2.641   6.067  0.00  0.00    +0.039 A 
ATOM      6  C   UNL     1       0.047  -1.514   5.239  0.00  0.00    +0.079 A 
ENDROOT
BRANCH   6   7
ATOM      7  C   UNL     1      -0.068  -0.170   5.824  0.00  0.00    +0.388 C 
ATOM      8  O   UNL     1      -0.115  -0.034   7.039  0.00  0.00    -0.241 OA
ATOM      9  O   UNL     1      -0.116   0.812   5.096  0.00  0.00    -0.241 OA
ENDBRANCH   6   7
BRANCH   4  10
ATOM     10  N   UNL     1       0.265  -5.028   6.337  0.00  0.00    -0.358 N 
ATOM     11  H   UNL     1       0.344  -5.913   5.947  0.00  0.00    +0.142 HD
ATOM     12  H   UNL     1       0.225  -4.925   7.300  0.00  0.00    +0.142 HD
ENDBRANCH   4  10
BRANCH   1  13
ATOM     13  S   UNL     1       0.033  -0.266   2.788  0.00  0.00    -0.049 S 
BRANCH  13  21
ATOM     14  C   UNL     1      -1.460   2.306   1.426  0.00  0.00    +0.156 C 
ATOM     15  N   UNL     1      -2.208   1.295   2.177  0.00  0.00    -0.274 N 
ATOM     16  C   UNL     1      -3.540   1.292   2.387  0.00  0.00    +0.345 A 
ATOM     17  O   UNL     1      -4.333   2.126   1.988  0.00  0.00    -0.245 OA
ATOM     18  N   UNL     1      -3.834   0.197   3.119  0.00  0.00    -0.226 N 
ATOM     19  H   UNL     1      -4.716  -0.069   3.424  0.00  0.00    +0.194 HD
ATOM     20  N   UNL     1      -2.632  -0.483   3.358  0.00  0.00    -0.144 NA
ATOM     21  C   UNL     1      -1.672   0.181   2.784  0.00  0.00    +0.197 A 
ENDBRANCH  13  21
ENDBRANCH   1  13
TORSDOF 4
