REMARK  Name = ZINC15579372
REMARK  4 active torsions:
REMARK  status: ('A' for Active; 'I' for Inactive)
REMARK    1  A    between atoms: C_6  and  N_7
REMARK    2  A    between atoms: C_8  and  C_10
REMARK    3  A    between atoms: C_10  and  O_11
REMARK    4  A    between atoms: O_11  and  C_12
REMARK                            x       y       z     vdW  Elec       q    Type
REMARK                         _______ _______ _______ _____ _____    ______ ____
ROOT
ATOM      1  N   UNL     1      -0.011   0.966   0.007  0.00  0.00    -0.283 N 
ATOM      2  C   UNL     1      -1.211   1.579   0.018  0.00  0.00    +0.255 C 
ATOM      3  O   UNL     1      -1.276   2.787  -0.066  0.00  0.00    -0.272 OA
ATOM      4  H   UNL     1       0.039  -0.003   0.007  0.00  0.00    +0.155 HD
ENDROOT
BRANCH   1  10
ATOM      5  C   UNL     1       2.288   1.284   0.678  0.00  0.00    +0.025 A 
ATOM      6  C   UNL     1       3.451   2.027   0.662  0.00  0.00    +0.029 A 
ATOM      7  C   UNL     1       3.496   3.226  -0.032  0.00  0.00    +0.067 A 
ATOM      8  C   UNL     1       2.367   3.678  -0.719  0.00  0.00    +0.069 A 
ATOM      9  C   UNL     1       1.203   2.927  -0.705  0.00  0.00    +0.051 A 
ATOM     10  C   UNL     1       1.164   1.728  -0.009  0.00  0.00    +0.036 A 
ATOM     11  N   UNL     1       2.713   4.891  -1.310  0.00  0.00    -0.306 N 
ATOM     12  H   UNL     1       2.131   5.444  -1.854  0.00  0.00    +0.170 HD
ATOM     13  C   UNL     1       3.994   5.165  -0.998  0.00  0.00    +0.325 A 
ATOM     14  O   UNL     1       4.607   6.153  -1.358  0.00  0.00    -0.247 OA
ATOM     15  N   UNL     1       4.495   4.180  -0.229  0.00  0.00    -0.306 N 
ATOM     16  H   UNL     1       5.396   4.141   0.129  0.00  0.00    +0.170 HD
ENDBRANCH   1  10
BRANCH   2  17
ATOM     17  C   UNL     1      -2.473   0.763   0.133  0.00  0.00    +0.325 C 
BRANCH  17  18
ATOM     18  O   UNL     1      -3.606   1.634   0.122  0.00  0.00    -0.480 OA
BRANCH  18  19
ATOM     19  C   UNL     1      -4.832   1.053   0.219  0.00  0.00    +0.156 A 
ATOM     20  C   UNL     1      -4.941  -0.325   0.323  0.00  0.00    +0.050 A 
ATOM     21  C   UNL     1      -6.187  -0.913   0.423  0.00  0.00    +0.019 A 
ATOM     22  C   UNL     1      -7.327  -0.129   0.418  0.00  0.00    +0.021 A 
ATOM     23  C   UNL     1      -7.222   1.246   0.315  0.00  0.00    +0.057 A 
ATOM     24  C   UNL     1      -5.976   1.840   0.220  0.00  0.00    +0.166 A 
ATOM     25  F   UNL     1      -5.873   3.184   0.124  0.00  0.00    -0.202 F 
ATOM     26 BR   UNL     1      -9.030  -0.938   0.554  0.00  0.00    -0.050 Br
ENDBRANCH  18  19
ENDBRANCH  17  18
ENDBRANCH   2  17
TORSDOF 4
