REMARK  Name = ZINC00845730
REMARK  9 active torsions:
REMARK  status: ('A' for Active; 'I' for Inactive)
REMARK    1  A    between atoms: C_1  and  C_2
REMARK    2  A    between atoms: C_2  and  O_3
REMARK    3  A    between atoms: O_3  and  C_4
REMARK    4  A    between atoms: C_6  and  C_11
REMARK    5  A    between atoms: C_9  and  O_10
REMARK    6  A    between atoms: C_13  and  C_20
REMARK    7  A    between atoms: C_14  and  C_19
REMARK    8  A    between atoms: N_22  and  C_23
REMARK    9  A    between atoms: C_26  and  C_29
REMARK                            x       y       z     vdW  Elec       q    Type
REMARK                         _______ _______ _______ _____ _____    ______ ____
ROOT
ATOM      1  C   UNL     1      -0.465  -5.479  -1.243  0.00  0.00    +0.139 C 
ATOM      2  C   UNL     1       0.990  -5.899  -1.224  0.00  0.00    +0.056 C 
ATOM      3  C   UNL     1       1.281  -7.136  -0.767  0.00  0.00    +0.017 C 
ATOM      4  N   UNL     1       0.296  -7.978  -0.337  0.00  0.00    -0.300 N 
ATOM      5  C   UNL     1      -1.005  -7.659  -0.332  0.00  0.00    +0.135 C 
ATOM      6  S   UNL     1      -2.138  -8.810   0.234  0.00  0.00    -0.019 S 
ATOM      7  N   UNL     1      -1.450  -6.460  -0.759  0.00  0.00    -0.315 N 
ATOM      8  C   UNL     1       2.716  -7.594  -0.730  0.00  0.00    +0.061 C 
ATOM      9  H   UNL     1       0.552  -8.857  -0.018  0.00  0.00    +0.154 HD
ATOM     10  H   UNL     1      -2.397  -6.249  -0.746  0.00  0.00    +0.149 HD
ENDROOT
BRANCH   1  13
ATOM     11  C   UNL     1      -0.959  -1.868  -0.246  0.00  0.00    +0.162 A 
ATOM     12  C   UNL     1      -0.840  -3.015  -1.015  0.00  0.00    +0.055 A 
ATOM     13  C   UNL     1      -0.600  -4.233  -0.406  0.00  0.00    -0.019 A 
ATOM     14  C   UNL     1      -0.488  -4.311   0.970  0.00  0.00    +0.009 A 
ATOM     15  C   UNL     1      -0.612  -3.172   1.743  0.00  0.00    +0.049 A 
ATOM     16  C   UNL     1      -0.847  -1.947   1.138  0.00  0.00    +0.158 A 
BRANCH  16  17
ATOM     17  O   UNL     1      -0.969  -0.825   1.897  0.00  0.00    -0.503 OA
ATOM     18  H   UNL     1      -1.875  -0.637   2.179  0.00  0.00    +0.292 HD
ENDBRANCH  16  17
BRANCH  11  19
ATOM     19  O   UNL     1      -1.190  -0.669  -0.844  0.00  0.00    -0.489 OA
BRANCH  19  21
ATOM     20  C   UNL     1      -1.675   0.745  -2.743  0.00  0.00    +0.048 C 
ATOM     21  C   UNL     1      -1.356  -0.672  -2.263  0.00  0.00    +0.226 C 
ENDBRANCH  19  21
ENDBRANCH  11  19
ENDBRANCH   1  13
BRANCH   2  22
ATOM     22  C   UNL     1       2.011  -5.025  -1.670  0.00  0.00    +0.248 C 
ATOM     23  O   UNL     1       2.134  -4.789  -2.858  0.00  0.00    -0.270 OA
ATOM     24  N   UNL     1       2.847  -4.455  -0.780  0.00  0.00    -0.282 N 
ATOM     25  H   UNL     1       2.815  -4.718   0.153  0.00  0.00    +0.155 HD
BRANCH  24  26
ATOM     26  C   UNL     1       3.761  -3.484  -1.202  0.00  0.00    +0.034 A 
ATOM     27  C   UNL     1       3.437  -2.631  -2.249  0.00  0.00    +0.023 A 
ATOM     28  C   UNL     1       4.340  -1.670  -2.660  0.00  0.00    +0.005 A 
ATOM     29  C   UNL     1       5.569  -1.563  -2.036  0.00  0.00    -0.050 A 
ATOM     30  C   UNL     1       5.897  -2.413  -0.996  0.00  0.00    +0.005 A 
ATOM     31  C   UNL     1       4.997  -3.373  -0.577  0.00  0.00    +0.023 A 
ATOM     32  C   UNL     1       6.554  -0.517  -2.491  0.00  0.00    +0.044 C 
ENDBRANCH  24  26
ENDBRANCH   2  22
TORSDOF 6
