REMARK  Name = ZINC13632024
REMARK  15 active torsions:
REMARK  status: ('A' for Active; 'I' for Inactive)
REMARK    1  A    between atoms: C_1  and  C_2
REMARK    2  A    between atoms: C_2  and  O_3
REMARK    3  A    between atoms: O_3  and  C_4
REMARK    4  A    between atoms: C_9  and  N_10
REMARK    5  A    between atoms: N_10  and  C_11
REMARK    6  A    between atoms: N_10  and  S_27
REMARK    7  A    between atoms: C_11  and  C_12
REMARK    8  A    between atoms: N_14  and  C_15
REMARK    9  A    between atoms: C_19  and  C_22
REMARK   10  A    between atoms: C_20  and  C_21
REMARK   11  A    between atoms: C_22  and  O_24
REMARK   12  A    between atoms: O_24  and  C_25
REMARK   13  A    between atoms: C_25  and  C_26
REMARK   14  A    between atoms: S_27  and  C_30
REMARK   15  A    between atoms: C_33  and  C_36
REMARK                            x       y       z     vdW  Elec       q    Type
REMARK                         _______ _______ _______ _____ _____    ______ ____
ROOT
ATOM      1  N   UNL     1       5.309  -3.469   1.532  0.00  0.00    -0.191 N 
ENDROOT
BRANCH   1   7
ATOM      2  C   UNL     1       5.856  -4.249   3.756  0.00  0.00    +0.143 A 
ATOM      3  C   UNL     1       5.451  -4.693   5.003  0.00  0.00    +0.047 A 
ATOM      4  C   UNL     1       4.103  -4.806   5.293  0.00  0.00    +0.004 A 
ATOM      5  C   UNL     1       3.158  -4.476   4.339  0.00  0.00    +0.002 A 
ATOM      6  C   UNL     1       3.554  -4.028   3.094  0.00  0.00    +0.028 A 
ATOM      7  C   UNL     1       4.904  -3.918   2.794  0.00  0.00    +0.093 A 
BRANCH   2   8
ATOM      8  O   UNL     1       7.181  -4.137   3.470  0.00  0.00    -0.490 OA
BRANCH   8  10
ATOM      9  C   UNL     1       9.533  -4.304   4.001  0.00  0.00    +0.048 C 
ATOM     10  C   UNL     1       8.101  -4.494   4.504  0.00  0.00    +0.226 C 
ENDBRANCH   8  10
ENDBRANCH   2   8
ENDBRANCH   1   7
BRANCH   1  11
ATOM     11  S   UNL     1       5.678  -4.561   0.344  0.00  0.00    +0.075 S 
ATOM     12  O   UNL     1       4.989  -5.761   0.667  0.00  0.00    -0.150 OA
ATOM     13  O   UNL     1       5.499  -3.890  -0.896  0.00  0.00    -0.150 OA
BRANCH  11  14
ATOM     14  C   UNL     1       7.399  -4.916   0.479  0.00  0.00    +0.109 A 
ATOM     15  C   UNL     1       8.319  -4.160  -0.223  0.00  0.00    +0.029 A 
ATOM     16  C   UNL     1       9.669  -4.435  -0.113  0.00  0.00    +0.005 A 
ATOM     17  C   UNL     1      10.099  -5.474   0.692  0.00  0.00    -0.050 A 
ATOM     18  C   UNL     1       9.179  -6.234   1.391  0.00  0.00    +0.005 A 
ATOM     19  C   UNL     1       7.829  -5.955   1.284  0.00  0.00    +0.029 A 
ATOM     20  C   UNL     1      11.570  -5.777   0.809  0.00  0.00    +0.044 C 
ENDBRANCH  11  14
ENDBRANCH   1  11
BRANCH   1  21
ATOM     21  C   UNL     1       5.405  -2.032   1.261  0.00  0.00    +0.227 C 
BRANCH  21  22
ATOM     22  C   UNL     1       4.052  -1.506   0.856  0.00  0.00    +0.236 C 
ATOM     23  O   UNL     1       3.101  -2.257   0.798  0.00  0.00    -0.274 OA
ATOM     24  N   UNL     1       3.899  -0.201   0.557  0.00  0.00    -0.284 N 
ATOM     25  H   UNL     1       4.671   0.385   0.530  0.00  0.00    +0.155 HD
BRANCH  24  26
ATOM     26  C   UNL     1       2.624   0.310   0.285  0.00  0.00    +0.037 A 
ATOM     27  C   UNL     1       1.680  -0.483  -0.357  0.00  0.00    +0.023 A 
ATOM     28  C   UNL     1       0.420   0.016  -0.627  0.00  0.00    +0.003 A 
ATOM     29  C   UNL     1       0.090   1.305  -0.262  0.00  0.00    +0.015 A 
ATOM     30  C   UNL     1       1.031   2.111   0.383  0.00  0.00    +0.064 A 
ATOM     31  C   UNL     1       2.304   1.607   0.655  0.00  0.00    -0.015 A 
ATOM     32  C   UNL     1       3.325   2.469   1.351  0.00  0.00    +0.046 C 
BRANCH  30  33
ATOM     33  C   UNL     1       0.681   3.491   0.774  0.00  0.00    +0.339 C 
ATOM     34  O   UNL     1       1.480   4.169   1.389  0.00  0.00    -0.245 OA
BRANCH  33  35
ATOM     35  O   UNL     1      -0.524   3.999   0.450  0.00  0.00    -0.461 OA
BRANCH  35  36
ATOM     36  C   UNL     1      -0.799   5.362   0.867  0.00  0.00    +0.229 C 
ATOM     37  C   UNL     1      -2.204   5.760   0.413  0.00  0.00    +0.048 C 
ENDBRANCH  35  36
ENDBRANCH  33  35
ENDBRANCH  30  33
ENDBRANCH  24  26
ENDBRANCH  21  22
ENDBRANCH   1  21
TORSDOF 11
