REMARK  Name = ZINC12571325
REMARK  7 active torsions:
REMARK  status: ('A' for Active; 'I' for Inactive)
REMARK    1  A    between atoms: C_4  and  N_7
REMARK    2  A    between atoms: N_10  and  N_11
REMARK    3  A    between atoms: N_11  and  C_12
REMARK    4  A    between atoms: C_12  and  N_14
REMARK    5  A    between atoms: C_15  and  C_17
REMARK    6  A    between atoms: C_17  and  O_18
REMARK    7  A    between atoms: O_18  and  C_19
REMARK                            x       y       z     vdW  Elec       q    Type
REMARK                         _______ _______ _______ _____ _____    ______ ____
ROOT
ATOM      1  C   UNL     1       5.162  -2.689  -0.084  0.00  0.00    +0.153 C 
ATOM      2  S   UNL     1       6.504  -1.627  -0.102  0.00  0.00    -0.017 S 
ENDROOT
BRANCH   1   3
ATOM      3  N   UNL     1       3.910  -2.193  -0.067  0.00  0.00    -0.264 N 
ATOM      4  C   UNL     1       3.713  -0.859  -0.065  0.00  0.00    +0.256 C 
ATOM      5  O   UNL     1       4.664  -0.107  -0.078  0.00  0.00    -0.272 OA
ATOM      6  H   UNL     1       3.149  -2.795  -0.057  0.00  0.00    +0.157 HD
BRANCH   4   7
ATOM      7  C   UNL     1       2.313  -0.304  -0.047  0.00  0.00    +0.325 C 
BRANCH   7   8
ATOM      8  O   UNL     1       2.366   1.124  -0.049  0.00  0.00    -0.482 OA
BRANCH   8   9
ATOM      9  C   UNL     1       1.179   1.787  -0.033  0.00  0.00    +0.135 A 
ATOM     10  C   UNL     1      -0.012   1.077  -0.017  0.00  0.00    +0.048 A 
ATOM     11  C   UNL     1      -1.217   1.751  -0.007  0.00  0.00    +0.019 A 
ATOM     12  C   UNL     1      -1.237   3.135  -0.003  0.00  0.00    +0.019 A 
ATOM     13  C   UNL     1      -0.050   3.845  -0.019  0.00  0.00    +0.034 A 
ATOM     14  C   UNL     1       1.158   3.174  -0.034  0.00  0.00    +0.061 A 
ATOM     15 BR   UNL     1       2.780   4.146  -0.057  0.00  0.00    -0.046 Br
ATOM     16 BR   UNL     1      -2.889   4.056   0.018  0.00  0.00    -0.050 Br
ENDBRANCH   8   9
ENDBRANCH   7   8
ENDBRANCH   4   7
ENDBRANCH   1   3
BRANCH   1  17
ATOM     17  N   UNL     1       5.359  -4.023  -0.085  0.00  0.00    -0.244 N 
ATOM     18  H   UNL     1       6.260  -4.380  -0.097  0.00  0.00    +0.172 HD
BRANCH  17  22
ATOM     19  N   UNL     1       5.709  -6.723  -0.088  0.00  0.00    -0.268 N 
ATOM     20  C   UNL     1       4.456  -6.226  -0.072  0.00  0.00    +0.320 C 
ATOM     21  O   UNL     1       3.503  -6.981  -0.059  0.00  0.00    -0.251 OA
ATOM     22  N   UNL     1       4.260  -4.893  -0.070  0.00  0.00    -0.219 N 
ATOM     23  H   UNL     1       6.468  -6.123  -0.167  0.00  0.00    +0.156 HD
ATOM     24  H   UNL     1       3.358  -4.535  -0.058  0.00  0.00    +0.174 HD
BRANCH  19  28
ATOM     25  C   UNL     1       6.324 -10.833   0.199  0.00  0.00    +0.000 A 
ATOM     26  C   UNL     1       5.223 -10.346  -0.483  0.00  0.00    +0.002 A 
ATOM     27  C   UNL     1       5.017  -8.984  -0.580  0.00  0.00    +0.023 A 
ATOM     28  C   UNL     1       5.915  -8.104   0.008  0.00  0.00    +0.035 A 
ATOM     29  C   UNL     1       7.023  -8.596   0.686  0.00  0.00    +0.023 A 
ATOM     30  C   UNL     1       7.220  -9.959   0.785  0.00  0.00    +0.002 A 
ENDBRANCH  19  28
ENDBRANCH  17  22
ENDBRANCH   1  17
TORSDOF 7
