REMARK  Name = ZINC30831890
REMARK  9 active torsions:
REMARK  status: ('A' for Active; 'I' for Inactive)
REMARK    1  A    between atoms: C_3  and  N_20
REMARK    2  A    between atoms: C_5  and  N_7
REMARK    3  A    between atoms: C_8  and  C_10
REMARK    4  A    between atoms: C_21  and  C_23
REMARK    5  A    between atoms: C_23  and  S_24
REMARK    6  A    between atoms: S_24  and  C_25
REMARK    7  A    between atoms: C_26  and  C_34
REMARK    8  A    between atoms: C_28  and  C_32
REMARK    9  A    between atoms: C_29  and  N_31
REMARK                            x       y       z     vdW  Elec       q    Type
REMARK                         _______ _______ _______ _____ _____    ______ ____
ROOT
ATOM      1  C   UNL     1      -3.710   1.900   0.325  0.00  0.00    +0.004 A 
ATOM      2  C   UNL     1      -3.801   3.277   0.248  0.00  0.00    +0.023 A 
ATOM      3  C   UNL     1      -2.653   4.042   0.087  0.00  0.00    +0.035 A 
ATOM      4  C   UNL     1      -1.413   3.423   0.007  0.00  0.00    +0.046 A 
ATOM      5  C   UNL     1      -1.326   2.040   0.078  0.00  0.00    +0.035 A 
ATOM      6  C   UNL     1      -2.478   1.280   0.240  0.00  0.00    +0.023 A 
ENDROOT
BRANCH   5   7
ATOM      7  N   UNL     1      -0.079   1.412  -0.007  0.00  0.00    -0.285 N 
ATOM      8  C   UNL     1       0.936   2.014  -0.659  0.00  0.00    +0.223 C 
ATOM      9  O   UNL     1       0.740   3.047  -1.263  0.00  0.00    -0.275 OA
ATOM     10  H   UNL     1       0.074   0.427   0.458  0.00  0.00    +0.155 HD
BRANCH   8  11
ATOM     11  C   UNL     1       2.313   1.403  -0.637  0.00  0.00    +0.048 C 
ATOM     12  C   UNL     1       2.259   0.002  -1.250  0.00  0.00    +0.019 C 
ATOM     13  C   UNL     1       3.658  -0.618  -1.228  0.00  0.00    -0.009 C 
ATOM     14  C   UNL     1       4.616   0.256  -2.039  0.00  0.00    +0.007 C 
ATOM     15  C   UNL     1       4.670   1.657  -1.426  0.00  0.00    -0.009 C 
ATOM     16  C   UNL     1       3.272   2.277  -1.448  0.00  0.00    +0.019 C 
ATOM     17  C   UNL     1       5.164   1.563   0.019  0.00  0.00    +0.007 C 
ATOM     18  C   UNL     1       4.205   0.688   0.830  0.00  0.00    -0.009 C 
ATOM     19  C   UNL     1       4.151  -0.713   0.217  0.00  0.00    +0.007 C 
ATOM     20  C   UNL     1       2.807   1.308   0.808  0.00  0.00    +0.019 C 
ENDBRANCH   8  11
ENDBRANCH   5   7
BRANCH   3  21
ATOM     21  N   UNL     1      -2.746   5.436   0.009  0.00  0.00    -0.285 N 
ATOM     22  C   UNL     1      -3.672   6.091   0.737  0.00  0.00    +0.227 C 
ATOM     23  O   UNL     1      -4.480   5.468   1.392  0.00  0.00    -0.275 OA
ATOM     24  H   UNL     1      -2.062   5.997  -0.645  0.00  0.00    +0.155 HD
BRANCH  22  25
ATOM     25  C   UNL     1      -3.705   7.598   0.735  0.00  0.00    +0.172 C 
BRANCH  25  26
ATOM     26  S   UNL     1      -5.052   8.173   1.798  0.00  0.00    -0.095 S 
BRANCH  26  27
ATOM     27  C   UNL     1      -4.862   9.916   1.615  0.00  0.00    +0.117 A 
ATOM     28  C   UNL     1      -5.740  10.786   2.292  0.00  0.00    +0.085 A 
ATOM     29  C   UNL     1      -5.577  12.165   2.144  0.00  0.00    +0.043 A 
ATOM     30  C   UNL     1      -4.550  12.626   1.317  0.00  0.00    +0.092 A 
ATOM     31  C   UNL     1      -3.718  11.691   0.670  0.00  0.00    +0.135 A 
ATOM     32  N   UNL     1      -3.900  10.391   0.840  0.00  0.00    -0.224 NA
BRANCH  31  33
ATOM     33  N   UNL     1      -2.701  12.136  -0.149  0.00  0.00    -0.342 N 
ATOM     34  H   UNL     1      -2.047  11.412  -0.658  0.00  0.00    +0.144 HD
ATOM     35  H   UNL     1      -2.544  13.215  -0.295  0.00  0.00    +0.144 HD
ENDBRANCH  31  33
BRANCH  30  36
ATOM     36  C   UNL     1      -4.346  14.031   1.129  0.00  0.00    +0.103 C 
ATOM     37  N   UNL     1      -4.184  15.146   0.980  0.00  0.00    -0.191 NA
ENDBRANCH  30  36
BRANCH  28  38
ATOM     38  C   UNL     1      -6.782  10.264   3.124  0.00  0.00    +0.102 C 
ATOM     39  N   UNL     1      -7.608   9.849   3.785  0.00  0.00    -0.191 NA
ENDBRANCH  28  38
ENDBRANCH  26  27
ENDBRANCH  25  26
ENDBRANCH  22  25
ENDBRANCH   3  21
TORSDOF 9
