REMARK  Name = ZINC59383320
REMARK  7 active torsions:
REMARK  status: ('A' for Active; 'I' for Inactive)
REMARK    1  A    between atoms: C_3  and  O_8
REMARK    2  A    between atoms: C_6  and  N_7
REMARK    3  A    between atoms: O_8  and  C_9
REMARK    4  A    between atoms: N_17  and  C_20
REMARK    5  A    between atoms: C_23  and  S_26
REMARK    6  A    between atoms: S_26  and  C_29
REMARK    7  A    between atoms: C_32  and  N_35
REMARK                            x       y       z     vdW  Elec       q    Type
REMARK                         _______ _______ _______ _____ _____    ______ ____
ROOT
ATOM      1  C   UNL     1       4.757   1.493  -0.002  0.00  0.00    +0.129 A 
ATOM      2  C   UNL     1       4.827   0.107  -0.053  0.00  0.00    +0.047 A 
ATOM      3  C   UNL     1       6.052  -0.533  -0.034  0.00  0.00    +0.017 A 
ATOM      4  C   UNL     1       7.220   0.213   0.036  0.00  0.00    +0.050 A 
ATOM      5  C   UNL     1       7.153   1.622   0.087  0.00  0.00    +0.053 A 
ATOM      6  C   UNL     1       5.923   2.254   0.062  0.00  0.00    +0.060 A 
ATOM      7  C   UNL     1       8.553   2.091   0.155  0.00  0.00    +0.258 C 
ATOM      8  O   UNL     1       8.911   3.250   0.212  0.00  0.00    -0.269 OA
ATOM      9  N   UNL     1       9.364   1.017   0.143  0.00  0.00    -0.202 N 
ATOM     10  C   UNL     1       8.656  -0.124   0.074  0.00  0.00    +0.258 C 
ATOM     11  O   UNL     1       9.121  -1.246   0.048  0.00  0.00    -0.269 OA
ENDROOT
BRANCH   9  12
ATOM     12  C   UNL     1      10.763   1.080   0.195  0.00  0.00    +0.045 A 
ATOM     13  C   UNL     1      11.402   2.311   0.270  0.00  0.00    +0.026 A 
ATOM     14  C   UNL     1      12.781   2.370   0.321  0.00  0.00    +0.029 A 
ATOM     15  C   UNL     1      13.525   1.204   0.297  0.00  0.00    +0.094 A 
ATOM     16  C   UNL     1      12.892  -0.022   0.222  0.00  0.00    +0.029 A 
ATOM     17  C   UNL     1      11.513  -0.088   0.177  0.00  0.00    +0.026 A 
BRANCH  15  18
ATOM     18  S   UNL     1      15.284   1.284   0.361  0.00  0.00    +0.025 S 
ATOM     19  O   UNL     1      15.767   0.083  -0.225  0.00  0.00    -0.164 OA
ATOM     20  O   UNL     1      15.651   2.568  -0.123  0.00  0.00    -0.164 OA
BRANCH  18  21
ATOM     21  C   UNL     1      15.746   1.235   2.061  0.00  0.00    +0.094 A 
ATOM     22  C   UNL     1      15.866   2.412   2.777  0.00  0.00    +0.029 A 
ATOM     23  C   UNL     1      16.228   2.378   4.109  0.00  0.00    +0.024 A 
ATOM     24  C   UNL     1      16.472   1.160   4.730  0.00  0.00    +0.025 A 
ATOM     25  C   UNL     1      16.351  -0.021   4.008  0.00  0.00    +0.024 A 
ATOM     26  C   UNL     1      15.983   0.020   2.677  0.00  0.00    +0.029 A 
BRANCH  24  27
ATOM     27  N   UNL     1      16.839   1.121   6.077  0.00  0.00    -0.358 N 
ATOM     28  H   UNL     1      16.924   1.946   6.580  0.00  0.00    +0.142 HD
ATOM     29  H   UNL     1      17.009   0.270   6.509  0.00  0.00    +0.142 HD
ENDBRANCH  24  27
ENDBRANCH  18  21
ENDBRANCH  15  18
ENDBRANCH   9  12
BRANCH   1  30
ATOM     30  O   UNL     1       3.549   2.110  -0.021  0.00  0.00    -0.456 OA
BRANCH  30  33
ATOM     31  C   UNL     1       2.939   2.237   3.564  0.00  0.00    +0.026 A 
ATOM     32  C   UNL     1       3.558   1.987   2.355  0.00  0.00    +0.048 A 
ATOM     33  C   UNL     1       2.939   2.356   1.169  0.00  0.00    +0.129 A 
ATOM     34  C   UNL     1       1.698   2.976   1.198  0.00  0.00    +0.048 A 
ATOM     35  C   UNL     1       1.078   3.226   2.406  0.00  0.00    +0.026 A 
ATOM     36  C   UNL     1       1.697   2.857   3.593  0.00  0.00    +0.025 A 
BRANCH  36  37
ATOM     37  N   UNL     1       1.070   3.111   4.818  0.00  0.00    -0.358 N 
ATOM     38  H   UNL     1       1.503   2.853   5.647  0.00  0.00    +0.142 HD
ATOM     39  H   UNL     1       0.203   3.544   4.838  0.00  0.00    +0.142 HD
ENDBRANCH  36  37
ENDBRANCH  30  33
ENDBRANCH   1  30
TORSDOF 7
