REMARK  Name = ZINC12547699
REMARK  2 active torsions:
REMARK  status: ('A' for Active; 'I' for Inactive)
REMARK    1  A    between atoms: C_4  and  C_7
REMARK    2  A    between atoms: C_9  and  C_12
REMARK                            x       y       z     vdW  Elec       q    Type
REMARK                         _______ _______ _______ _____ _____    ______ ____
ROOT
ATOM      1  C   UNL     1       5.396  -3.947  -0.082  0.00  0.00    +0.228 C 
ATOM      2  N   UNL     1       4.861  -4.529  -1.325  0.00  0.00    -0.292 N 
ATOM      3  C   UNL     1       3.526  -4.820  -1.423  0.00  0.00    +0.183 C 
ATOM      4  N   UNL     1       2.915  -4.761  -2.646  0.00  0.00    -0.331 N 
ATOM      5  N   UNL     1       2.816  -5.156  -0.360  0.00  0.00    -0.183 NA
ATOM      6  C   UNL     1       3.423  -5.150   0.849  0.00  0.00    +0.236 A 
ATOM      7  N   UNL     1       4.676  -4.582   1.028  0.00  0.00    -0.284 N 
ATOM      8  C   UNL     1       5.020  -4.745   2.337  0.00  0.00    +0.072 A 
ATOM      9  C   UNL     1       6.148  -4.399   3.070  0.00  0.00    +0.028 A 
ATOM     10  C   UNL     1       6.154  -4.728   4.416  0.00  0.00    +0.002 A 
ATOM     11  C   UNL     1       5.088  -5.373   5.019  0.00  0.00    +0.002 A 
ATOM     12  C   UNL     1       3.953  -5.729   4.312  0.00  0.00    +0.030 A 
ATOM     13  C   UNL     1       3.925  -5.408   2.950  0.00  0.00    +0.091 A 
ATOM     14  N   UNL     1       2.988  -5.614   1.996  0.00  0.00    -0.210 NA
ATOM     15  H   UNL     1       5.453  -4.707  -2.073  0.00  0.00    +0.151 HD
ATOM     16  H   UNL     1       3.426  -4.515  -3.433  0.00  0.00    +0.145 HD
ATOM     17  H   UNL     1       1.970  -4.965  -2.726  0.00  0.00    +0.145 HD
ENDROOT
BRANCH   1  20
ATOM     18  C   UNL     1       3.696  -0.685  -0.037  0.00  0.00    +0.109 A 
ATOM     19  N   UNL     1       3.933  -1.989  -0.052  0.00  0.00    -0.240 NA
ATOM     20  C   UNL     1       5.158  -2.459  -0.066  0.00  0.00    +0.090 A 
ATOM     21  C   UNL     1       6.213  -1.600  -0.065  0.00  0.00    +0.074 A 
ATOM     22  S   UNL     1       5.359  -0.029  -0.051  0.00  0.00    -0.075 S 
BRANCH  18  26
ATOM     23  C   UNL     1      -0.017   1.379   0.010  0.00  0.00    +0.000 A 
ATOM     24  C   UNL     1       1.168   2.093   0.002  0.00  0.00    +0.001 A 
ATOM     25  C   UNL     1       2.377   1.429  -0.013  0.00  0.00    +0.010 A 
ATOM     26  C   UNL     1       2.403   0.034  -0.021  0.00  0.00    +0.007 A 
ATOM     27  C   UNL     1       1.204  -0.681  -0.013  0.00  0.00    +0.010 A 
ATOM     28  C   UNL     1       0.002  -0.004   0.002  0.00  0.00    +0.001 A 
ENDBRANCH  18  26
ENDBRANCH   1  20
TORSDOF 2
