REMARK  Name = ZINC16949030
REMARK  4 active torsions:
REMARK  status: ('A' for Active; 'I' for Inactive)
REMARK    1  A    between atoms: C_1  and  N_2
REMARK    2  A    between atoms: N_6  and  N_7
REMARK    3  A    between atoms: N_7  and  C_8
REMARK    4  A    between atoms: C_13  and  O_14
REMARK                            x       y       z     vdW  Elec       q    Type
REMARK                         _______ _______ _______ _____ _____    ______ ____
ROOT
ATOM      1  C   UNL     1      -0.018   1.461   0.010  0.00  0.00    +0.162 C 
ATOM      2  N   UNL     1       0.002  -0.004   0.002  0.00  0.00    -0.189 N 
ATOM      3  C   UNL     1      -1.093  -0.790   0.003  0.00  0.00    +0.289 C 
ATOM      4  O   UNL     1      -2.257  -0.425   0.010  0.00  0.00    -0.266 OA
ATOM      5  C   UNL     1      -0.601  -2.177  -0.007  0.00  0.00    +0.186 C 
ATOM      6  N   UNL     1      -1.317  -3.286  -0.011  0.00  0.00    -0.174 NA
ATOM      7  C   UNL     1       0.870  -2.056  -0.014  0.00  0.00    +0.167 C 
ATOM      8  N   UNL     1       1.157  -0.786  -0.014  0.00  0.00    -0.160 NA
ATOM      9  N   UNL     1       1.784  -3.108  -0.024  0.00  0.00    -0.340 N 
ATOM     10  H   UNL     1       1.468  -4.025  -0.028  0.00  0.00    +0.144 HD
ATOM     11  H   UNL     1       2.737  -2.923  -0.028  0.00  0.00    +0.144 HD
ENDROOT
BRANCH   6  12
ATOM     12  N   UNL     1      -2.605  -3.221  -0.005  0.00  0.00    -0.233 N 
ATOM     13  H   UNL     1      -3.047  -2.358   0.003  0.00  0.00    +0.175 HD
BRANCH  12  14
ATOM     14  C   UNL     1      -3.363  -4.394  -0.008  0.00  0.00    +0.090 A 
ATOM     15  C   UNL     1      -2.731  -5.631  -0.013  0.00  0.00    +0.030 A 
ATOM     16  C   UNL     1      -3.483  -6.790  -0.017  0.00  0.00    +0.022 A 
ATOM     17  C   UNL     1      -4.866  -6.722  -0.016  0.00  0.00    +0.045 A 
ATOM     18  C   UNL     1      -5.502  -5.494  -0.011  0.00  0.00    +0.067 A 
ATOM     19  C   UNL     1      -4.756  -4.327  -0.001  0.00  0.00    +0.141 A 
ATOM     20 CL   UNL     1      -5.804  -8.183  -0.020  0.00  0.00    -0.083 Cl
BRANCH  19  21
ATOM     21  O   UNL     1      -5.379  -3.119   0.010  0.00  0.00    -0.505 OA
ATOM     22  H   UNL     1      -5.564  -2.764  -0.871  0.00  0.00    +0.292 HD
ENDBRANCH  19  21
ENDBRANCH  12  14
ENDBRANCH   6  12
TORSDOF 3
