REMARK  Name = ZINC67459271
REMARK  7 active torsions:
REMARK  status: ('A' for Active; 'I' for Inactive)
REMARK    1  A    between atoms: C_1  and  C_2
REMARK    2  A    between atoms: C_5  and  C_7
REMARK    3  A    between atoms: C_7  and  C_9
REMARK    4  A    between atoms: C_7  and  N_10
REMARK    5  A    between atoms: C_16  and  C_19
REMARK    6  A    between atoms: C_19  and  C_21
REMARK    7  A    between atoms: C_19  and  O_28
REMARK                            x       y       z     vdW  Elec       q    Type
REMARK                         _______ _______ _______ _____ _____    ______ ____
ROOT
ATOM      1  N   UNL     1       2.811  -2.961  -0.915  0.00  0.00    -0.290 N 
ATOM      2  C   UNL     1       3.494  -3.975  -1.482  0.00  0.00    +0.303 C 
ATOM      3  O   UNL     1       3.234  -5.125  -1.183  0.00  0.00    -0.253 OA
ATOM      4  N   UNL     1       4.465  -3.714  -2.380  0.00  0.00    -0.286 N 
ATOM      5  C   UNL     1       4.870  -2.331  -2.664  0.00  0.00    +0.109 C 
ATOM      6  C   UNL     1       4.786  -2.094  -4.175  0.00  0.00    +0.025 C 
ATOM      7  C   UNL     1       5.617  -3.154  -4.901  0.00  0.00    +0.025 C 
ATOM      8  C   UNL     1       5.052  -4.543  -4.598  0.00  0.00    +0.025 C 
ATOM      9  C   UNL     1       5.143  -4.809  -3.088  0.00  0.00    +0.109 C 
ATOM     10  H   UNL     1       3.066  -2.043  -1.097  0.00  0.00    +0.151 HD
ENDROOT
BRANCH   1  11
ATOM     11  C   UNL     1       1.683  -3.245  -0.024  0.00  0.00    +0.137 C 
ATOM     12  C   UNL     1       2.202  -3.494   1.393  0.00  0.00    +0.036 C 
BRANCH  11  17
ATOM     13  C   UNL     1      -0.020   1.502   0.007  0.00  0.00    +0.086 C 
ATOM     14  C   UNL     1       0.000  -0.004  -0.002  0.00  0.00    +0.102 A 
ATOM     15  C   UNL     1      -1.080  -0.806  -0.002  0.00  0.00    +0.045 A 
ATOM     16  C   UNL     1      -0.603  -2.137  -0.011  0.00  0.00    +0.047 A 
ATOM     17  C   UNL     1       0.741  -2.069  -0.015  0.00  0.00    +0.125 A 
ATOM     18  O   UNL     1       1.100  -0.775  -0.016  0.00  0.00    -0.463 OA
ENDBRANCH  11  17
ENDBRANCH   1  11
BRANCH   7  19
ATOM     19  C   UNL     1       5.564  -2.899  -6.409  0.00  0.00    +0.148 C 
BRANCH  19  20
ATOM     20  C   UNL     1       6.383  -3.943  -7.124  0.00  0.00    -0.019 A 
ATOM     21  C   UNL     1       7.758  -3.822  -7.181  0.00  0.00    +0.007 A 
ATOM     22  C   UNL     1       8.510  -4.779  -7.837  0.00  0.00    +0.020 A 
ATOM     23  C   UNL     1       7.885  -5.859  -8.435  0.00  0.00    +0.041 A 
ATOM     24  C   UNL     1       6.508  -5.979  -8.377  0.00  0.00    +0.020 A 
ATOM     25  C   UNL     1       5.758  -5.024  -7.717  0.00  0.00    +0.007 A 
ATOM     26 CL   UNL     1       8.828  -7.061  -9.259  0.00  0.00    -0.084 Cl
ENDBRANCH  19  20
BRANCH  19  27
ATOM     27  O   UNL     1       6.093  -1.603  -6.692  0.00  0.00    -0.387 OA
ATOM     28  H   UNL     1       7.012  -1.484  -6.415  0.00  0.00    +0.210 HD
ENDBRANCH  19  27
ENDBRANCH   7  19
TORSDOF 5
