REMARK  Name = ZINC67320864
REMARK  6 active torsions:
REMARK  status: ('A' for Active; 'I' for Inactive)
REMARK    1  A    between atoms: C_1  and  C_2
REMARK    2  A    between atoms: C_7  and  N_8
REMARK    3  A    between atoms: N_8  and  C_9
REMARK    4  A    between atoms: C_10  and  C_12
REMARK    5  A    between atoms: N_14  and  C_15
REMARK    6  A    between atoms: C_18  and  C_21
REMARK                            x       y       z     vdW  Elec       q    Type
REMARK                         _______ _______ _______ _____ _____    ______ ____
ROOT
ATOM      1  N   UNL     1       0.091  -0.015   2.416  0.00  0.00    -0.267 N 
ATOM      2  C   UNL     1       0.037  -0.733   1.140  0.00  0.00    +0.139 C 
ATOM      3  C   UNL     1      -1.051   0.323   3.047  0.00  0.00    +0.305 C 
ATOM      4  O   UNL     1      -2.120  -0.048   2.608  0.00  0.00    -0.265 OA
ENDROOT
BRANCH   1  11
ATOM      5  C   UNL     1       1.308  -1.883   4.184  0.00  0.00    +0.046 C 
ATOM      6  C   UNL     1       1.956  -0.564   3.848  0.00  0.00    -0.028 A 
ATOM      7  C   UNL     1       3.178  -0.234   4.398  0.00  0.00    +0.020 A 
ATOM      8  C   UNL     1       3.773   0.976   4.090  0.00  0.00    +0.018 A 
ATOM      9  C   UNL     1       3.146   1.859   3.229  0.00  0.00    +0.017 A 
ATOM     10  C   UNL     1       1.923   1.535   2.675  0.00  0.00    +0.025 A 
ATOM     11  C   UNL     1       1.326   0.318   2.979  0.00  0.00    +0.039 A 
ATOM     12 BR   UNL     1       5.447   1.424   4.846  0.00  0.00    -0.050 Br
ENDBRANCH   1  11
BRANCH   3  13
ATOM     13  C   UNL     1      -1.001   1.153   4.288  0.00  0.00    +0.300 C 
ATOM     14  O   UNL     1       0.058   1.602   4.675  0.00  0.00    -0.265 OA
ATOM     15  N   UNL     1      -2.131   1.403   4.977  0.00  0.00    -0.305 N 
ATOM     16  H   UNL     1      -2.978   1.044   4.668  0.00  0.00    +0.149 HD
BRANCH  15  17
ATOM     17  C   UNL     1      -2.082   2.217   6.194  0.00  0.00    +0.073 C 
ATOM     18  C   UNL     1      -2.156   3.699   5.820  0.00  0.00    +0.022 C 
ATOM     19  C   UNL     1      -3.465   3.972   5.076  0.00  0.00    +0.005 C 
ATOM     20  C   UNL     1      -4.648   3.614   5.978  0.00  0.00    -0.014 C 
ATOM     21  C   UNL     1      -4.574   2.132   6.352  0.00  0.00    +0.005 C 
ATOM     22  C   UNL     1      -3.265   1.859   7.096  0.00  0.00    +0.022 C 
ATOM     23  C   UNL     1      -5.957   3.886   5.234  0.00  0.00    +0.007 C 
ENDBRANCH  15  17
ENDBRANCH   3  13
TORSDOF 3
