REMARK  Name = ZINC45863406
REMARK  4 active torsions:
REMARK  status: ('A' for Active; 'I' for Inactive)
REMARK    1  A    between atoms: C_3  and  N_18
REMARK    2  A    between atoms: C_6  and  N_7
REMARK    3  A    between atoms: C_8  and  C_10
REMARK    4  A    between atoms: N_21  and  C_22
REMARK                            x       y       z     vdW  Elec       q    Type
REMARK                         _______ _______ _______ _____ _____    ______ ____
ROOT
ATOM      1  C   UNL     1      -0.076   1.402  -0.324  0.00  0.00    +0.025 A 
ATOM      2  C   UNL     1       1.094   2.135  -0.353  0.00  0.00    +0.025 A 
ATOM      3  C   UNL     1       2.309   1.513  -0.102  0.00  0.00    +0.035 A 
ATOM      4  C   UNL     1       2.349   0.154   0.178  0.00  0.00    +0.025 A 
ATOM      5  C   UNL     1       1.180  -0.580   0.207  0.00  0.00    +0.025 A 
ATOM      6  C   UNL     1      -0.036   0.043  -0.044  0.00  0.00    +0.034 A 
ENDROOT
BRANCH   3   7
ATOM      7  N   UNL     1       3.496   2.257  -0.133  0.00  0.00    -0.269 N 
ATOM      8  C   UNL     1       3.507   3.528   0.315  0.00  0.00    +0.304 C 
ATOM      9  O   UNL     1       2.470   4.058   0.666  0.00  0.00    -0.253 OA
ATOM     10  N   UNL     1       4.666   4.213   0.373  0.00  0.00    -0.296 N 
ATOM     11  H   UNL     1       4.311   1.857  -0.476  0.00  0.00    +0.156 HD
ATOM     12  H   UNL     1       5.493   3.791   0.092  0.00  0.00    +0.151 HD
BRANCH  10  13
ATOM     13  C   UNL     1       4.677   5.595   0.859  0.00  0.00    +0.075 C 
ATOM     14  C   UNL     1       5.515   6.611   0.081  0.00  0.00    +0.024 C 
ATOM     15  C   UNL     1       5.984   6.124   1.454  0.00  0.00    +0.024 C 
ENDBRANCH  10  13
ENDBRANCH   3   7
BRANCH   6  16
ATOM     16  N   UNL     1      -1.222  -0.701  -0.014  0.00  0.00    -0.281 N 
ATOM     17  C   UNL     1      -2.239  -0.380  -0.838  0.00  0.00    +0.250 C 
ATOM     18  O   UNL     1      -2.094   0.493  -1.672  0.00  0.00    -0.270 OA
ATOM     19  H   UNL     1      -1.312  -1.447   0.599  0.00  0.00    +0.155 HD
BRANCH  17  20
ATOM     20  C   UNL     1      -3.531  -1.090  -0.729  0.00  0.00    +0.056 A 
ATOM     21  C   UNL     1      -3.703  -2.089   0.231  0.00  0.00    +0.029 A 
ATOM     22  C   UNL     1      -4.912  -2.747   0.329  0.00  0.00    +0.019 A 
ATOM     23  C   UNL     1      -5.953  -2.419  -0.523  0.00  0.00    +0.017 A 
ATOM     24  C   UNL     1      -5.790  -1.431  -1.477  0.00  0.00    +0.022 A 
ATOM     25  C   UNL     1      -4.587  -0.760  -1.581  0.00  0.00    +0.053 A 
ATOM     26 CL   UNL     1      -4.386   0.486  -2.774  0.00  0.00    -0.083 Cl
ATOM     27 BR   UNL     1      -5.147  -4.100   1.628  0.00  0.00    -0.050 Br
ENDBRANCH  17  20
ENDBRANCH   6  16
TORSDOF 4
