REMARK  Name = ZINC57664632
REMARK  4 active torsions:
REMARK  status: ('A' for Active; 'I' for Inactive)
REMARK    1  A    between atoms: C_4  and  C_16
REMARK    2  A    between atoms: C_5  and  C_7
REMARK    3  A    between atoms: C_7  and  N_8
REMARK    4  A    between atoms: C_10  and  N_15
REMARK                            x       y       z     vdW  Elec       q    Type
REMARK                         _______ _______ _______ _____ _____    ______ ____
ROOT
ATOM      1  C   UNL     1       1.251  -1.791   0.354  0.00  0.00    +0.160 C 
ENDROOT
BRANCH   1   2
ATOM      2  N   UNL     1       1.391  -1.984   1.800  0.00  0.00    -0.309 N 
ATOM      3  C   UNL     1       2.626  -1.939   2.368  0.00  0.00    +0.112 A 
ATOM      4  C   UNL     1       2.778  -2.116   3.707  0.00  0.00    +0.041 A 
ATOM      5  C   UNL     1       1.650  -2.346   4.514  0.00  0.00    +0.029 A 
ATOM      6  C   UNL     1       0.415  -2.390   3.937  0.00  0.00    +0.072 A 
ATOM      7  C   UNL     1       0.294  -2.198   2.551  0.00  0.00    +0.252 A 
ATOM      8  O   UNL     1      -0.808  -2.229   2.025  0.00  0.00    -0.268 OA
BRANCH   4   9
ATOM      9  N   UNL     1       4.057  -2.068   4.282  0.00  0.00    -0.357 N 
ATOM     10  H   UNL     1       4.834  -1.909   3.723  0.00  0.00    +0.142 HD
ATOM     11  H   UNL     1       4.164  -2.194   5.237  0.00  0.00    +0.142 HD
ENDBRANCH   4   9
ENDBRANCH   1   2
BRANCH   1  16
ATOM     12  C   UNL     1       1.209   1.960   0.788  0.00  0.00    +0.000 A 
ATOM     13  C   UNL     1       0.987   2.396  -0.507  0.00  0.00    +0.001 A 
ATOM     14  C   UNL     1       0.849   1.483  -1.531  0.00  0.00    +0.015 A 
ATOM     15  C   UNL     1       0.934   0.115  -1.259  0.00  0.00    +0.068 A 
ATOM     16  C   UNL     1       1.159  -0.318   0.050  0.00  0.00    -0.014 A 
ATOM     17  C   UNL     1       1.294   0.607   1.065  0.00  0.00    +0.006 A 
BRANCH  15  18
ATOM     18  C   UNL     1       0.787  -0.869  -2.349  0.00  0.00    +0.387 C 
ATOM     19  O   UNL     1       0.480  -0.495  -3.472  0.00  0.00    -0.241 OA
ATOM     20  O   UNL     1       0.973  -2.057  -2.130  0.00  0.00    -0.241 OA
ENDBRANCH  15  18
ENDBRANCH   1  16
TORSDOF 4
