REMARK  Name = ZINC06985789
REMARK  5 active torsions:
REMARK  status: ('A' for Active; 'I' for Inactive)
REMARK    1  A    between atoms: C_6  and  C_7
REMARK    2  A    between atoms: C_7  and  C_9
REMARK    3  A    between atoms: C_9  and  S_10
REMARK    4  A    between atoms: S_10  and  C_11
REMARK    5  A    between atoms: C_15  and  N_17
REMARK                            x       y       z     vdW  Elec       q    Type
REMARK                         _______ _______ _______ _____ _____    ______ ____
ROOT
ATOM      1  C   UNL     1      -2.738  -4.651   0.004  0.00  0.00    +0.192 A 
ATOM      2  N   UNL     1      -1.516  -5.163  -0.005  0.00  0.00    -0.207 NA
ATOM      3  C   UNL     1      -1.329  -6.481  -0.013  0.00  0.00    +0.122 A 
ATOM      4  C   UNL     1      -2.438  -7.322  -0.012  0.00  0.00    +0.086 A 
ATOM      5  C   UNL     1      -3.706  -6.748  -0.002  0.00  0.00    +0.122 A 
ATOM      6  N   UNL     1      -3.816  -5.422   0.011  0.00  0.00    -0.207 NA
ATOM      7  N   UNL     1      -0.047  -7.008  -0.024  0.00  0.00    -0.343 N 
ATOM      8  H   UNL     1       0.721  -6.416  -0.025  0.00  0.00    +0.144 HD
ATOM      9  H   UNL     1       0.081  -7.970  -0.030  0.00  0.00    +0.144 HD
ENDROOT
BRANCH   5  10
ATOM     10  N   UNL     1      -4.839  -7.547  -0.001  0.00  0.00    -0.343 N 
ATOM     11  H   UNL     1      -4.751  -8.513  -0.007  0.00  0.00    +0.144 HD
ATOM     12  H   UNL     1      -5.719  -7.140   0.006  0.00  0.00    +0.144 HD
ENDBRANCH   5  10
BRANCH   1  13
ATOM     13  S   UNL     1      -2.935  -2.900   0.016  0.00  0.00    -0.078 S 
BRANCH  13  14
ATOM     14  C   UNL     1      -1.235  -2.267   0.002  0.00  0.00    +0.157 C 
BRANCH  14  15
ATOM     15  C   UNL     1      -1.260  -0.761   0.011  0.00  0.00    +0.173 C 
ATOM     16  O   UNL     1      -2.320  -0.172   0.024  0.00  0.00    -0.291 OA
BRANCH  15  22
ATOM     17  C   UNL     1      -0.017   1.395   0.010  0.00  0.00    +0.012 A 
ATOM     18  C   UNL     1       1.169   2.096   0.002  0.00  0.00    +0.015 A 
ATOM     19  C   UNL     1       2.378   1.420  -0.013  0.00  0.00    +0.013 A 
ATOM     20  C   UNL     1       2.405   0.036  -0.021  0.00  0.00    +0.015 A 
ATOM     21  C   UNL     1       1.227  -0.680  -0.014  0.00  0.00    +0.012 A 
ATOM     22  C   UNL     1       0.002  -0.004   0.002  0.00  0.00    +0.018 A 
ATOM     23  I   UNL     1       4.175   2.498  -0.024  0.00  0.00    -0.044 I 
ENDBRANCH  15  22
ENDBRANCH  14  15
ENDBRANCH  13  14
ENDBRANCH   1  13
TORSDOF 5
