REMARK  Name = ZINC09315130
REMARK  5 active torsions:
REMARK  status: ('A' for Active; 'I' for Inactive)
REMARK    1  A    between atoms: C_1  and  C_2
REMARK    2  A    between atoms: C_5  and  C_8
REMARK    3  A    between atoms: C_10  and  C_13
REMARK    4  A    between atoms: C_13  and  S_14
REMARK    5  A    between atoms: S_14  and  C_15
REMARK                            x       y       z     vdW  Elec       q    Type
REMARK                         _______ _______ _______ _____ _____    ______ ____
ROOT
ATOM      1  C   UNL     1       5.590   6.530  -0.591  0.00  0.00    +0.202 A 
ATOM      2  N   UNL     1       4.672   5.659  -1.068  0.00  0.00    -0.191 NA
ATOM      3  C   UNL     1       4.114   5.122  -0.011  0.00  0.00    +0.238 A 
ATOM      4  O   UNL     1       4.702   5.662   1.061  0.00  0.00    -0.337 OA
ATOM      5  N   UNL     1       5.543   6.465   0.714  0.00  0.00    -0.056 NA
ENDROOT
BRANCH   1  10
ATOM      6  C   UNL     1       9.075   9.879  -3.723  0.00  0.00    +0.044 C 
ATOM      7  C   UNL     1       8.163   9.003  -2.904  0.00  0.00    -0.050 A 
ATOM      8  C   UNL     1       8.227   9.043  -1.523  0.00  0.00    +0.004 A 
ATOM      9  C   UNL     1       7.394   8.243  -0.767  0.00  0.00    +0.012 A 
ATOM     10  C   UNL     1       6.488   7.393  -1.398  0.00  0.00    +0.022 A 
ATOM     11  C   UNL     1       6.432   7.353  -2.790  0.00  0.00    +0.012 A 
ATOM     12  C   UNL     1       7.265   8.162  -3.536  0.00  0.00    +0.004 A 
ENDBRANCH   1  10
BRANCH   3  13
ATOM     13  C   UNL     1       3.021   4.086  -0.005  0.00  0.00    +0.174 C 
BRANCH  13  14
ATOM     14  S   UNL     1       3.756   2.432  -0.022  0.00  0.00    -0.096 S 
BRANCH  14  15
ATOM     15  C   UNL     1       2.295   1.447  -0.012  0.00  0.00    +0.109 A 
ATOM     16  C   UNL     1       2.384   0.027  -0.021  0.00  0.00    +0.040 A 
ATOM     17  C   UNL     1       3.556  -0.830  -0.036  0.00  0.00    +0.020 A 
ATOM     18  C   UNL     1       3.393  -2.162  -0.041  0.00  0.00    +0.048 A 
ATOM     19  S   UNL     1       1.622  -2.365  -0.025  0.00  0.00    -0.077 S 
ATOM     20  C   UNL     1       1.148  -0.656  -0.012  0.00  0.00    +0.112 A 
ATOM     21  N   UNL     1       0.002  -0.004   0.002  0.00  0.00    -0.228 NA
ATOM     22  C   UNL     1      -0.016   1.315   0.009  0.00  0.00    +0.223 A 
ATOM     23  N   UNL     1       1.101   2.019   0.002  0.00  0.00    -0.229 NA
ENDBRANCH  14  15
ENDBRANCH  13  14
ENDBRANCH   3  13
TORSDOF 4
