REMARK  Name = ZINC08575891
REMARK  6 active torsions:
REMARK  status: ('A' for Active; 'I' for Inactive)
REMARK    1  A    between atoms: C_9  and  O_11
REMARK    2  A    between atoms: O_11  and  C_12
REMARK    3  A    between atoms: C_14  and  O_27
REMARK    4  A    between atoms: C_16  and  O_26
REMARK    5  A    between atoms: C_18  and  O_25
REMARK    6  A    between atoms: C_20  and  C_23
REMARK                            x       y       z     vdW  Elec       q    Type
REMARK                         _______ _______ _______ _____ _____    ______ ____
ROOT
ATOM      1  C   UNL     1      -3.692   5.916   0.071  0.00  0.00    +0.340 C 
ATOM      2  C   UNL     1      -3.493   7.428   0.203  0.00  0.00    +0.214 C 
ATOM      3  C   UNL     1      -4.858   8.122   0.159  0.00  0.00    +0.180 C 
ATOM      4  C   UNL     1      -5.570   7.741  -1.142  0.00  0.00    +0.186 C 
ATOM      5  C   UNL     1      -5.689   6.217  -1.222  0.00  0.00    +0.266 C 
ATOM      6  O   UNL     1      -4.387   5.633  -1.145  0.00  0.00    -0.322 OA
ENDROOT
BRANCH   5   7
ATOM      7  C   UNL     1      -6.336   5.831  -2.528  0.00  0.00    +0.387 C 
ATOM      8  O   UNL     1      -5.711   5.204  -3.350  0.00  0.00    -0.243 OA
ATOM      9  O   UNL     1      -7.607   6.184  -2.777  0.00  0.00    -0.243 OA
ENDBRANCH   5   7
BRANCH   4  10
ATOM     10  O   UNL     1      -4.815   8.220  -2.257  0.00  0.00    -0.386 OA
ATOM     11  H   UNL     1      -5.209   8.014  -3.116  0.00  0.00    +0.210 HD
ENDBRANCH   4  10
BRANCH   3  12
ATOM     12  O   UNL     1      -4.676   9.538   0.208  0.00  0.00    -0.386 OA
ATOM     13  H   UNL     1      -4.224   9.850   1.004  0.00  0.00    +0.210 HD
ENDBRANCH   3  12
BRANCH   2  14
ATOM     14  O   UNL     1      -2.848   7.718   1.445  0.00  0.00    -0.383 OA
ATOM     15  H   UNL     1      -1.979   7.306   1.543  0.00  0.00    +0.210 HD
ENDBRANCH   2  14
BRANCH   1  16
ATOM     16  O   UNL     1      -2.419   5.267   0.055  0.00  0.00    -0.459 OA
BRANCH  16  25
ATOM     17  C   UNL     1      -3.622   1.831   0.048  0.00  0.00    +0.004 A 
ATOM     18  C   UNL     1      -2.464   1.113   0.032  0.00  0.00    +0.010 A 
ATOM     19  C   UNL     1      -1.230   1.783   0.018  0.00  0.00    +0.004 A 
ATOM     20  C   UNL     1      -0.013   1.076   0.008  0.00  0.00    +0.011 A 
ATOM     21  C   UNL     1       1.149   1.794   0.001  0.00  0.00    +0.020 A 
ATOM     22  C   UNL     1       1.106   3.186   0.009  0.00  0.00    +0.111 A 
ATOM     23  N   UNL     1      -0.029   3.841   0.023  0.00  0.00    -0.251 NA
ATOM     24  C   UNL     1      -1.201   3.199   0.031  0.00  0.00    +0.113 A 
ATOM     25  C   UNL     1      -2.420   3.909   0.047  0.00  0.00    +0.150 A 
ATOM     26  C   UNL     1      -3.601   3.222   0.055  0.00  0.00    +0.048 A 
ENDBRANCH  16  25
ENDBRANCH   1  16
TORSDOF 6
