REMARK  Name = ZINC03876666
REMARK  6 active torsions:
REMARK  status: ('A' for Active; 'I' for Inactive)
REMARK    1  A    between atoms: C_1  and  C_2
REMARK    2  A    between atoms: C_2  and  C_16
REMARK    3  A    between atoms: C_3  and  N_10
REMARK    4  A    between atoms: N_5  and  N_9
REMARK    5  A    between atoms: N_10  and  O_15
REMARK    6  A    between atoms: N_13  and  C_14
REMARK                            x       y       z     vdW  Elec       q    Type
REMARK                         _______ _______ _______ _____ _____    ______ ____
ROOT
ATOM      1  C   UNL     1       0.415   6.441   0.349  0.00  0.00    +0.026 C 
ATOM      2  C   UNL     1       0.277   5.139  -0.442  0.00  0.00    +0.056 C 
ATOM      3  C   UNL     1      -0.861   4.264   0.121  0.00  0.00    +0.224 C 
ATOM      4  N   UNL     1      -0.405   2.986   0.619  0.00  0.00    -0.233 N 
ATOM      5  C   UNL     1       0.894   2.655   0.577  0.00  0.00    +0.125 C 
ATOM      6  S   UNL     1       1.607   1.197   1.121  0.00  0.00    -0.027 S 
ATOM      7  S   UNL     1       1.722   4.044  -0.170  0.00  0.00    -0.092 S 
ATOM      8  C   UNL     1       0.071   5.421  -1.932  0.00  0.00    +0.026 C 
ENDROOT
BRANCH   3   9
ATOM      9  N   UNL     1      -1.518   4.990   1.211  0.00  0.00    -0.144 N 
ATOM     10  C   UNL     1      -2.718   5.568   1.008  0.00  0.00    +0.327 C 
ATOM     11  O   UNL     1      -3.214   5.566  -0.103  0.00  0.00    -0.250 OA
ATOM     12  N   UNL     1      -3.369   6.148   2.035  0.00  0.00    -0.301 N 
ATOM     13  C   UNL     1      -4.721   6.678   1.840  0.00  0.00    +0.130 C 
ATOM     14  H   UNL     1      -2.943   6.214   2.904  0.00  0.00    +0.150 HD
BRANCH   9  15
ATOM     15  O   UNL     1      -0.891   5.086   2.477  0.00  0.00    -0.289 OA
ATOM     16  H   UNL     1      -1.434   5.515   3.153  0.00  0.00    +0.242 HD
ENDBRANCH   9  15
ENDBRANCH   3   9
BRANCH   4  17
ATOM     17  N   UNL     1      -1.308   2.106   1.142  0.00  0.00    -0.251 NA
ATOM     18  H   UNL     1      -0.852   1.261   1.452  0.00  0.00    +0.141 HD
ATOM     19  H   UNL     1      -1.833   2.529   1.893  0.00  0.00    +0.141 HD
ENDBRANCH   4  17
TORSDOF 3
