REMARK  Name = ZINC20693634
REMARK  9 active torsions:
REMARK  status: ('A' for Active; 'I' for Inactive)
REMARK    1  A    between atoms: C_1  and  C_2
REMARK    2  A    between atoms: C_2  and  C_3
REMARK    3  A    between atoms: C_2  and  C_4
REMARK    4  A    between atoms: C_2  and  N_5
REMARK    5  A    between atoms: C_6  and  C_8
REMARK    6  A    between atoms: C_21  and  C_24
REMARK    7  A    between atoms: C_27  and  O_32
REMARK    8  A    between atoms: C_28  and  O_30
REMARK    9  A    between atoms: O_30  and  C_31
REMARK                            x       y       z     vdW  Elec       q    Type
REMARK                         _______ _______ _______ _____ _____    ______ ____
ROOT
ATOM      1  C   UNL     1       5.857   4.060  -5.042  0.00  0.00    +0.037 A 
ATOM      2  C   UNL     1       6.680   2.993  -4.670  0.00  0.00    +0.015 A 
ATOM      3  C   UNL     1       6.692   2.555  -3.368  0.00  0.00    +0.024 A 
ATOM      4  C   UNL     1       5.890   3.167  -2.408  0.00  0.00    +0.031 A 
ATOM      5  C   UNL     1       5.056   4.231  -2.784  0.00  0.00    -0.019 A 
ATOM      6  C   UNL     1       5.045   4.673  -4.084  0.00  0.00    +0.019 A 
ATOM      7  C   UNL     1       4.207   4.837  -1.735  0.00  0.00    +0.049 C 
ATOM      8  C   UNL     1       3.748   6.248  -1.813  0.00  0.00    -0.023 C 
ATOM      9  C   UNL     1       3.629   6.724  -0.580  0.00  0.00    -0.030 C 
ATOM     10  C   UNL     1       4.041   5.655   0.435  0.00  0.00    +0.033 C 
ATOM     11  C   UNL     1       5.002   4.795  -0.395  0.00  0.00    +0.029 C 
ATOM     12  C   UNL     1       5.107   3.325  -0.034  0.00  0.00    +0.105 C 
ATOM     13  N   UNL     1       5.941   2.713  -1.090  0.00  0.00    -0.336 N 
ATOM     14  H   UNL     1       6.619   1.882  -0.844  0.00  0.00    +0.147 HD
ENDROOT
BRANCH  12  15
ATOM     15  C   UNL     1       3.738   2.693  -0.020  0.00  0.00    -0.023 A 
ATOM     16  C   UNL     1       3.238   2.106  -1.167  0.00  0.00    +0.009 A 
ATOM     17  C   UNL     1       1.984   1.525  -1.160  0.00  0.00    +0.049 A 
ATOM     18  C   UNL     1       1.224   1.531  -0.001  0.00  0.00    +0.158 A 
ATOM     19  C   UNL     1       1.725   2.128   1.152  0.00  0.00    +0.162 A 
ATOM     20  C   UNL     1       2.986   2.703   1.139  0.00  0.00    +0.054 A 
BRANCH  19  21
ATOM     21  O   UNL     1       0.981   2.142   2.291  0.00  0.00    -0.491 OA
ATOM     22  C   UNL     1       1.559   2.772   3.436  0.00  0.00    +0.277 C 
ENDBRANCH  19  21
BRANCH  18  23
ATOM     23  O   UNL     1      -0.010   0.960   0.008  0.00  0.00    -0.503 OA
ATOM     24  H   UNL     1      -0.612   0.966   0.929  0.00  0.00    +0.292 HD
ENDBRANCH  18  23
ENDBRANCH  12  15
BRANCH   1  26
ATOM     25  N   UNL     1       6.629   3.942  -7.360  0.00  0.00    -0.307 N 
ATOM     26  C   UNL     1       5.845   4.536  -6.438  0.00  0.00    +0.244 C 
ATOM     27  O   UNL     1       5.128   5.464  -6.758  0.00  0.00    -0.270 OA
ATOM     28  H   UNL     1       7.278   3.102  -7.070  0.00  0.00    +0.150 HD
BRANCH  25  30
ATOM     29  C   UNL     1       7.045   5.883  -8.788  0.00  0.00    +0.031 C 
ATOM     30  C   UNL     1       6.617   4.414  -8.746  0.00  0.00    +0.026 C 
ATOM     31  C   UNL     1       7.589   3.576  -9.579  0.00  0.00    +0.031 C 
ATOM     32  C   UNL     1       5.205   4.278  -9.319  0.00  0.00    +0.031 C 
ENDBRANCH  25  30
ENDBRANCH   1  26
TORSDOF 5
