REMARK  Name = ZINC51993824
REMARK  6 active torsions:
REMARK  status: ('A' for Active; 'I' for Inactive)
REMARK    1  A    between atoms: C_1  and  C_2
REMARK    2  A    between atoms: C_5  and  S_9
REMARK    3  A    between atoms: C_6  and  N_8
REMARK    4  A    between atoms: S_9  and  N_12
REMARK    5  A    between atoms: N_12  and  C_13
REMARK    6  A    between atoms: C_19  and  O_21
REMARK                            x       y       z     vdW  Elec       q    Type
REMARK                         _______ _______ _______ _____ _____    ______ ____
ROOT
ATOM      1  S   UNL     1       0.101  -4.517   0.041  0.00  0.00    +0.060 S 
ATOM      2  O   UNL     1      -0.828  -4.979   1.012  0.00  0.00    -0.153 OA
ATOM      3  O   UNL     1      -0.053  -4.781  -1.347  0.00  0.00    -0.153 OA
ENDROOT
BRANCH   1   8
ATOM      4  C   UNL     1       0.373   1.485   0.642  0.00  0.00    +0.044 C 
ATOM      5  C   UNL     1       0.308  -0.013   0.489  0.00  0.00    -0.049 A 
ATOM      6  C   UNL     1      -0.554  -0.751   1.279  0.00  0.00    +0.005 A 
ATOM      7  C   UNL     1      -0.617  -2.125   1.142  0.00  0.00    +0.030 A 
ATOM      8  C   UNL     1       0.181  -2.765   0.214  0.00  0.00    +0.126 A 
ATOM      9  C   UNL     1       1.048  -2.027  -0.581  0.00  0.00    +0.051 A 
ATOM     10  C   UNL     1       1.105  -0.646  -0.444  0.00  0.00    +0.028 A 
BRANCH   9  11
ATOM     11  N   UNL     1       1.857  -2.671  -1.520  0.00  0.00    -0.356 N 
ATOM     12  H   UNL     1       1.766  -3.626  -1.665  0.00  0.00    +0.142 HD
ATOM     13  H   UNL     1       2.510  -2.164  -2.027  0.00  0.00    +0.142 HD
ENDBRANCH   9  11
ENDBRANCH   1   8
BRANCH   1  14
ATOM     14  N   UNL     1       1.581  -5.121   0.476  0.00  0.00    -0.184 NA
ATOM     15  H   UNL     1       2.134  -5.570  -0.182  0.00  0.00    +0.148 HD
BRANCH  14  16
ATOM     16  C   UNL     1       2.054  -4.976   1.855  0.00  0.00    +0.105 C 
ATOM     17  C   UNL     1       2.974  -3.758   1.953  0.00  0.00    +0.023 C 
ATOM     18  C   UNL     1       4.172  -3.946   1.020  0.00  0.00    +0.002 C 
ATOM     19  C   UNL     1       4.944  -5.202   1.428  0.00  0.00    +0.003 C 
ATOM     20  C   UNL     1       4.024  -6.421   1.329  0.00  0.00    +0.033 C 
ATOM     21  C   UNL     1       2.826  -6.232   2.263  0.00  0.00    +0.133 C 
BRANCH  21  22
ATOM     22  O   UNL     1       1.967  -7.371   2.171  0.00  0.00    -0.390 OA
ATOM     23  H   UNL     1       2.391  -8.204   2.416  0.00  0.00    +0.210 HD
ENDBRANCH  21  22
ENDBRANCH  14  16
ENDBRANCH   1  14
TORSDOF 5
