REMARK  Name = ZINC13110660
REMARK  7 active torsions:
REMARK  status: ('A' for Active; 'I' for Inactive)
REMARK    1  A    between atoms: C_1  and  C_2
REMARK    2  A    between atoms: C_3  and  N_11
REMARK    3  A    between atoms: C_4  and  O_10
REMARK    4  A    between atoms: N_5  and  C_7
REMARK    5  A    between atoms: C_7  and  N_8
REMARK    6  A    between atoms: N_12  and  C_13
REMARK    7  A    between atoms: C_15  and  C_20
REMARK                            x       y       z     vdW  Elec       q    Type
REMARK                         _______ _______ _______ _____ _____    ______ ____
ROOT
ATOM      1  C   UNL     1      -0.018   1.503   0.010  0.00  0.00    +0.070 C 
ATOM      2  C   UNL     1       0.002  -0.004   0.002  0.00  0.00    +0.091 A 
ATOM      3  C   UNL     1       0.008  -0.826  -1.151  0.00  0.00    +0.170 A 
ATOM      4  C   UNL     1       0.028  -2.144  -0.713  0.00  0.00    +0.245 A 
ATOM      5  N   UNL     1       0.034  -2.111   0.648  0.00  0.00    -0.177 N 
ATOM      6  N   UNL     1       0.023  -0.772   1.055  0.00  0.00    -0.165 NA
ENDROOT
BRANCH   5   7
ATOM      7  C   UNL     1       0.051  -3.183   1.464  0.00  0.00    +0.167 C 
ATOM      8  S   UNL     1       0.069  -4.762   0.802  0.00  0.00    -0.014 S 
BRANCH   7   9
ATOM      9  N   UNL     1       0.055  -3.013   2.801  0.00  0.00    -0.337 N 
ATOM     10  H   UNL     1       0.045  -2.119   3.176  0.00  0.00    +0.144 HD
ATOM     11  H   UNL     1       0.068  -3.785   3.388  0.00  0.00    +0.144 HD
ENDBRANCH   7   9
ENDBRANCH   5   7
BRANCH   4  12
ATOM     12  O   UNL     1       0.039  -3.251  -1.491  0.00  0.00    -0.491 OA
ATOM     13  H   UNL     1       0.926  -3.561  -1.721  0.00  0.00    +0.294 HD
ENDBRANCH   4  12
BRANCH   3  14
ATOM     14  N   UNL     1      -0.004  -0.404  -2.445  0.00  0.00    -0.142 NA
ATOM     15  N   UNL     1       0.003  -1.266  -3.405  0.00  0.00    -0.148 NA
BRANCH  15  16
ATOM     16  C   UNL     1      -0.009  -0.842  -4.705  0.00  0.00    +0.105 A 
ATOM     17  C   UNL     1      -0.023   0.524  -4.998  0.00  0.00    +0.043 A 
ATOM     18  C   UNL     1      -0.035   0.945  -6.311  0.00  0.00    +0.057 A 
ATOM     19  C   UNL     1      -0.034   0.018  -7.339  0.00  0.00    +0.014 A 
ATOM     20  C   UNL     1      -0.020  -1.337  -7.058  0.00  0.00    +0.023 A 
ATOM     21  C   UNL     1      -0.001  -1.773  -5.748  0.00  0.00    +0.068 A 
ATOM     22 CL   UNL     1       0.025  -3.473  -5.396  0.00  0.00    -0.081 Cl
BRANCH  18  23
ATOM     23  C   UNL     1      -0.051   2.418  -6.628  0.00  0.00    +0.417 C 
ATOM     24  F   UNL     1       1.263   2.886  -6.735  0.00  0.00    -0.166 F 
ATOM     25  F   UNL     1      -0.720   2.627  -7.839  0.00  0.00    -0.166 F 
ATOM     26  F   UNL     1      -0.711   3.108  -5.606  0.00  0.00    -0.166 F 
ENDBRANCH  18  23
ENDBRANCH  15  16
ENDBRANCH   3  14
TORSDOF 6
