REMARK  Name = ZINC67040346
REMARK  7 active torsions:
REMARK  status: ('A' for Active; 'I' for Inactive)
REMARK    1  A    between atoms: C_4  and  C_22
REMARK    2  A    between atoms: C_5  and  C_7
REMARK    3  A    between atoms: C_7  and  N_8
REMARK    4  A    between atoms: N_11  and  N_12
REMARK    5  A    between atoms: C_13  and  C_15
REMARK    6  A    between atoms: C_15  and  C_16
REMARK    7  A    between atoms: C_22  and  N_23
REMARK                            x       y       z     vdW  Elec       q    Type
REMARK                         _______ _______ _______ _____ _____    ______ ____
ROOT
ATOM      1  N   UNL     1       1.490  -2.679   1.334  0.00  0.00    -0.294 N 
ATOM      2  C   UNL     1       1.553  -4.004   1.569  0.00  0.00    +0.316 C 
ATOM      3  O   UNL     1       1.394  -4.791   0.656  0.00  0.00    -0.251 OA
ATOM      4  N   UNL     1       1.793  -4.457   2.815  0.00  0.00    -0.218 N 
ATOM      5  H   UNL     1       1.617  -2.051   2.063  0.00  0.00    +0.151 HD
ATOM      6  H   UNL     1       1.838  -5.412   2.984  0.00  0.00    +0.174 HD
ENDROOT
BRANCH   4   7
ATOM      7  N   UNL     1       1.976  -3.551   3.867  0.00  0.00    -0.233 N 
ATOM      8  C   UNL     1       2.216  -4.004   5.114  0.00  0.00    +0.229 C 
ATOM      9  O   UNL     1       2.273  -5.197   5.324  0.00  0.00    -0.274 OA
ATOM     10  H   UNL     1       1.931  -2.596   3.699  0.00  0.00    +0.173 HD
BRANCH   8  11
ATOM     11  C   UNL     1       2.414  -3.028   6.245  0.00  0.00    +0.101 C 
BRANCH  11  12
ATOM     12  C   UNL     1       2.668  -3.797   7.543  0.00  0.00    -0.002 C 
ATOM     13  C   UNL     1       1.419  -4.600   7.913  0.00  0.00    +0.004 C 
ATOM     14  C   UNL     1       1.673  -5.369   9.211  0.00  0.00    +0.000 C 
ATOM     15  C   UNL     1       1.996  -4.381  10.334  0.00  0.00    +0.000 C 
ATOM     16  C   UNL     1       3.245  -3.579   9.964  0.00  0.00    +0.000 C 
ATOM     17  C   UNL     1       2.991  -2.810   8.666  0.00  0.00    +0.004 C 
ENDBRANCH  11  12
ENDBRANCH   8  11
ENDBRANCH   4   7
BRANCH   1  18
ATOM     18  C   UNL     1       1.229  -2.186  -0.020  0.00  0.00    +0.141 C 
BRANCH  18  23
ATOM     19  C   UNL     1      -0.017   1.378   0.010  0.00  0.00    +0.000 A 
ATOM     20  C   UNL     1       1.171   2.085   0.002  0.00  0.00    +0.000 A 
ATOM     21  C   UNL     1       2.377   1.411  -0.013  0.00  0.00    +0.002 A 
ATOM     22  C   UNL     1       2.396   0.028  -0.020  0.00  0.00    -0.059 A 
ATOM     23  C   UNL     1       1.209  -0.679  -0.012  0.00  0.00    -0.029 A 
ATOM     24  C   UNL     1       0.002  -0.004   0.002  0.00  0.00    +0.005 A 
BRANCH  22  25
ATOM     25  C   UNL     1       3.711  -0.707  -0.038  0.00  0.00    -0.043 C 
BRANCH  25  26
ATOM     26  N   UNL     1       4.007  -1.149  -1.407  0.00  0.00    +0.382 N 
ATOM     27  C   UNL     1       4.197   0.024  -2.268  0.00  0.00    -0.078 C 
ATOM     28  C   UNL     1       4.425  -0.430  -3.712  0.00  0.00    -0.019 C 
ATOM     29  C   UNL     1       5.672  -1.316  -3.771  0.00  0.00    -0.004 C 
ATOM     30  C   UNL     1       5.493  -2.498  -2.813  0.00  0.00    -0.019 C 
ATOM     31  C   UNL     1       5.226  -1.967  -1.403  0.00  0.00    -0.078 C 
ATOM     32  H   UNL     1       3.236  -1.699  -1.756  0.00  0.00    -0.081 HD
ENDBRANCH  25  26
ENDBRANCH  22  25
ENDBRANCH  18  23
ENDBRANCH   1  18
TORSDOF 7
