REMARK  Name = ZINC20679312
REMARK  7 active torsions:
REMARK  status: ('A' for Active; 'I' for Inactive)
REMARK    1  A    between atoms: C_4  and  C_7
REMARK    2  A    between atoms: C_7  and  C_8
REMARK    3  A    between atoms: C_8  and  N_9
REMARK    4  A    between atoms: N_9  and  S_10
REMARK    5  A    between atoms: S_10  and  C_13
REMARK    6  A    between atoms: C_26  and  C_29
REMARK    7  A    between atoms: C_32  and  O_35
REMARK                            x       y       z     vdW  Elec       q    Type
REMARK                         _______ _______ _______ _____ _____    ______ ____
ROOT
ATOM      1  C   UNL     1      -5.305   2.292   1.000  0.00  0.00    +0.106 A 
ATOM      2  C   UNL     1      -5.170   3.361   1.868  0.00  0.00    +0.030 A 
ATOM      3  C   UNL     1      -3.913   3.748   2.286  0.00  0.00    +0.025 A 
ATOM      4  C   UNL     1      -2.790   3.066   1.835  0.00  0.00    +0.031 A 
ATOM      5  C   UNL     1      -2.923   1.993   0.956  0.00  0.00    -0.018 A 
ATOM      6  C   UNL     1      -4.190   1.614   0.553  0.00  0.00    +0.034 A 
ATOM      7  C   UNL     1      -1.742   1.229   0.448  0.00  0.00    +0.049 C 
ATOM      8  C   UNL     1      -1.432   1.583  -0.988  0.00  0.00    -0.023 C 
ATOM      9  C   UNL     1      -0.136   1.586  -1.185  0.00  0.00    -0.030 C 
ATOM     10  C   UNL     1       0.597   1.228   0.094  0.00  0.00    +0.033 C 
ATOM     11  C   UNL     1      -0.438   1.558   1.210  0.00  0.00    +0.029 C 
ATOM     12  C   UNL     1      -0.355   3.063   1.478  0.00  0.00    +0.105 C 
ATOM     13  N   UNL     1      -1.522   3.471   2.267  0.00  0.00    -0.336 N 
ATOM     14  H   UNL     1      -1.388   4.080   3.173  0.00  0.00    +0.147 HD
ENDROOT
BRANCH  12  15
ATOM     15  C   UNL     1      -0.345   3.809   0.169  0.00  0.00    -0.027 A 
ATOM     16  C   UNL     1       0.856   4.100  -0.451  0.00  0.00    +0.009 A 
ATOM     17  C   UNL     1       0.868   4.778  -1.654  0.00  0.00    +0.046 A 
ATOM     18  C   UNL     1      -0.327   5.178  -2.235  0.00  0.00    +0.117 A 
ATOM     19  C   UNL     1      -1.531   4.890  -1.609  0.00  0.00    +0.046 A 
ATOM     20  C   UNL     1      -1.537   4.206  -0.408  0.00  0.00    +0.009 A 
BRANCH  18  21
ATOM     21  O   UNL     1      -0.318   5.851  -3.416  0.00  0.00    -0.507 OA
ATOM     22  H   UNL     1      -1.266   6.167  -3.876  0.00  0.00    +0.292 HD
ENDBRANCH  18  21
ENDBRANCH  12  15
BRANCH   1  23
ATOM     23  S   UNL     1      -6.908   1.795   0.464  0.00  0.00    +0.058 S 
ATOM     24  O   UNL     1      -6.804   0.429   0.086  0.00  0.00    -0.153 OA
ATOM     25  O   UNL     1      -7.825   2.244   1.453  0.00  0.00    -0.153 OA
BRANCH  23  26
ATOM     26  N   UNL     1      -7.248   2.643  -0.917  0.00  0.00    -0.190 NA
ATOM     27  H   UNL     1      -7.960   3.481  -0.871  0.00  0.00    +0.148 HD
BRANCH  26  28
ATOM     28  C   UNL     1      -6.451   2.425  -2.126  0.00  0.00    +0.110 C 
BRANCH  28  29
ATOM     29  C   UNL     1      -7.177   3.025  -3.331  0.00  0.00    +0.052 C 
BRANCH  29  33
ATOM     30  C   UNL     1      -4.853   2.387  -6.858  0.00  0.00    +0.000 A 
ATOM     31  C   UNL     1      -5.789   1.447  -6.468  0.00  0.00    +0.000 A 
ATOM     32  C   UNL     1      -6.541   1.654  -5.327  0.00  0.00    +0.003 A 
ATOM     33  C   UNL     1      -6.357   2.799  -4.575  0.00  0.00    -0.046 A 
ATOM     34  C   UNL     1      -5.424   3.741  -4.968  0.00  0.00    +0.003 A 
ATOM     35  C   UNL     1      -4.669   3.532  -6.107  0.00  0.00    +0.000 A 
ENDBRANCH  29  33
ENDBRANCH  28  29
ENDBRANCH  26  28
ENDBRANCH  23  26
ENDBRANCH   1  23
TORSDOF 7
