REMARK  Name = ZINC03107958
REMARK  4 active torsions:
REMARK  status: ('A' for Active; 'I' for Inactive)
REMARK    1  A    between atoms: C_1  and  C_2
REMARK    2  A    between atoms: C_2  and  C_15
REMARK    3  A    between atoms: CA_3  and  C_13
REMARK    4  A    between atoms: C_5  and  C_8
REMARK                            x       y       z     vdW  Elec       q    Type
REMARK                         _______ _______ _______ _____ _____    ______ ____
ROOT
ATOM      1  C   UNL     1      -0.013   1.086   0.008  0.00  0.00    +0.021 C 
ATOM      2  C   UNL     1      -0.729   1.579   1.267  0.00  0.00    +0.008 C 
ATOM      3  CA  UNL     1      -0.636   3.116   1.389  0.00  0.00    +0.061 C 
ATOM      4  C   UNL     1       0.111   2.644   3.682  0.00  0.00    +0.027 C 
ATOM      5  S   UNL     1       0.155   1.027   2.788  0.00  0.00    -0.166 S 
ATOM      6  C   UNL     1      -2.187   1.115   1.281  0.00  0.00    +0.021 C 
ATOM      7  N   UNL     1       0.194   3.590   2.515  0.00  0.00    +0.400 N 
ATOM      8  H1  UNL     1      -0.138   4.516   2.810  0.00  0.00    -0.083 HD
ATOM      9  H2  UNL     1       1.170   3.658   2.207  0.00  0.00    -0.083 HD
ENDROOT
BRANCH   4  10
ATOM     10  C   UNL     1       1.306   2.804   4.586  0.00  0.00    -0.015 A 
ATOM     11  C   UNL     1       1.440   2.470   5.893  0.00  0.00    +0.010 A 
ATOM     12  C   UNL     1       2.643   2.711   6.528  0.00  0.00    +0.008 A 
ATOM     13  C   UNL     1       3.655   3.276   5.825  0.00  0.00    +0.045 A 
ATOM     14  S   UNL     1       2.917   3.478   4.212  0.00  0.00    -0.102 S 
ENDBRANCH   4  10
BRANCH   3  15
ATOM     15  C   UNL     1      -0.048   3.666   0.115  0.00  0.00    +0.344 C 
ATOM     16  O   UNL     1       1.121   3.966   0.069  0.00  0.00    -0.248 OA
ATOM     17  OXT UNL     1      -0.825   3.823  -0.969  0.00  0.00    -0.248 OA
ENDBRANCH   3  15
TORSDOF 2
