REMARK  Name = ZINC20830202
REMARK  10 active torsions:
REMARK  status: ('A' for Active; 'I' for Inactive)
REMARK    1  A    between atoms: C_1  and  C_2
REMARK    2  A    between atoms: C_5  and  N_9
REMARK    3  A    between atoms: C_6  and  C_8
REMARK    4  A    between atoms: N_9  and  S_10
REMARK    5  A    between atoms: S_10  and  C_13
REMARK    6  A    between atoms: C_16  and  N_19
REMARK    7  A    between atoms: C_20  and  C_22
REMARK    8  A    between atoms: C_22  and  C_23
REMARK    9  A    between atoms: C_23  and  S_24
REMARK   10  A    between atoms: S_24  and  C_25
REMARK                            x       y       z     vdW  Elec       q    Type
REMARK                         _______ _______ _______ _____ _____    ______ ____
ROOT
ATOM      1  C   UNL     1       1.485   2.874   1.292  0.00  0.00    +0.109 A 
ATOM      2  C   UNL     1       0.972   4.155   1.200  0.00  0.00    +0.030 A 
ATOM      3  C   UNL     1       1.036   5.006   2.285  0.00  0.00    +0.025 A 
ATOM      4  C   UNL     1       1.626   4.579   3.467  0.00  0.00    +0.033 A 
ATOM      5  C   UNL     1       2.146   3.295   3.555  0.00  0.00    +0.025 A 
ATOM      6  C   UNL     1       2.074   2.446   2.468  0.00  0.00    +0.030 A 
ENDROOT
BRANCH   4   7
ATOM      7  N   UNL     1       1.697   5.441   4.567  0.00  0.00    -0.285 N 
ATOM      8  C   UNL     1       2.766   5.402   5.386  0.00  0.00    +0.218 C 
ATOM      9  O   UNL     1       3.627   4.564   5.220  0.00  0.00    -0.275 OA
ATOM     10  H   UNL     1       0.879   6.151   4.763  0.00  0.00    +0.155 HD
BRANCH   8  11
ATOM     11  C   UNL     1       2.892   6.399   6.509  0.00  0.00    +0.107 C 
BRANCH  11  12
ATOM     12  C   UNL     1       4.186   6.137   7.282  0.00  0.00    +0.085 C 
BRANCH  12  13
ATOM     13  S   UNL     1       4.338   7.337   8.633  0.00  0.00    -0.096 S 
BRANCH  13  14
ATOM     14  C   UNL     1       5.857   6.909   9.416  0.00  0.00    +0.160 A 
ATOM     15  N   UNL     1       6.710   5.947   9.116  0.00  0.00    -0.133 NA
ATOM     16  N   UNL     1       7.851   5.786   9.868  0.00  0.00    -0.125 NA
ATOM     17  C   UNL     1       8.087   6.593  10.884  0.00  0.00    +0.180 A 
ATOM     18  S   UNL     1       6.659   7.664  10.822  0.00  0.00    -0.025 S 
ATOM     19  N   UNL     1       9.163   6.609  11.764  0.00  0.00    -0.336 N 
ATOM     20  H   UNL     1       9.205   7.359  12.567  0.00  0.00    +0.144 HD
ATOM     21  H   UNL     1       9.971   5.871  11.658  0.00  0.00    +0.144 HD
ENDBRANCH  13  14
ENDBRANCH  12  13
ENDBRANCH  11  12
ENDBRANCH   8  11
ENDBRANCH   4   7
BRANCH   1  22
ATOM     22  S   UNL     1       1.396   1.788  -0.092  0.00  0.00    +0.072 S 
ATOM     23  O   UNL     1       2.439   0.837   0.070  0.00  0.00    -0.150 OA
ATOM     24  O   UNL     1       1.288   2.610  -1.246  0.00  0.00    -0.150 OA
BRANCH  22  25
ATOM     25  N   UNL     1      -0.029   0.955   0.030  0.00  0.00    -0.216 N 
ATOM     26  H   UNL     1      -0.020  -0.142   0.112  0.00  0.00    +0.174 HD
BRANCH  25  31
ATOM     27  C   UNL     1      -4.962   3.753   0.029  0.00  0.00    +0.044 C 
ATOM     28  C   UNL     1      -3.651   3.010   0.030  0.00  0.00    -0.050 A 
ATOM     29  C   UNL     1      -2.600   3.463  -0.747  0.00  0.00    +0.005 A 
ATOM     30  C   UNL     1      -1.398   2.784  -0.749  0.00  0.00    +0.025 A 
ATOM     31  C   UNL     1      -1.244   1.644   0.031  0.00  0.00    +0.051 A 
ATOM     32  C   UNL     1      -2.303   1.189   0.806  0.00  0.00    -0.028 A 
ATOM     33  C   UNL     1      -3.501   1.876   0.808  0.00  0.00    +0.008 A 
ATOM     34  C   UNL     1      -2.142  -0.049   1.650  0.00  0.00    +0.046 C 
ENDBRANCH  25  31
ENDBRANCH  22  25
ENDBRANCH   1  22
TORSDOF 8
