REMARK  Name = ZINC63329343
REMARK  12 active torsions:
REMARK  status: ('A' for Active; 'I' for Inactive)
REMARK    1  A    between atoms: C_1  and  C_2
REMARK    2  A    between atoms: C_2  and  C_3
REMARK    3  A    between atoms: C_2  and  C_4
REMARK    4  A    between atoms: C_4  and  C_5
REMARK    5  A    between atoms: C_4  and  N_15
REMARK    6  A    between atoms: C_8  and  C_11
REMARK    7  A    between atoms: C_11  and  C_12
REMARK    8  A    between atoms: C_11  and  C_13
REMARK    9  A    between atoms: C_11  and  C_14
REMARK   10  A    between atoms: N_18  and  C_19
REMARK   11  A    between atoms: C_22  and  C_25
REMARK   12  A    between atoms: N_27  and  C_28
REMARK                            x       y       z     vdW  Elec       q    Type
REMARK                         _______ _______ _______ _____ _____    ______ ____
ROOT
ATOM      1  N   UNL     1      -2.155   0.035   1.154  0.00  0.00    -0.292 N 
ATOM      2  C   UNL     1      -2.067  -0.550   2.366  0.00  0.00    +0.300 C 
ATOM      3  O   UNL     1      -1.389  -1.549   2.511  0.00  0.00    -0.253 OA
ATOM      4  N   UNL     1      -2.731  -0.027   3.416  0.00  0.00    -0.297 N 
ATOM      5  H   UNL     1      -2.696   0.831   1.038  0.00  0.00    +0.151 HD
ATOM      6  H   UNL     1      -3.272   0.769   3.300  0.00  0.00    +0.151 HD
ENDROOT
BRANCH   4   7
ATOM      7  C   UNL     1      -2.636  -0.663   4.732  0.00  0.00    +0.074 C 
ATOM      8  C   UNL     1      -3.665  -1.790   4.830  0.00  0.00    +0.023 C 
ATOM      9  C   UNL     1      -5.071  -1.215   4.642  0.00  0.00    +0.014 C 
ATOM     10  C   UNL     1      -5.347  -0.176   5.731  0.00  0.00    +0.075 C 
ATOM     11  C   UNL     1      -4.317   0.951   5.633  0.00  0.00    +0.014 C 
ATOM     12  C   UNL     1      -2.912   0.376   5.821  0.00  0.00    +0.023 C 
BRANCH  10  13
ATOM     13  C   UNL     1      -6.731   0.390   5.545  0.00  0.00    +0.216 C 
ATOM     14  O   UNL     1      -7.428   0.001   4.632  0.00  0.00    -0.276 OA
ATOM     15  N   UNL     1      -7.194   1.329   6.394  0.00  0.00    -0.318 N 
ATOM     16  C   UNL     1      -8.540   1.879   6.213  0.00  0.00    +0.128 C 
ATOM     17  H   UNL     1      -6.637   1.640   7.124  0.00  0.00    +0.148 HD
ENDBRANCH  10  13
ENDBRANCH   4   7
BRANCH   1  18
ATOM     18  C   UNL     1      -1.433  -0.534   0.013  0.00  0.00    +0.107 C 
BRANCH  18  19
ATOM     19  C   UNL     1      -2.125  -0.137  -1.266  0.00  0.00    -0.027 A 
ATOM     20  C   UNL     1      -2.629   1.142  -1.412  0.00  0.00    +0.006 A 
ATOM     21  C   UNL     1      -3.263   1.505  -2.585  0.00  0.00    +0.004 A 
ATOM     22  C   UNL     1      -3.393   0.590  -3.613  0.00  0.00    -0.042 A 
ATOM     23  C   UNL     1      -2.888  -0.689  -3.468  0.00  0.00    +0.004 A 
ATOM     24  C   UNL     1      -2.250  -1.051  -2.296  0.00  0.00    +0.006 A 
BRANCH  22  25
ATOM     25  C   UNL     1      -4.085   0.986  -4.891  0.00  0.00    -0.013 C 
ATOM     26  C   UNL     1      -3.340   2.159  -5.533  0.00  0.00    +0.015 C 
ATOM     27  C   UNL     1      -4.093  -0.202  -5.856  0.00  0.00    +0.015 C 
ATOM     28  C   UNL     1      -5.524   1.403  -4.584  0.00  0.00    +0.015 C 
ENDBRANCH  22  25
ENDBRANCH  18  19
BRANCH  18  30
ATOM     29  C   UNL     1      -0.019   1.526   0.010  0.00  0.00    +0.009 C 
ATOM     30  C   UNL     1       0.002  -0.004   0.002  0.00  0.00    +0.008 C 
ATOM     31  C   UNL     1       0.742  -0.511   1.242  0.00  0.00    +0.009 C 
ENDBRANCH  18  30
ENDBRANCH   1  18
TORSDOF 6
