REMARK  Name = ZINC67305144
REMARK  4 active torsions:
REMARK  status: ('A' for Active; 'I' for Inactive)
REMARK    1  A    between atoms: N_9  and  C_10
REMARK    2  A    between atoms: C_10  and  C_11
REMARK    3  A    between atoms: N_13  and  N_14
REMARK    4  A    between atoms: C_15  and  C_17
REMARK                            x       y       z     vdW  Elec       q    Type
REMARK                         _______ _______ _______ _____ _____    ______ ____
ROOT
ATOM      1  N   UNL     1       7.085   0.223   2.912  0.00  0.00    -0.234 N 
ATOM      2  C   UNL     1       8.372   0.544   3.146  0.00  0.00    +0.232 C 
ATOM      3  O   UNL     1       9.149   0.651   2.221  0.00  0.00    -0.274 OA
ATOM      4  H   UNL     1       6.463   0.138   3.652  0.00  0.00    +0.173 HD
ENDROOT
BRANCH   2   5
ATOM      5  C   UNL     1       8.847   0.772   4.559  0.00  0.00    +0.077 C 
ATOM      6  C   UNL     1       8.057   1.925   5.182  0.00  0.00    +0.015 C 
ATOM      7  C   UNL     1       8.532   2.146   6.621  0.00  0.00    +0.036 C 
ATOM      8  C   UNL     1      10.022   2.468   6.624  0.00  0.00    +0.112 C 
ATOM      9  C   UNL     1      10.820   1.339   5.982  0.00  0.00    +0.036 C 
ATOM     10  C   UNL     1      10.337   1.121   4.546  0.00  0.00    +0.015 C 
ATOM     11  C   UNL     1      10.282   3.773   5.906  0.00  0.00    +0.244 C 
ATOM     12  O   UNL     1      10.048   4.030   4.745  0.00  0.00    -0.273 OA
ATOM     13  N   UNL     1      10.828   4.590   6.830  0.00  0.00    -0.238 N 
ATOM     14  C   UNL     1      10.946   3.983   8.017  0.00  0.00    +0.307 C 
ATOM     15  O   UNL     1      11.410   4.516   9.006  0.00  0.00    -0.252 OA
ATOM     16  N   UNL     1      10.492   2.715   7.993  0.00  0.00    -0.285 N 
ATOM     17  H   UNL     1      11.102   5.504   6.656  0.00  0.00    +0.159 HD
ATOM     18  H   UNL     1      10.477   2.089   8.734  0.00  0.00    +0.151 HD
ENDBRANCH   2   5
BRANCH   1  21
ATOM     19  C   UNL     1       5.356  -0.310   1.364  0.00  0.00    +0.249 C 
ATOM     20  O   UNL     1       4.579  -0.417   2.289  0.00  0.00    -0.272 OA
ATOM     21  N   UNL     1       6.644   0.012   1.599  0.00  0.00    -0.233 N 
ATOM     22  H   UNL     1       7.265   0.097   0.859  0.00  0.00    +0.173 HD
BRANCH  19  23
ATOM     23  C   UNL     1       4.881  -0.537  -0.048  0.00  0.00    +0.219 C 
BRANCH  23  32
ATOM     24  C   UNL     1      -0.017   1.362   0.009  0.00  0.00    +0.001 A 
ATOM     25  C   UNL     1       1.170   2.083   0.002  0.00  0.00    +0.002 A 
ATOM     26  C   UNL     1       2.386   1.436  -0.013  0.00  0.00    +0.026 A 
ATOM     27  C   UNL     1       2.428   0.046  -0.021  0.00  0.00    +0.049 A 
ATOM     28  C   UNL     1       1.223  -0.681  -0.013  0.00  0.00    -0.000 A 
ATOM     29  C   UNL     1       0.002  -0.004   0.002  0.00  0.00    +0.010 A 
ATOM     30  C   UNL     1       1.604  -2.095  -0.025  0.00  0.00    +0.027 A 
ATOM     31  C   UNL     1       2.945  -2.141  -0.038  0.00  0.00    +0.087 A 
ATOM     32  N   UNL     1       3.455  -0.871  -0.036  0.00  0.00    -0.338 N 
ENDBRANCH  23  32
ENDBRANCH  19  23
ENDBRANCH   1  21
TORSDOF 4
