REMARK  Name = ZINC43199422
REMARK  6 active torsions:
REMARK  status: ('A' for Active; 'I' for Inactive)
REMARK    1  A    between atoms: C_1  and  C_2
REMARK    2  A    between atoms: C_5  and  O_31
REMARK    3  A    between atoms: C_9  and  O_30
REMARK    4  A    between atoms: C_11  and  O_29
REMARK    5  A    between atoms: C_19  and  O_25
REMARK    6  A    between atoms: C_21  and  O_24
REMARK                            x       y       z     vdW  Elec       q    Type
REMARK                         _______ _______ _______ _____ _____    ______ ____
ROOT
ATOM      1  C   UNL     1      -0.019   1.522   0.010  0.00  0.00    +0.052 C 
ATOM      2  C   UNL     1       0.002  -0.004   0.002  0.00  0.00    +0.176 C 
ATOM      3  C   UNL     1      -1.387  -0.611  -0.050  0.00  0.00    +0.080 C 
ATOM      4  C   UNL     1      -2.502   0.360   0.316  0.00  0.00    +0.141 C 
ATOM      5  C   UNL     1      -3.829  -0.351   0.257  0.00  0.00    +0.002 C 
ATOM      6  C   UNL     1      -4.365  -1.010   1.239  0.00  0.00    +0.005 C 
ATOM      7  C   UNL     1      -3.747  -1.175   2.598  0.00  0.00    +0.166 C 
ATOM      8  C   UNL     1      -4.477  -0.286   3.607  0.00  0.00    +0.154 C 
ATOM      9  C   UNL     1      -3.696  -0.229   4.919  0.00  0.00    +0.108 C 
ATOM     10  C   UNL     1      -2.273   0.195   4.667  0.00  0.00    +0.140 C 
ATOM     11  O   UNL     1      -2.034   1.309   4.264  0.00  0.00    -0.297 OA
ATOM     12  C   UNL     1      -1.142  -0.766   4.932  0.00  0.00    +0.112 C 
ATOM     13  C   UNL     1       0.176  -0.064   4.734  0.00  0.00    -0.001 A 
ATOM     14  C   UNL     1       0.804  -0.005   3.486  0.00  0.00    +0.105 A 
ATOM     15  C   UNL     1       2.022   0.686   3.359  0.00  0.00    +0.135 A 
ATOM     16  C   UNL     1       2.604   1.279   4.467  0.00  0.00    +0.093 A 
ATOM     17  C   UNL     1       1.984   1.197   5.703  0.00  0.00    +0.139 A 
ATOM     18  C   UNL     1       0.770   0.528   5.830  0.00  0.00    +0.087 A 
ATOM     19 CL   UNL     1      -0.006   0.437   7.381  0.00  0.00    -0.079 Cl
ATOM     20  C   UNL     1       0.232  -0.677   2.306  0.00  0.00    +0.343 C 
ATOM     21  O   UNL     1      -0.720  -1.421   2.433  0.00  0.00    -0.245 OA
ATOM     22  O   UNL     1       0.769  -0.498   1.091  0.00  0.00    -0.458 OA
ENDROOT
BRANCH  17  23
ATOM     23  O   UNL     1       2.561   1.766   6.791  0.00  0.00    -0.505 OA
ATOM     24  H   UNL     1       2.298   2.684   6.940  0.00  0.00    +0.292 HD
ENDBRANCH  17  23
BRANCH  15  25
ATOM     25  O   UNL     1       2.641   0.778   2.155  0.00  0.00    -0.506 OA
ATOM     26  H   UNL     1       2.380   1.551   1.636  0.00  0.00    +0.292 HD
ENDBRANCH  15  25
BRANCH   8  27
ATOM     27  O   UNL     1      -4.630   1.031   3.076  0.00  0.00    -0.388 OA
ATOM     28  H   UNL     1      -5.086   1.643   3.669  0.00  0.00    +0.210 HD
ENDBRANCH   8  27
BRANCH   7  29
ATOM     29  O   UNL     1      -3.885  -2.543   3.009  0.00  0.00    -0.385 OA
ATOM     30  H   UNL     1      -3.457  -3.176   2.416  0.00  0.00    +0.210 HD
ENDBRANCH   7  29
BRANCH   4  31
ATOM     31  O   UNL     1      -2.305   0.934   1.602  0.00  0.00    -0.388 OA
ATOM     32  H   UNL     1      -2.996   1.556   1.865  0.00  0.00    +0.210 HD
ENDBRANCH   4  31
TORSDOF 5
