REMARK  Name = ZINC13977121
REMARK  7 active torsions:
REMARK  status: ('A' for Active; 'I' for Inactive)
REMARK    1  A    between atoms: C_1  and  C_2
REMARK    2  A    between atoms: C_5  and  C_9
REMARK    3  A    between atoms: N_11  and  C_12
REMARK    4  A    between atoms: C_12  and  N_14
REMARK    5  A    between atoms: N_14  and  N_15
REMARK    6  A    between atoms: C_16  and  C_18
REMARK    7  A    between atoms: C_21  and  O_24
REMARK                            x       y       z     vdW  Elec       q    Type
REMARK                         _______ _______ _______ _____ _____    ______ ____
ROOT
ATOM      1  C   UNL     1       3.524   1.907  -0.021  0.00  0.00    +0.153 C 
ATOM      2  S   UNL     1       5.018   1.071  -0.040  0.00  0.00    -0.017 S 
ENDROOT
BRANCH   1   5
ATOM      3  C   UNL     1       4.664   3.945  -0.021  0.00  0.00    +0.250 C 
ATOM      4  O   UNL     1       5.724   3.351  -0.035  0.00  0.00    -0.270 OA
ATOM      5  N   UNL     1       3.506   3.255  -0.014  0.00  0.00    -0.263 N 
ATOM      6  H   UNL     1       2.659   3.728  -0.003  0.00  0.00    +0.157 HD
BRANCH   3  11
ATOM      7  C   UNL     1       4.584   9.698   0.011  0.00  0.00    +0.045 C 
ATOM      8  C   UNL     1       4.605   8.191   0.002  0.00  0.00    -0.037 A 
ATOM      9  C   UNL     1       3.415   7.486   0.010  0.00  0.00    +0.005 A 
ATOM     10  C   UNL     1       3.427   6.107  -0.004  0.00  0.00    +0.013 A 
ATOM     11  C   UNL     1       4.644   5.422  -0.013  0.00  0.00    +0.038 A 
ATOM     12  C   UNL     1       5.841   6.139  -0.021  0.00  0.00    +0.027 A 
ATOM     13  C   UNL     1       5.815   7.519  -0.013  0.00  0.00    +0.017 A 
ATOM     14  I   UNL     1       7.611   8.599  -0.024  0.00  0.00    -0.044 I 
ENDBRANCH   3  11
ENDBRANCH   1   5
BRANCH   1  15
ATOM     15  N   UNL     1       2.366   1.217  -0.014  0.00  0.00    -0.245 N 
ATOM     16  H   UNL     1       2.379   0.247  -0.019  0.00  0.00    +0.172 HD
BRANCH  15  17
ATOM     17  N   UNL     1       1.143   1.901   0.001  0.00  0.00    -0.231 N 
ATOM     18  C   UNL     1      -0.014   1.212   0.009  0.00  0.00    +0.260 C 
ATOM     19  O   UNL     1       0.002  -0.004   0.002  0.00  0.00    -0.269 OA
ATOM     20  H   UNL     1       1.130   2.871   0.007  0.00  0.00    +0.173 HD
BRANCH  18  21
ATOM     21  C   UNL     1      -1.303   1.932   0.019  0.00  0.00    +0.038 A 
ATOM     22  C   UNL     1      -1.324   3.329   0.032  0.00  0.00    +0.016 A 
ATOM     23  C   UNL     1      -2.527   3.998   0.036  0.00  0.00    +0.046 A 
ATOM     24  C   UNL     1      -3.721   3.285   0.038  0.00  0.00    +0.117 A 
ATOM     25  C   UNL     1      -3.704   1.895   0.030  0.00  0.00    +0.046 A 
ATOM     26  C   UNL     1      -2.504   1.219   0.021  0.00  0.00    +0.016 A 
BRANCH  24  27
ATOM     27  O   UNL     1      -4.905   3.947   0.048  0.00  0.00    -0.507 OA
ATOM     28  H   UNL     1      -5.244   4.134   0.934  0.00  0.00    +0.292 HD
ENDBRANCH  24  27
ENDBRANCH  18  21
ENDBRANCH  15  17
ENDBRANCH   1  15
TORSDOF 6
