REMARK  Name = ZINC43553791
REMARK  12 active torsions:
REMARK  status: ('A' for Active; 'I' for Inactive)
REMARK    1  A    between atoms: C_1  and  C_2
REMARK    2  A    between atoms: C_5  and  O_31
REMARK    3  A    between atoms: C_7  and  C_28
REMARK    4  A    between atoms: C_7  and  C_29
REMARK    5  A    between atoms: C_12  and  O_27
REMARK    6  A    between atoms: C_14  and  C_16
REMARK    7  A    between atoms: C_16  and  C_17
REMARK    8  A    between atoms: N_19  and  C_20
REMARK    9  A    between atoms: C_20  and  C_21
REMARK   10  A    between atoms: C_29  and  O_30
REMARK   11  A    between atoms: O_31  and  C_32
REMARK   12  A    between atoms: N_34  and  C_35
REMARK                            x       y       z     vdW  Elec       q    Type
REMARK                         _______ _______ _______ _____ _____    ______ ____
ROOT
ATOM      1  C   UNL     1       0.179   1.516  -0.016  0.00  0.00    +0.012 C 
ATOM      2  C   UNL     1       0.170  -0.025  -0.010  0.00  0.00    -0.023 C 
ATOM      3  C   UNL     1      -1.277  -0.505   0.010  0.00  0.00    +0.011 C 
ATOM      4  C   UNL     1      -1.965  -0.027   1.291  0.00  0.00    +0.046 C 
ATOM      5  C   UNL     1      -1.260  -0.599   2.512  0.00  0.00    +0.186 C 
ATOM      6  C   UNL     1       0.230  -0.280   2.529  0.00  0.00    +0.031 C 
ATOM      7  C   UNL     1       0.919  -0.572   1.203  0.00  0.00    +0.007 C 
ATOM      8  C   UNL     1       1.122  -2.083   1.050  0.00  0.00    +0.007 C 
ATOM      9  C   UNL     1       1.890  -2.405  -0.234  0.00  0.00    +0.032 C 
ATOM     10  C   UNL     1       1.084  -1.923  -1.438  0.00  0.00    +0.119 C 
ATOM     11  C   UNL     1       0.868  -0.424  -1.312  0.00  0.00    +0.032 C 
ATOM     12  C   UNL     1       0.442   1.173   2.977  0.00  0.00    +0.017 C 
ENDROOT
BRANCH  10  13
ATOM     13  O   UNL     1      -0.152  -2.624  -1.527  0.00  0.00    -0.391 OA
ATOM     14  H   UNL     1      -0.055  -3.581  -1.627  0.00  0.00    +0.210 HD
ENDBRANCH  10  13
BRANCH  11  15
ATOM     15  C   UNL     1       0.091   0.101  -2.521  0.00  0.00    +0.102 C 
BRANCH  15  16
ATOM     16  C   UNL     1       0.862  -0.198  -3.781  0.00  0.00    +0.214 C 
ATOM     17  O   UNL     1       1.927  -0.774  -3.719  0.00  0.00    -0.276 OA
ATOM     18  N   UNL     1       0.366   0.175  -4.978  0.00  0.00    -0.311 N 
ATOM     19  H   UNL     1      -0.485   0.637  -5.028  0.00  0.00    +0.149 HD
BRANCH  18  20
ATOM     20  C   UNL     1       1.115  -0.115  -6.203  0.00  0.00    +0.139 C 
BRANCH  20  21
ATOM     21  C   UNL     1       0.350   0.402  -7.394  0.00  0.00    -0.030 A 
ATOM     22  C   UNL     1      -0.569  -0.410  -8.031  0.00  0.00    +0.005 A 
ATOM     23  C   UNL     1      -1.271   0.064  -9.124  0.00  0.00    +0.000 A 
ATOM     24  C   UNL     1      -1.054   1.352  -9.578  0.00  0.00    +0.000 A 
ATOM     25  C   UNL     1      -0.136   2.165  -8.940  0.00  0.00    +0.000 A 
ATOM     26  C   UNL     1       0.563   1.691  -7.845  0.00  0.00    +0.005 A 
ENDBRANCH  20  21
ENDBRANCH  18  20
ENDBRANCH  15  16
ENDBRANCH  11  15
BRANCH   6  27
ATOM     27  C   UNL     1       0.864  -1.144   3.645  0.00  0.00    +0.166 C 
BRANCH  27  28
ATOM     28  O   UNL     1       0.262  -0.817   4.899  0.00  0.00    -0.394 OA
ATOM     29  H   UNL     1       0.612  -1.322   5.646  0.00  0.00    +0.209 HD
ENDBRANCH  27  28
ENDBRANCH   6  27
BRANCH   5  30
ATOM     30  O   UNL     1      -1.457  -2.015   2.568  0.00  0.00    -0.446 OA
BRANCH  30  31
ATOM     31  C   UNL     1      -2.535  -2.456   3.243  0.00  0.00    +0.401 C 
ATOM     32  O   UNL     1      -3.288  -1.661   3.771  0.00  0.00    -0.226 OA
ATOM     33  N   UNL     1      -2.778  -3.778   3.334  0.00  0.00    -0.278 N 
ATOM     34  H   UNL     1      -2.177  -4.412   2.913  0.00  0.00    +0.152 HD
BRANCH  33  35
ATOM     35  C   UNL     1      -3.951  -4.258   4.069  0.00  0.00    +0.076 C 
ATOM     36  C   UNL     1      -5.171  -4.246   3.146  0.00  0.00    +0.022 C 
ATOM     37  C   UNL     1      -6.397  -4.747   3.914  0.00  0.00    +0.002 C 
ATOM     38  C   UNL     1      -6.143  -6.173   4.404  0.00  0.00    +0.000 C 
ATOM     39  C   UNL     1      -4.922  -6.186   5.327  0.00  0.00    +0.002 C 
ATOM     40  C   UNL     1      -3.697  -5.685   4.560  0.00  0.00    +0.022 C 
ENDBRANCH  33  35
ENDBRANCH  30  31
ENDBRANCH   5  30
TORSDOF 10
