REMARK  Name = ZINC16958572
REMARK  6 active torsions:
REMARK  status: ('A' for Active; 'I' for Inactive)
REMARK    1  A    between atoms: C_1  and  C_2
REMARK    2  A    between atoms: C_4  and  C_23
REMARK    3  A    between atoms: C_13  and  N_15
REMARK    4  A    between atoms: C_26  and  N_29
REMARK    5  A    between atoms: N_29  and  C_30
REMARK    6  A    between atoms: N_29  and  C_31
REMARK                            x       y       z     vdW  Elec       q    Type
REMARK                         _______ _______ _______ _____ _____    ______ ____
ROOT
ATOM      1  C   UNL     1      -2.029   0.929   1.524  0.00  0.00    +0.013 C 
ATOM      2  C   UNL     1      -0.727   1.696   1.289  0.00  0.00    +0.054 C 
ATOM      3  C   UNL     1      -0.064   1.204   0.000  0.00  0.00    +0.060 C 
ATOM      4  C   UNL     1       1.345   1.735  -0.082  0.00  0.00    +0.006 A 
ATOM      5  C   UNL     1       1.988   1.730  -1.310  0.00  0.00    +0.057 A 
ATOM      6  C   UNL     1       3.281   2.207  -1.425  0.00  0.00    +0.167 A 
ATOM      7  C   UNL     1       3.943   2.692  -0.300  0.00  0.00    +0.170 A 
ATOM      8  C   UNL     1       3.301   2.697   0.925  0.00  0.00    +0.095 A 
ATOM      9  C   UNL     1       1.999   2.220   1.037  0.00  0.00    +0.130 A 
ATOM     10  O   UNL     1       1.401   2.252   2.258  0.00  0.00    -0.473 OA
ATOM     11  C   UNL     1       0.239   1.445   2.454  0.00  0.00    +0.249 C 
ATOM     12  O   UNL     1       5.193   3.097  -0.669  0.00  0.00    -0.452 OA
ATOM     13  C   UNL     1       5.145   3.236  -2.102  0.00  0.00    +0.466 C 
ATOM     14  O   UNL     1       4.118   2.309  -2.501  0.00  0.00    -0.453 OA
ENDROOT
BRANCH   3  15
ATOM     15  C   UNL     1      -0.853   1.692  -1.187  0.00  0.00    -0.039 A 
ATOM     16  C   UNL     1      -1.024   3.049  -1.391  0.00  0.00    +0.006 A 
ATOM     17  C   UNL     1      -1.742   3.499  -2.481  0.00  0.00    +0.023 A 
ATOM     18  C   UNL     1      -2.303   2.587  -3.367  0.00  0.00    +0.029 A 
ATOM     19  C   UNL     1      -2.134   1.225  -3.155  0.00  0.00    +0.023 A 
ATOM     20  C   UNL     1      -1.410   0.781  -2.066  0.00  0.00    +0.006 A 
BRANCH  18  21
ATOM     21  N   UNL     1      -3.034   3.039  -4.467  0.00  0.00    -0.336 N 
ATOM     22  C   UNL     1      -3.723   2.079  -5.334  0.00  0.00    +0.129 C 
ATOM     23  C   UNL     1      -3.113   4.474  -4.755  0.00  0.00    +0.129 C 
ENDBRANCH  18  21
ENDBRANCH   3  15
BRANCH  11  24
ATOM     24  N   UNL     1      -0.408   1.809   3.722  0.00  0.00    -0.268 NA
ATOM     25  C   UNL     1       0.474   1.503   4.877  0.00  0.00    +0.088 C 
ATOM     26  C   UNL     1      -0.098   2.396   6.006  0.00  0.00    +0.017 C 
ATOM     27  C   UNL     1      -0.497   3.688   5.257  0.00  0.00    +0.017 C 
ATOM     28  C   UNL     1      -0.667   3.264   3.786  0.00  0.00    +0.088 C 
ENDBRANCH  11  24
TORSDOF 3
