REMARK  Name = ZINC57316653
REMARK  8 active torsions:
REMARK  status: ('A' for Active; 'I' for Inactive)
REMARK    1  A    between atoms: C_3  and  N_29
REMARK    2  A    between atoms: C_4  and  N_26
REMARK    3  A    between atoms: C_6  and  C_7
REMARK    4  A    between atoms: C_8  and  C_9
REMARK    5  A    between atoms: N_11  and  C_12
REMARK    6  A    between atoms: C_12  and  N_14
REMARK    7  A    between atoms: N_14  and  C_15
REMARK    8  A    between atoms: C_16  and  C_23
REMARK                            x       y       z     vdW  Elec       q    Type
REMARK                         _______ _______ _______ _____ _____    ______ ____
ROOT
ATOM      1  C   UNL     1      -3.656  -0.828   0.034  0.00  0.00    +0.242 C 
ATOM      2  O   UNL     1      -3.638  -2.045   0.027  0.00  0.00    -0.270 OA
ATOM      3  N   UNL     1      -4.833  -0.172   0.049  0.00  0.00    -0.264 N 
ATOM      4  H   UNL     1      -4.848   0.798   0.054  0.00  0.00    +0.157 HD
ENDROOT
BRANCH   1   6
ATOM      5  C   UNL     1      -1.259  -0.758   0.011  0.00  0.00    +0.013 C 
ATOM      6  C   UNL     1      -2.439  -0.100   0.026  0.00  0.00    +0.068 C 
BRANCH   5  12
ATOM      7  C   UNL     1      -0.017   1.396   0.010  0.00  0.00    +0.010 A 
ATOM      8  C   UNL     1       1.168   2.096   0.002  0.00  0.00    +0.026 A 
ATOM      9  C   UNL     1       2.380   1.411  -0.013  0.00  0.00    +0.060 A 
ATOM     10  C   UNL     1       2.398   0.018  -0.021  0.00  0.00    +0.148 A 
ATOM     11  C   UNL     1       1.226  -0.684  -0.014  0.00  0.00    +0.042 A 
ATOM     12  C   UNL     1       0.002  -0.004   0.002  0.00  0.00    -0.023 A 
BRANCH   9  13
ATOM     13  N   UNL     1       3.577   2.119  -0.021  0.00  0.00    -0.324 N 
ATOM     14  C   UNL     1       4.214   2.517  -1.286  0.00  0.00    +0.133 C 
ATOM     15  C   UNL     1       4.539   4.014  -1.215  0.00  0.00    +0.178 C 
ATOM     16  O   UNL     1       5.279   4.278  -0.021  0.00  0.00    -0.377 OA
ATOM     17  C   UNL     1       4.567   3.991   1.185  0.00  0.00    +0.178 C 
ATOM     18  C   UNL     1       4.241   2.498   1.237  0.00  0.00    +0.133 C 
ENDBRANCH   9  13
BRANCH  10  19
ATOM     19  N   UNL     1       3.690  -0.703  -0.038  0.00  0.00    +0.058 N 
ATOM     20  O   UNL     1       3.708  -1.912  -0.045  0.00  0.00    -0.126 OA
ATOM     21  O   UNL     1       4.728  -0.083  -0.044  0.00  0.00    -0.126 OA
ENDBRANCH  10  19
ENDBRANCH   5  12
ENDBRANCH   1   6
BRANCH   3  22
ATOM     22  C   UNL     1      -5.990  -0.864   0.057  0.00  0.00    +0.141 C 
ATOM     23  S   UNL     1      -5.964  -2.575   0.048  0.00  0.00    -0.018 S 
BRANCH  22  24
ATOM     24  N   UNL     1      -7.167  -0.207   0.072  0.00  0.00    -0.291 N 
ATOM     25  H   UNL     1      -7.182   0.762   0.077  0.00  0.00    +0.154 HD
BRANCH  24  26
ATOM     26  C   UNL     1      -8.357  -0.919   0.080  0.00  0.00    +0.084 A 
ATOM     27  C   UNL     1      -9.646  -0.419   0.090  0.00  0.00    +0.068 A 
ATOM     28  C   UNL     1     -10.740  -1.389   0.097  0.00  0.00    -0.023 A 
ATOM     29  C   UNL     1     -10.336  -2.672   0.094  0.00  0.00    -0.004 A 
ATOM     30  S   UNL     1      -8.563  -2.583   0.073  0.00  0.00    -0.077 S 
ATOM     31  C   UNL     1     -11.499  -3.627   0.105  0.00  0.00    +0.043 C 
ATOM     32  C   UNL     1     -12.704  -2.768   0.549  0.00  0.00    +0.010 C 
ATOM     33  C   UNL     1     -12.267  -1.358   0.104  0.00  0.00    +0.037 C 
BRANCH  27  34
ATOM     34  C   UNL     1      -9.905   1.024   0.094  0.00  0.00    +0.244 C 
ATOM     35  O   UNL     1     -10.021   1.624  -0.958  0.00  0.00    -0.270 OA
ATOM     36  N   UNL     1     -10.016   1.685   1.263  0.00  0.00    -0.325 N 
ATOM     37  H   UNL     1      -9.924   1.206   2.102  0.00  0.00    +0.145 HD
ATOM     38  H   UNL     1     -10.188   2.640   1.266  0.00  0.00    +0.145 HD
ENDBRANCH  27  34
ENDBRANCH  24  26
ENDBRANCH  22  24
ENDBRANCH   3  22
TORSDOF 8
