REMARK  Name = ZINC57509049
REMARK  8 active torsions:
REMARK  status: ('A' for Active; 'I' for Inactive)
REMARK    1  A    between atoms: C_1  and  C_2
REMARK    2  A    between atoms: C_2  and  O_3
REMARK    3  A    between atoms: O_3  and  C_4
REMARK    4  A    between atoms: C_4  and  C_6
REMARK    5  A    between atoms: C_7  and  C_22
REMARK    6  A    between atoms: C_12  and  C_14
REMARK    7  A    between atoms: C_17  and  O_21
REMARK    8  A    between atoms: C_18  and  O_20
REMARK                            x       y       z     vdW  Elec       q    Type
REMARK                         _______ _______ _______ _____ _____    ______ ____
ROOT
ATOM      1  C   UNL     1       1.568  -2.363   2.371  0.00  0.00    +0.079 C 
ATOM      2  C   UNL     1       1.513  -3.685   2.645  0.00  0.00    +0.039 C 
ATOM      3  N   UNL     1       2.066  -4.192   3.786  0.00  0.00    -0.271 N 
ATOM      4  C   UNL     1       2.691  -3.443   4.704  0.00  0.00    +0.304 C 
ATOM      5  O   UNL     1       3.153  -3.986   5.689  0.00  0.00    -0.252 OA
ATOM      6  N   UNL     1       2.826  -2.109   4.571  0.00  0.00    -0.288 N 
ATOM      7  C   UNL     1       2.268  -1.465   3.370  0.00  0.00    +0.144 C 
ATOM      8  H   UNL     1       2.003  -5.147   3.940  0.00  0.00    +0.156 HD
ATOM      9  H   UNL     1       3.282  -1.586   5.248  0.00  0.00    +0.151 HD
ENDROOT
BRANCH   7  10
ATOM     10  C   UNL     1       3.390  -0.758   2.652  0.00  0.00    -0.019 A 
ATOM     11  C   UNL     1       4.583  -1.417   2.422  0.00  0.00    +0.009 A 
ATOM     12  C   UNL     1       5.615  -0.773   1.764  0.00  0.00    +0.049 A 
ATOM     13  C   UNL     1       5.454   0.534   1.334  0.00  0.00    +0.158 A 
ATOM     14  C   UNL     1       4.252   1.197   1.566  0.00  0.00    +0.159 A 
ATOM     15  C   UNL     1       3.220   0.544   2.222  0.00  0.00    +0.055 A 
BRANCH  14  16
ATOM     16  O   UNL     1       4.089   2.480   1.146  0.00  0.00    -0.503 OA
ATOM     17  H   UNL     1       3.732   2.559   0.252  0.00  0.00    +0.292 HD
ENDBRANCH  14  16
BRANCH  13  18
ATOM     18  O   UNL     1       6.468   1.169   0.688  0.00  0.00    -0.503 OA
ATOM     19  H   UNL     1       6.451   1.060  -0.273  0.00  0.00    +0.292 HD
ENDBRANCH  13  18
ENDBRANCH   7  10
BRANCH   1  20
ATOM     20  C   UNL     1       0.995  -1.837   1.189  0.00  0.00    +0.339 C 
ATOM     21  O   UNL     1      -0.085  -1.279   1.233  0.00  0.00    -0.245 OA
BRANCH  20  22
ATOM     22  O   UNL     1       1.647  -1.954   0.014  0.00  0.00    -0.462 OA
BRANCH  22  24
ATOM     23  C   UNL     1       1.894  -1.627  -2.368  0.00  0.00    +0.048 C 
ATOM     24  C   UNL     1       1.011  -1.400  -1.139  0.00  0.00    +0.229 C 
ENDBRANCH  22  24
ENDBRANCH  20  22
ENDBRANCH   1  20
BRANCH   2  25
ATOM     25  C   UNL     1       0.830  -4.615   1.676  0.00  0.00    +0.160 C 
ATOM     26 CL   UNL     1       2.054  -5.321   0.556  0.00  0.00    -0.119 Cl
ENDBRANCH   2  25
TORSDOF 7
