REMARK  Name = ZINC36371099
REMARK  8 active torsions:
REMARK  status: ('A' for Active; 'I' for Inactive)
REMARK    1  A    between atoms: C_1  and  C_2
REMARK    2  A    between atoms: C_15  and  O_31
REMARK    3  A    between atoms: C_18  and  C_30
REMARK    4  A    between atoms: C_23  and  C_24
REMARK    5  A    between atoms: C_23  and  O_29
REMARK    6  A    between atoms: C_24  and  C_26
REMARK    7  A    between atoms: C_24  and  O_28
REMARK    8  A    between atoms: C_26  and  O_27
REMARK                            x       y       z     vdW  Elec       q    Type
REMARK                         _______ _______ _______ _____ _____    ______ ____
ROOT
ATOM      1  C   UNL     1       0.564   0.749   0.476  0.00  0.00    +0.016 C 
ATOM      2  C   UNL     1       0.367  -0.768   0.464  0.00  0.00    -0.005 C 
ATOM      3  C   UNL     1       1.072  -1.393  -0.734  0.00  0.00    +0.019 C 
ATOM      4  C   UNL     1       2.584  -1.175  -0.630  0.00  0.00    +0.080 C 
ATOM      5  C   UNL     1       3.074  -1.722   0.688  0.00  0.00    +0.156 C 
ATOM      6  O   UNL     1       4.218  -2.109   0.796  0.00  0.00    -0.293 OA
ATOM      7  C   UNL     1       2.168  -1.782   1.833  0.00  0.00    +0.046 C 
ATOM      8  C   UNL     1       0.917  -1.347   1.748  0.00  0.00    -0.060 C 
ATOM      9  C   UNL     1       0.001  -1.422   2.948  0.00  0.00    +0.032 C 
ATOM     10  C   UNL     1      -1.173  -2.347   2.615  0.00  0.00    +0.008 C 
ATOM     11  C   UNL     1      -1.351  -2.441   1.109  0.00  0.00    -0.001 C 
ATOM     12  C   UNL     1      -1.135  -1.091   0.426  0.00  0.00    +0.031 C 
ATOM     13  C   UNL     1      -1.660  -1.129  -1.002  0.00  0.00    +0.119 C 
ATOM     14  C   UNL     1      -3.181  -1.346  -1.053  0.00  0.00    +0.041 C 
ATOM     15  C   UNL     1      -3.676  -2.050   0.180  0.00  0.00    +0.005 C 
ATOM     16  C   UNL     1      -2.645  -3.076   0.691  0.00  0.00    +0.001 C 
ATOM     17  C   UNL     1      -3.426  -3.807   1.794  0.00  0.00    +0.007 C 
ATOM     18  C   UNL     1      -4.873  -3.879   1.241  0.00  0.00    +0.038 C 
ATOM     19  C   UNL     1      -4.923  -2.936   0.010  0.00  0.00    +0.100 C 
ATOM     20  C   UNL     1      -4.029  -1.019   1.267  0.00  0.00    +0.014 C 
ENDROOT
BRANCH  19  21
ATOM     21  O   UNL     1      -6.099  -2.128   0.056  0.00  0.00    -0.385 OA
ATOM     22  H   UNL     1      -6.922  -2.625  -0.046  0.00  0.00    +0.210 HD
ENDBRANCH  19  21
BRANCH  13  23
ATOM     23  O   UNL     1      -1.364   0.102  -1.673  0.00  0.00    -0.391 OA
ATOM     24  H   UNL     1      -1.675   0.136  -2.587  0.00  0.00    +0.210 HD
ENDBRANCH  13  23
BRANCH  19  25
ATOM     25  C   UNL     1      -4.881  -3.757  -1.273  0.00  0.00    +0.172 C 
BRANCH  25  26
ATOM     26  O   UNL     1      -4.955  -2.882  -2.400  0.00  0.00    -0.387 OA
ATOM     27  H   UNL     1      -5.759  -2.347  -2.431  0.00  0.00    +0.210 HD
ENDBRANCH  25  26
BRANCH  25  28
ATOM     28  C   UNL     1      -6.066  -4.724  -1.299  0.00  0.00    +0.190 C 
BRANCH  28  29
ATOM     29  O   UNL     1      -5.963  -5.573  -2.443  0.00  0.00    -0.392 OA
ATOM     30  H   UNL     1      -6.683  -6.213  -2.524  0.00  0.00    +0.210 HD
ENDBRANCH  28  29
ENDBRANCH  25  28
ENDBRANCH  19  25
TORSDOF 6
