REMARK  Name = ZINC59724078
REMARK  11 active torsions:
REMARK  status: ('A' for Active; 'I' for Inactive)
REMARK    1  A    between atoms: C_1  and  C_2
REMARK    2  A    between atoms: C_2  and  N_3
REMARK    3  A    between atoms: N_6  and  C_9
REMARK    4  A    between atoms: C_12  and  C_27
REMARK    5  A    between atoms: C_14  and  N_15
REMARK    6  A    between atoms: C_16  and  C_18
REMARK    7  A    between atoms: C_23  and  O_24
REMARK    8  A    between atoms: O_24  and  C_25
REMARK    9  A    between atoms: C_27  and  O_29
REMARK   10  A    between atoms: O_29  and  C_30
REMARK   11  A    between atoms: C_30  and  C_31
REMARK                            x       y       z     vdW  Elec       q    Type
REMARK                         _______ _______ _______ _____ _____    ______ ____
ROOT
ATOM      1  C   UNL     1      -4.345  -2.863  -1.664  0.00  0.00    +0.051 A 
ATOM      2  C   UNL     1      -3.788  -3.484  -2.776  0.00  0.00    +0.026 A 
ATOM      3  C   UNL     1      -4.548  -4.334  -3.547  0.00  0.00    +0.017 A 
ATOM      4  C   UNL     1      -5.884  -4.576  -3.213  0.00  0.00    +0.061 A 
ATOM      5  C   UNL     1      -6.447  -3.953  -2.094  0.00  0.00    +0.040 A 
ATOM      6  C   UNL     1      -5.678  -3.105  -1.320  0.00  0.00    +0.056 A 
ENDROOT
BRANCH   1  10
ATOM      7  N   UNL     1      -1.367  -0.532  -0.001  0.00  0.00    +0.382 N 
ATOM      8  C   UNL     1      -2.041  -0.141  -1.245  0.00  0.00    -0.060 C 
ATOM      9  C   UNL     1      -3.513  -0.564  -1.183  0.00  0.00    +0.086 C 
ATOM     10  N   UNL     1      -3.571  -2.004  -0.887  0.00  0.00    -0.332 N 
ATOM     11  C   UNL     1      -2.790  -2.511   0.251  0.00  0.00    +0.086 C 
ATOM     12  C   UNL     1      -1.353  -1.996   0.121  0.00  0.00    -0.060 C 
ATOM     13  H   UNL     1      -1.861  -0.136   0.785  0.00  0.00    -0.082 HD
BRANCH   7  15
ATOM     14  C   UNL     1      -0.001   1.500  -0.015  0.00  0.00    -0.017 C 
ATOM     15  C   UNL     1       0.013  -0.030  -0.014  0.00  0.00    -0.082 C 
ENDBRANCH   7  15
ENDBRANCH   1  10
BRANCH   6  16
ATOM     16  N   UNL     1      -6.236  -2.483  -0.196  0.00  0.00    -0.280 N 
ATOM     17  C   UNL     1      -7.529  -2.104  -0.207  0.00  0.00    +0.252 C 
ATOM     18  O   UNL     1      -8.233  -2.375  -1.161  0.00  0.00    -0.270 OA
ATOM     19  H   UNL     1      -5.691  -2.325   0.591  0.00  0.00    +0.155 HD
BRANCH  17  20
ATOM     20  C   UNL     1      -8.091  -1.361   0.936  0.00  0.00    +0.080 A 
ATOM     21  C   UNL     1      -7.284  -1.042   2.032  0.00  0.00    +0.032 A 
ATOM     22  C   UNL     1      -7.814  -0.348   3.098  0.00  0.00    +0.019 A 
ATOM     23  C   UNL     1      -9.146   0.036   3.088  0.00  0.00    +0.019 A 
ATOM     24  C   UNL     1      -9.954  -0.273   2.012  0.00  0.00    +0.047 A 
ATOM     25  C   UNL     1      -9.435  -0.965   0.928  0.00  0.00    +0.132 A 
ATOM     26 BR   UNL     1      -6.721   0.083   4.579  0.00  0.00    -0.050 Br
BRANCH  25  27
ATOM     27  O   UNL     1     -10.227  -1.264  -0.132  0.00  0.00    -0.494 OA
ATOM     28  C   UNL     1     -11.586  -0.828  -0.070  0.00  0.00    +0.277 C 
ENDBRANCH  25  27
ENDBRANCH  17  20
ENDBRANCH   6  16
BRANCH   4  29
ATOM     29  C   UNL     1      -6.699  -5.486  -4.038  0.00  0.00    +0.339 C 
ATOM     30  O   UNL     1      -7.860  -5.695  -3.747  0.00  0.00    -0.245 OA
BRANCH  29  31
ATOM     31  O   UNL     1      -6.156  -6.085  -5.116  0.00  0.00    -0.461 OA
BRANCH  31  32
ATOM     32  C   UNL     1      -7.004  -6.954  -5.871  0.00  0.00    +0.229 C 
ATOM     33  C   UNL     1      -6.218  -7.537  -7.047  0.00  0.00    +0.048 C 
ENDBRANCH  31  32
ENDBRANCH  29  31
ENDBRANCH   4  29
TORSDOF 8
