REMARK  Name = ZINC40296839
REMARK  3 active torsions:
REMARK  status: ('A' for Active; 'I' for Inactive)
REMARK    1  A    between atoms: C_4  and  C_7
REMARK    2  A    between atoms: C_5  and  N_6
REMARK    3  A    between atoms: N_9  and  C_10
REMARK                            x       y       z     vdW  Elec       q    Type
REMARK                         _______ _______ _______ _____ _____    ______ ____
ROOT
ATOM      1  C   UNL     1       1.624  -1.955  -0.030  0.00  0.00    +0.257 C 
ATOM      2  O   UNL     1       0.755  -2.809  -0.023  0.00  0.00    -0.269 OA
ATOM      3  N   UNL     1       2.922  -2.316  -0.039  0.00  0.00    -0.280 N 
ATOM      4  H   UNL     1       3.613  -1.639  -0.110  0.00  0.00    +0.155 HD
ENDROOT
BRANCH   3   5
ATOM      5  C   UNL     1       3.274  -3.667   0.056  0.00  0.00    +0.054 A 
ATOM      6  C   UNL     1       2.474  -4.637  -0.533  0.00  0.00    +0.046 A 
ATOM      7  C   UNL     1       2.824  -5.971  -0.438  0.00  0.00    +0.061 A 
ATOM      8  C   UNL     1       3.971  -6.340   0.244  0.00  0.00    +0.061 A 
ATOM      9  C   UNL     1       4.769  -5.376   0.833  0.00  0.00    +0.043 A 
ATOM     10  C   UNL     1       4.428  -4.040   0.735  0.00  0.00    +0.064 A 
ATOM     11 CL   UNL     1       5.435  -2.830   1.467  0.00  0.00    -0.082 Cl
ATOM     12 CL   UNL     1       4.407  -8.016   0.362  0.00  0.00    -0.082 Cl
ATOM     13 CL   UNL     1       1.824  -7.184  -1.175  0.00  0.00    -0.082 Cl
ENDBRANCH   3   5
BRANCH   1  17
ATOM     14  C   UNL     1      -0.018   1.377  -0.025  0.00  0.00    +0.031 A 
ATOM     15  C   UNL     1       1.155   2.050  -0.034  0.00  0.00    +0.048 A 
ATOM     16  S   UNL     1       2.328   0.849  -0.040  0.00  0.00    -0.090 S 
ATOM     17  C   UNL     1       1.270  -0.586  -0.030  0.00  0.00    +0.095 A 
ATOM     18  C   UNL     1       0.001  -0.005  -0.022  0.00  0.00    +0.044 A 
BRANCH  18  19
ATOM     19  N   UNL     1      -1.165  -0.766  -0.012  0.00  0.00    -0.357 N 
ATOM     20  H   UNL     1      -2.030  -0.327  -0.007  0.00  0.00    +0.142 HD
ATOM     21  H   UNL     1      -1.113  -1.734  -0.010  0.00  0.00    +0.142 HD
ENDBRANCH  18  19
ENDBRANCH   1  17
TORSDOF 3
