REMARK  Name = ZINC67428135
REMARK  3 active torsions:
REMARK  status: ('A' for Active; 'I' for Inactive)
REMARK    1  A    between atoms: C_3  and  C_6
REMARK    2  A    between atoms: C_9  and  C_11
REMARK    3  A    between atoms: C_11  and  N_12
REMARK                            x       y       z     vdW  Elec       q    Type
REMARK                         _______ _______ _______ _____ _____    ______ ____
ROOT
ATOM      1  N   UNL     1       6.595   4.780  -1.411  0.00  0.00    -0.290 N 
ATOM      2  C   UNL     1       7.682   4.292  -2.065  0.00  0.00    +0.203 A 
ATOM      3  N   UNL     1       7.981   4.611  -3.288  0.00  0.00    -0.235 NA
ATOM      4  C   UNL     1       7.215   5.468  -4.008  0.00  0.00    +0.096 A 
ATOM      5  C   UNL     1       6.064   6.026  -3.409  0.00  0.00    +0.068 A 
ATOM      6  C   UNL     1       5.750   5.641  -2.025  0.00  0.00    +0.262 A 
ATOM      7  O   UNL     1       4.770   6.081  -1.453  0.00  0.00    -0.267 OA
ATOM      8  C   UNL     1       5.261   6.908  -4.128  0.00  0.00    +0.035 A 
ATOM      9  C   UNL     1       5.599   7.232  -5.426  0.00  0.00    +0.043 A 
ATOM     10  C   UNL     1       6.730   6.685  -6.018  0.00  0.00    +0.042 A 
ATOM     11  C   UNL     1       7.537   5.811  -5.323  0.00  0.00    +0.068 A 
ATOM     12 CL   UNL     1       8.948   5.138  -6.079  0.00  0.00    -0.081 Cl
ATOM     13 CL   UNL     1       4.601   8.330  -6.327  0.00  0.00    -0.083 Cl
ENDROOT
BRANCH   1  14
ATOM     14  C   UNL     1       6.332   4.366  -0.031  0.00  0.00    +0.222 C 
BRANCH  14  18
ATOM     15  C   UNL     1       3.735   1.821  -0.024  0.00  0.00    +0.162 A 
ATOM     16  C   UNL     1       4.865   1.063  -0.045  0.00  0.00    +0.161 A 
ATOM     17  N   UNL     1       5.912   1.901  -0.049  0.00  0.00    -0.220 NA
ATOM     18  C   UNL     1       5.472   3.128  -0.033  0.00  0.00    +0.216 A 
ATOM     19  O   UNL     1       4.131   3.113  -0.022  0.00  0.00    -0.437 OA
BRANCH  15  22
ATOM     20  C   UNL     1      -0.016   1.353   0.009  0.00  0.00    +0.008 A 
ATOM     21  C   UNL     1       1.177   2.042   0.002  0.00  0.00    +0.019 A 
ATOM     22  C   UNL     1       2.348   1.327  -0.013  0.00  0.00    +0.056 A 
ATOM     23  S   UNL     1       1.752  -0.355  -0.017  0.00  0.00    -0.094 S 
ATOM     24  C   UNL     1       0.002  -0.004   0.002  0.00  0.00    +0.046 A 
ENDBRANCH  15  22
ENDBRANCH  14  18
ENDBRANCH   1  14
TORSDOF 3
