REMARK  Name = ZINC10064946
REMARK  11 active torsions:
REMARK  status: ('A' for Active; 'I' for Inactive)
REMARK    1  A    between atoms: C_1  and  C_2
REMARK    2  A    between atoms: C_2  and  O_3
REMARK    3  A    between atoms: O_3  and  C_4
REMARK    4  A    between atoms: N_12  and  C_13
REMARK    5  A    between atoms: C_13  and  C_15
REMARK    6  A    between atoms: N_20  and  S_22
REMARK    7  A    between atoms: S_22  and  C_25
REMARK    8  A    between atoms: N_30  and  C_31
REMARK    9  A    between atoms: C_31  and  C_32
REMARK   10  A    between atoms: C_32  and  S_33
REMARK   11  A    between atoms: S_33  and  C_34
REMARK                            x       y       z     vdW  Elec       q    Type
REMARK                         _______ _______ _______ _____ _____    ______ ____
ROOT
ATOM      1  C   UNL     1      -5.951  -2.480   3.134  0.00  0.00    +0.122 A 
ATOM      2  C   UNL     1      -4.668  -1.998   3.362  0.00  0.00    +0.048 A 
ATOM      3  C   UNL     1      -3.769  -1.854   2.333  0.00  0.00    +0.030 A 
ATOM      4  C   UNL     1      -4.122  -2.191   1.017  0.00  0.00    +0.058 A 
ATOM      5  C   UNL     1      -5.424  -2.670   0.813  0.00  0.00    +0.042 A 
ATOM      6  C   UNL     1      -6.328  -2.811   1.839  0.00  0.00    +0.062 A 
ATOM      7  S   UNL     1      -5.475  -2.981  -0.934  0.00  0.00    -0.052 S 
ATOM      8  C   UNL     1      -3.860  -2.488  -1.326  0.00  0.00    +0.166 A 
ATOM      9  N   UNL     1      -3.265  -2.482  -2.518  0.00  0.00    -0.156 NA
ATOM     10  N   UNL     1      -3.347  -2.108  -0.127  0.00  0.00    -0.320 N 
ENDROOT
BRANCH   9  11
ATOM     11  C   UNL     1      -1.959  -2.253  -2.607  0.00  0.00    +0.243 C 
ATOM     12  O   UNL     1      -1.173  -2.983  -2.035  0.00  0.00    -0.273 OA
BRANCH  11  13
ATOM     13  C   UNL     1      -1.452  -1.088  -3.418  0.00  0.00    +0.093 C 
ATOM     14  C   UNL     1      -1.900  -1.245  -4.873  0.00  0.00    +0.015 C 
ATOM     15  C   UNL     1      -1.413  -0.046  -5.690  0.00  0.00    +0.018 C 
ATOM     16  C   UNL     1       0.117   0.002  -5.658  0.00  0.00    +0.109 C 
ATOM     17  N   UNL     1       0.561   0.006  -4.257  0.00  0.00    -0.175 NA
ATOM     18  C   UNL     1       0.079  -1.053  -3.360  0.00  0.00    +0.122 C 
BRANCH  17  19
ATOM     19  S   UNL     1       1.585   1.182  -3.700  0.00  0.00    +0.067 S 
ATOM     20  O   UNL     1       2.250   0.639  -2.568  0.00  0.00    -0.152 OA
ATOM     21  O   UNL     1       2.288   1.677  -4.832  0.00  0.00    -0.152 OA
BRANCH  19  22
ATOM     22  C   UNL     1       0.585   2.507  -3.109  0.00  0.00    +0.143 A 
ATOM     23  C   UNL     1       0.080   2.707  -1.867  0.00  0.00    +0.036 A 
ATOM     24  C   UNL     1      -0.685   3.833  -1.628  0.00  0.00    +0.010 A 
ATOM     25  C   UNL     1      -0.916   4.699  -2.645  0.00  0.00    +0.047 A 
ATOM     26  S   UNL     1      -0.032   3.930  -3.993  0.00  0.00    -0.077 S 
ENDBRANCH  19  22
ENDBRANCH  17  19
ENDBRANCH  11  13
ENDBRANCH   9  11
BRANCH   1  27
ATOM     27  O   UNL     1      -6.830  -2.616   4.163  0.00  0.00    -0.492 OA
BRANCH  27  29
ATOM     28  C   UNL     1      -7.486  -2.466   6.484  0.00  0.00    +0.048 C 
ATOM     29  C   UNL     1      -6.368  -2.245   5.463  0.00  0.00    +0.225 C 
ENDBRANCH  27  29
ENDBRANCH   1  27
BRANCH  10  30
ATOM     30  C   UNL     1      -1.969  -1.617  -0.043  0.00  0.00    +0.135 C 
BRANCH  30  31
ATOM     31  C   UNL     1      -1.053  -2.747   0.434  0.00  0.00    +0.090 C 
BRANCH  31  32
ATOM     32  S   UNL     1       0.670  -2.180   0.407  0.00  0.00    -0.162 S 
ATOM     33  C   UNL     1       1.613  -3.615   0.992  0.00  0.00    +0.084 C 
ENDBRANCH  31  32
ENDBRANCH  30  31
ENDBRANCH  10  30
TORSDOF 9
