REMARK  Name = ZINC11691107
REMARK  11 active torsions:
REMARK  status: ('A' for Active; 'I' for Inactive)
REMARK    1  A    between atoms: C_1  and  C_2
REMARK    2  A    between atoms: C_2  and  O_3
REMARK    3  A    between atoms: O_3  and  C_4
REMARK    4  A    between atoms: C_4  and  C_6
REMARK    5  A    between atoms: N_19  and  C_36
REMARK    6  A    between atoms: N_21  and  C_22
REMARK    7  A    between atoms: C_22  and  C_24
REMARK    8  A    between atoms: C_27  and  C_30
REMARK    9  A    between atoms: C_36  and  C_37
REMARK   10  A    between atoms: C_37  and  O_38
REMARK   11  A    between atoms: O_38  and  C_39
REMARK                            x       y       z     vdW  Elec       q    Type
REMARK                         _______ _______ _______ _____ _____    ______ ____
ROOT
ATOM      1  C   UNL     1       4.041   2.387  -0.002  0.00  0.00    +0.100 A 
ATOM      2  C   UNL     1       3.063   1.462  -0.366  0.00  0.00    +0.035 A 
ATOM      3  C   UNL     1       1.728   1.869  -0.407  0.00  0.00    +0.083 A 
ATOM      4  C   UNL     1       1.377   3.203  -0.084  0.00  0.00    +0.150 A 
ATOM      5  N   UNL     1       0.104   3.565  -0.131  0.00  0.00    -0.211 NA
ATOM      6  C   UNL     1      -0.866   2.716  -0.472  0.00  0.00    +0.143 A 
ATOM      7  C   UNL     1      -2.194   3.185  -0.495  0.00  0.00    +0.047 A 
ATOM      8  C   UNL     1      -3.202   2.336  -0.842  0.00  0.00    +0.005 A 
ATOM      9  C   UNL     1      -2.905   1.006  -1.170  0.00  0.00    +0.018 A 
ATOM     10  C   UNL     1      -1.625   0.572  -1.143  0.00  0.00    +0.096 A 
ATOM     11  N   UNL     1      -0.610   1.415  -0.802  0.00  0.00    -0.268 N 
ATOM     12  C   UNL     1       0.658   0.942  -0.781  0.00  0.00    +0.268 A 
ATOM     13  O   UNL     1       0.902  -0.216  -1.069  0.00  0.00    -0.267 OA
ATOM     14  N   UNL     1       2.353   4.098   0.271  0.00  0.00    -0.309 N 
ATOM     15  C   UNL     1       3.665   3.715   0.317  0.00  0.00    +0.142 A 
ATOM     16  N   UNL     1       4.598   4.599   0.664  0.00  0.00    -0.158 NA
ENDROOT
BRANCH   1  17
ATOM     17  C   UNL     1       5.453   1.986   0.051  0.00  0.00    +0.343 C 
ATOM     18  O   UNL     1       6.303   2.796   0.369  0.00  0.00    -0.245 OA
BRANCH  17  19
ATOM     19  O   UNL     1       5.807   0.721  -0.253  0.00  0.00    -0.461 OA
BRANCH  19  21
ATOM     20  C   UNL     1       7.426  -1.073  -0.555  0.00  0.00    +0.048 C 
ATOM     21  C   UNL     1       7.220   0.396  -0.179  0.00  0.00    +0.229 C 
ENDBRANCH  19  21
ENDBRANCH  17  19
ENDBRANCH   1  17
BRANCH  16  22
ATOM     22  C   UNL     1       4.250   5.720   1.304  0.00  0.00    +0.269 C 
ATOM     23  O   UNL     1       3.754   5.658   2.416  0.00  0.00    -0.268 OA
BRANCH  22  24
ATOM     24  C   UNL     1       4.469   7.036   0.664  0.00  0.00    +0.039 A 
ATOM     25  C   UNL     1       4.997   7.106  -0.627  0.00  0.00    +0.014 A 
ATOM     26  C   UNL     1       5.196   8.331  -1.224  0.00  0.00    +0.009 A 
ATOM     27  C   UNL     1       4.880   9.502  -0.535  0.00  0.00    -0.018 A 
ATOM     28  C   UNL     1       4.358   9.433   0.756  0.00  0.00    +0.009 A 
ATOM     29  C   UNL     1       4.154   8.209   1.353  0.00  0.00    +0.014 A 
BRANCH  27  30
ATOM     30  C   UNL     1       5.100  10.821  -1.177  0.00  0.00    -0.018 A 
ATOM     31  C   UNL     1       4.780  11.993  -0.494  0.00  0.00    +0.008 A 
ATOM     32  C   UNL     1       4.990  13.218  -1.094  0.00  0.00    +0.001 A 
ATOM     33  C   UNL     1       5.508  13.283  -2.375  0.00  0.00    +0.000 A 
ATOM     34  C   UNL     1       5.823  12.123  -3.060  0.00  0.00    +0.001 A 
ATOM     35  C   UNL     1       5.621  10.893  -2.467  0.00  0.00    +0.008 A 
ENDBRANCH  27  30
ENDBRANCH  22  24
ENDBRANCH  16  22
BRANCH  14  36
ATOM     36  C   UNL     1       1.986   5.477   0.604  0.00  0.00    +0.153 C 
BRANCH  36  37
ATOM     37  C   UNL     1       0.637   5.814  -0.033  0.00  0.00    +0.181 C 
BRANCH  37  38
ATOM     38  O   UNL     1       0.352   7.201   0.161  0.00  0.00    -0.381 OA
ATOM     39  C   UNL     1      -0.922   7.608  -0.341  0.00  0.00    +0.194 C 
ENDBRANCH  37  38
ENDBRANCH  36  37
ENDBRANCH  14  36
TORSDOF 9
