REMARK  Name = ZINC44861345
REMARK  10 active torsions:
REMARK  status: ('A' for Active; 'I' for Inactive)
REMARK    1  A    between atoms: C_1  and  C_2
REMARK    2  A    between atoms: C_2  and  C_3
REMARK    3  A    between atoms: C_3  and  C_4
REMARK    4  A    between atoms: C_4  and  C_5
REMARK    5  A    between atoms: C_4  and  C_8
REMARK    6  A    between atoms: C_4  and  C_12
REMARK    7  A    between atoms: C_5  and  C_6
REMARK    8  A    between atoms: C_6  and  C_7
REMARK    9  A    between atoms: N_9  and  O_10
REMARK   10  A    between atoms: N_14  and  C_15
REMARK                            x       y       z     vdW  Elec       q    Type
REMARK                         _______ _______ _______ _____ _____    ______ ____
ROOT
ATOM      1  C   UNL     1       0.070  -2.242  -1.468  0.00  0.00    +0.105 C 
ENDROOT
BRANCH   1   2
ATOM      2  C   UNL     1      -0.831  -3.374  -1.045  0.00  0.00    +0.147 C 
ATOM      3  N   UNL     1      -0.597  -4.008   0.056  0.00  0.00    -0.076 NA
ATOM      4  N   UNL     1      -1.902  -3.733  -1.831  0.00  0.00    -0.343 N 
ATOM      5  H   UNL     1      -2.024  -3.322  -2.702  0.00  0.00    +0.144 HD
ATOM      6  H   UNL     1      -2.536  -4.396  -1.516  0.00  0.00    +0.144 HD
BRANCH   3   7
ATOM      7  O   UNL     1      -1.443  -5.072   0.454  0.00  0.00    -0.408 OA
ATOM      8  H   UNL     1      -1.188  -5.485   1.291  0.00  0.00    +0.328 HD
ENDBRANCH   3   7
ENDBRANCH   1   2
BRANCH   1   9
ATOM      9  C   UNL     1       0.728  -2.587  -2.779  0.00  0.00    +0.231 C 
ATOM     10  O   UNL     1       0.622  -1.837  -3.727  0.00  0.00    -0.274 OA
ATOM     11  N   UNL     1       1.435  -3.728  -2.898  0.00  0.00    -0.284 N 
ATOM     12  H   UNL     1       1.585  -4.289  -2.121  0.00  0.00    +0.155 HD
BRANCH  11  13
ATOM     13  C   UNL     1       1.954  -4.103  -4.142  0.00  0.00    +0.047 A 
ATOM     14  C   UNL     1       2.522  -3.149  -4.976  0.00  0.00    +0.024 A 
ATOM     15  C   UNL     1       3.034  -3.522  -6.203  0.00  0.00    +0.002 A 
ATOM     16  C   UNL     1       2.980  -4.845  -6.603  0.00  0.00    +0.001 A 
ATOM     17  C   UNL     1       2.415  -5.798  -5.776  0.00  0.00    +0.016 A 
ATOM     18  C   UNL     1       1.906  -5.432  -4.544  0.00  0.00    +0.035 A 
ATOM     19  I   UNL     1       1.057  -6.878  -3.288  0.00  0.00    -0.042 I 
ENDBRANCH  11  13
ENDBRANCH   1   9
BRANCH   1  20
ATOM     20  C   UNL     1      -0.759  -0.966  -1.633  0.00  0.00    +0.023 C 
BRANCH  20  22
ATOM     21  C   UNL     1      -2.256   0.660  -0.468  0.00  0.00    +0.004 C 
ATOM     22  C   UNL     1      -1.427  -0.616  -0.303  0.00  0.00    -0.002 C 
ENDBRANCH  20  22
ENDBRANCH   1  20
BRANCH   1  23
ATOM     23  C   UNL     1       1.143  -2.018  -0.401  0.00  0.00    +0.023 C 
BRANCH  23  24
ATOM     24  C   UNL     1       2.057  -0.868  -0.831  0.00  0.00    -0.002 C 
ATOM     25  C   UNL     1       3.131  -0.644   0.236  0.00  0.00    +0.004 C 
ENDBRANCH  23  24
ENDBRANCH   1  23
TORSDOF 8
