REMARK  Name = ZINC39551092
REMARK  7 active torsions:
REMARK  status: ('A' for Active; 'I' for Inactive)
REMARK    1  A    between atoms: C_4  and  N_7
REMARK    2  A    between atoms: N_10  and  C_11
REMARK    3  A    between atoms: C_14  and  N_17
REMARK    4  A    between atoms: C_18  and  C_20
REMARK    5  A    between atoms: C_20  and  C_21
REMARK    6  A    between atoms: C_21  and  N_22
REMARK    7  A    between atoms: C_23  and  C_25
REMARK                            x       y       z     vdW  Elec       q    Type
REMARK                         _______ _______ _______ _____ _____    ______ ____
ROOT
ATOM      1  C   UNL     1       4.961  -4.043   0.090  0.00  0.00    +0.035 A 
ATOM      2  C   UNL     1       3.772  -4.759   0.054  0.00  0.00    +0.025 A 
ATOM      3  C   UNL     1       3.797  -6.139   0.046  0.00  0.00    +0.025 A 
ATOM      4  C   UNL     1       5.012  -6.812   0.074  0.00  0.00    +0.033 A 
ATOM      5  C   UNL     1       6.201  -6.096   0.110  0.00  0.00    +0.025 A 
ATOM      6  C   UNL     1       6.176  -4.715   0.112  0.00  0.00    +0.025 A 
ENDROOT
BRANCH   1  10
ATOM      7  N   UNL     1       3.848  -0.647   0.634  0.00  0.00    -0.269 N 
ATOM      8  C   UNL     1       3.930  -1.990   0.715  0.00  0.00    +0.308 C 
ATOM      9  O   UNL     1       3.097  -2.614   1.345  0.00  0.00    -0.252 OA
ATOM     10  N   UNL     1       4.935  -2.642   0.098  0.00  0.00    -0.269 N 
ATOM     11  H   UNL     1       4.467  -0.157   0.071  0.00  0.00    +0.156 HD
ATOM     12  H   UNL     1       5.641  -2.142  -0.341  0.00  0.00    +0.156 HD
BRANCH   7  16
ATOM     13  C   UNL     1       0.935   1.396   2.801  0.00  0.00    +0.000 A 
ATOM     14  C   UNL     1       1.496   0.242   3.317  0.00  0.00    +0.002 A 
ATOM     15  C   UNL     1       2.462  -0.437   2.601  0.00  0.00    +0.023 A 
ATOM     16  C   UNL     1       2.869   0.039   1.362  0.00  0.00    +0.035 A 
ATOM     17  C   UNL     1       2.303   1.198   0.847  0.00  0.00    +0.023 A 
ATOM     18  C   UNL     1       1.338   1.873   1.567  0.00  0.00    +0.002 A 
ENDBRANCH   7  16
ENDBRANCH   1  10
BRANCH   4  19
ATOM     19  N   UNL     1       5.038  -8.212   0.067  0.00  0.00    -0.285 N 
ATOM     20  C   UNL     1       6.011  -8.872   0.726  0.00  0.00    +0.219 C 
ATOM     21  O   UNL     1       6.809  -8.258   1.403  0.00  0.00    -0.275 OA
ATOM     22  H   UNL     1       4.355  -8.707  -0.412  0.00  0.00    +0.155 HD
BRANCH  20  23
ATOM     23  C   UNL     1       6.109 -10.372   0.621  0.00  0.00    +0.115 C 
BRANCH  23  24
ATOM     24  C   UNL     1       7.291 -10.866   1.457  0.00  0.00    +0.113 C 
BRANCH  24  25
ATOM     25  N   UNL     1       7.386 -12.324   1.355  0.00  0.00    -0.311 N 
ATOM     26  C   UNL     1       8.360 -12.984   2.014  0.00  0.00    +0.245 C 
ATOM     27  O   UNL     1       9.159 -12.368   2.693  0.00  0.00    -0.270 OA
ATOM     28  H   UNL     1       6.748 -12.815   0.814  0.00  0.00    +0.149 HD
BRANCH  26  29
ATOM     29  C   UNL     1       8.455 -14.449   1.912  0.00  0.00    +0.044 A 
ATOM     30  C   UNL     1       9.480 -15.190   2.607  0.00  0.00    +0.020 A 
ATOM     31  C   UNL     1       9.458 -16.526   2.431  0.00  0.00    +0.046 A 
ATOM     32  S   UNL     1       8.071 -16.767   1.342  0.00  0.00    -0.104 S 
ATOM     33  C   UNL     1       7.567 -15.178   1.153  0.00  0.00    +0.058 A 
ENDBRANCH  26  29
ENDBRANCH  24  25
ENDBRANCH  23  24
ENDBRANCH  20  23
ENDBRANCH   4  19
TORSDOF 7
