REMARK  Name = ZINC21332068
REMARK  7 active torsions:
REMARK  status: ('A' for Active; 'I' for Inactive)
REMARK    1  A    between atoms: C_1  and  C_2
REMARK    2  A    between atoms: C_8  and  N_10
REMARK    3  A    between atoms: C_14  and  C_16
REMARK    4  A    between atoms: C_16  and  O_17
REMARK    5  A    between atoms: O_17  and  C_18
REMARK    6  A    between atoms: C_18  and  C_20
REMARK    7  A    between atoms: C_22  and  N_28
REMARK                            x       y       z     vdW  Elec       q    Type
REMARK                         _______ _______ _______ _____ _____    ______ ____
ROOT
ATOM      1  C   UNL     1       2.279   5.686   0.010  0.00  0.00    +0.328 C 
ENDROOT
BRANCH   1   6
ATOM      2  N   UNL     1       5.266   9.453   0.001  0.00  0.00    -0.296 N 
ATOM      3  C   UNL     1       5.090   8.117  -0.004  0.00  0.00    +0.306 C 
ATOM      4  O   UNL     1       6.055   7.377  -0.017  0.00  0.00    -0.252 OA
ATOM      5  N   UNL     1       3.846   7.600   0.005  0.00  0.00    -0.237 N 
ATOM      6  C   UNL     1       3.670   6.264  -0.000  0.00  0.00    +0.258 C 
ATOM      7  O   UNL     1       4.633   5.526  -0.013  0.00  0.00    -0.272 OA
ATOM      8  H   UNL     1       4.393  10.122   0.013  0.00  0.00    +0.151 HD
ATOM      9  H   UNL     1       2.973   8.269   0.016  0.00  0.00    +0.159 HD
BRANCH   2  16
ATOM     10  C   UNL     1       6.050  11.348  -2.044  0.00  0.00    +0.009 C 
ATOM     11  C   UNL     1       6.583  11.420  -0.611  0.00  0.00    +0.006 C 
ATOM     12  C   UNL     1       5.667  12.312   0.229  0.00  0.00    +0.005 C 
ATOM     13  C   UNL     1       6.200  12.384   1.662  0.00  0.00    +0.000 C 
ATOM     14  C   UNL     1       6.235  10.978   2.264  0.00  0.00    +0.002 C 
ATOM     15  C   UNL     1       7.151  10.086   1.423  0.00  0.00    +0.022 C 
ATOM     16  C   UNL     1       6.619  10.014  -0.009  0.00  0.00    +0.077 C 
ENDBRANCH   2  16
ENDBRANCH   1   6
BRANCH   1  17
ATOM     17  O   UNL     1       2.356   4.236   0.002  0.00  0.00    -0.451 OA
BRANCH  17  18
ATOM     18  C   UNL     1       1.190   3.561   0.009  0.00  0.00    +0.360 C 
ATOM     19  O   UNL     1       0.138   4.168   0.022  0.00  0.00    -0.243 OA
BRANCH  18  20
ATOM     20  C   UNL     1       1.192   2.082   0.002  0.00  0.00    +0.169 A 
ATOM     21  C   UNL     1      -0.017   1.391   0.010  0.00  0.00    +0.095 A 
ATOM     22  C   UNL     1       0.002  -0.004   0.002  0.00  0.00    +0.067 A 
ATOM     23  C   UNL     1       1.238  -0.649  -0.013  0.00  0.00    +0.100 A 
ATOM     24  C   UNL     1       2.398   0.109  -0.020  0.00  0.00    +0.150 A 
ATOM     25  N   UNL     1       2.348   1.425  -0.013  0.00  0.00    -0.226 NA
ATOM     26 CL   UNL     1       3.940  -0.687  -0.040  0.00  0.00    -0.060 Cl
ATOM     27 CL   UNL     1       1.322  -2.383  -0.024  0.00  0.00    -0.078 Cl
ATOM     28 CL   UNL     1      -1.524   2.252   0.022  0.00  0.00    -0.079 Cl
BRANCH  22  29
ATOM     29  N   UNL     1      -1.185  -0.734   0.009  0.00  0.00    -0.356 N 
ATOM     30  H   UNL     1      -1.154  -1.834   0.003  0.00  0.00    +0.142 HD
ATOM     31  H   UNL     1      -2.152  -0.211   0.021  0.00  0.00    +0.142 HD
ENDBRANCH  22  29
ENDBRANCH  18  20
ENDBRANCH  17  18
ENDBRANCH   1  17
TORSDOF 6
