REMARK  Name = ZINC08685887
REMARK  6 active torsions:
REMARK  status: ('A' for Active; 'I' for Inactive)
REMARK    1  A    between atoms: C_1  and  C_2
REMARK    2  A    between atoms: C_5  and  S_8
REMARK    3  A    between atoms: S_8  and  N_11
REMARK    4  A    between atoms: N_11  and  C_12
REMARK    5  A    between atoms: C_24  and  S_26
REMARK    6  A    between atoms: S_26  and  C_27
REMARK                            x       y       z     vdW  Elec       q    Type
REMARK                         _______ _______ _______ _____ _____    ______ ____
ROOT
ATOM      1  C   UNL     1       2.512  -4.699   1.113  0.00  0.00    +0.125 C 
ATOM      2  C   UNL     1       3.322  -3.454   0.846  0.00  0.00    -0.019 A 
ATOM      3  C   UNL     1       3.018  -2.151   0.593  0.00  0.00    +0.006 A 
ATOM      4  C   UNL     1       4.035  -1.217   0.385  0.00  0.00    +0.001 A 
ATOM      5  C   UNL     1       5.357  -1.556   0.423  0.00  0.00    +0.008 A 
ATOM      6  C   UNL     1       5.706  -2.892   0.681  0.00  0.00    -0.017 A 
ATOM      7  C   UNL     1       4.665  -3.814   0.888  0.00  0.00    -0.009 A 
ATOM      8  C   UNL     1       4.895  -5.161   1.150  0.00  0.00    -0.024 A 
ATOM      9  C   UNL     1       6.186  -5.589   1.206  0.00  0.00    +0.005 A 
ATOM     10  C   UNL     1       7.236  -4.691   1.005  0.00  0.00    +0.001 A 
ATOM     11  C   UNL     1       7.026  -3.368   0.745  0.00  0.00    +0.008 A 
ATOM     12  C   UNL     1       3.547  -5.827   1.314  0.00  0.00    +0.108 C 
ENDROOT
BRANCH   1  13
ATOM     13  N   UNL     1       1.651  -4.999  -0.034  0.00  0.00    -0.181 NA
ATOM     14  H   UNL     1       2.011  -5.473  -0.800  0.00  0.00    +0.149 HD
BRANCH  13  15
ATOM     15  S   UNL     1       0.063  -4.530  -0.023  0.00  0.00    +0.059 S 
ATOM     16  O   UNL     1      -0.476  -4.950   1.223  0.00  0.00    -0.153 OA
ATOM     17  O   UNL     1      -0.490  -4.937  -1.267  0.00  0.00    -0.153 OA
BRANCH  15  22
ATOM     18  C   UNL     1      -0.018   1.503   0.010  0.00  0.00    +0.044 C 
ATOM     19  C   UNL     1       0.002  -0.004   0.002  0.00  0.00    -0.050 A 
ATOM     20  C   UNL     1       0.006  -0.689  -1.199  0.00  0.00    +0.005 A 
ATOM     21  C   UNL     1       0.025  -2.071  -1.206  0.00  0.00    +0.029 A 
ATOM     22  C   UNL     1       0.040  -2.768  -0.013  0.00  0.00    +0.105 A 
ATOM     23  C   UNL     1       0.037  -2.084   1.188  0.00  0.00    +0.029 A 
ATOM     24  C   UNL     1       0.023  -0.702   1.195  0.00  0.00    +0.005 A 
ENDBRANCH  15  22
ENDBRANCH  13  15
ENDBRANCH   1  13
BRANCH  12  25
ATOM     25  S   UNL     1       3.392  -6.533   2.978  0.00  0.00    -0.074 S 
BRANCH  25  26
ATOM     26  C   UNL     1       4.529  -7.879   2.977  0.00  0.00    +0.211 A 
ATOM     27  N   UNL     1       4.755  -8.706   4.004  0.00  0.00    -0.188 NA
ATOM     28  C   UNL     1       5.663  -9.597   3.664  0.00  0.00    +0.209 A 
ATOM     29  N   UNL     1       6.036  -9.346   2.391  0.00  0.00    -0.246 N 
ATOM     30  H   UNL     1       6.689  -9.838   1.870  0.00  0.00    +0.192 HD
ATOM     31  N   UNL     1       5.286  -8.237   1.968  0.00  0.00    -0.144 NA
ATOM     32  N   UNL     1       6.149 -10.610   4.469  0.00  0.00    -0.328 N 
ATOM     33  H   UNL     1       5.818 -10.711   5.375  0.00  0.00    +0.145 HD
ATOM     34  H   UNL     1       6.821 -11.220   4.127  0.00  0.00    +0.145 HD
ENDBRANCH  25  26
ENDBRANCH  12  25
TORSDOF 5
