REMARK  Name = ZINC65827345
REMARK  11 active torsions:
REMARK  status: ('A' for Active; 'I' for Inactive)
REMARK    1  A    between atoms: C_1  and  C_2
REMARK    2  A    between atoms: C_6  and  O_21
REMARK    3  A    between atoms: C_7  and  N_8
REMARK    4  A    between atoms: N_11  and  C_12
REMARK    5  A    between atoms: C_12  and  C_13
REMARK    6  A    between atoms: C_12  and  C_14
REMARK    7  A    between atoms: N_16  and  C_17
REMARK    8  A    between atoms: C_17  and  C_18
REMARK    9  A    between atoms: C_17  and  C_19
REMARK   10  A    between atoms: C_17  and  C_20
REMARK   11  A    between atoms: O_21  and  C_22
REMARK                            x       y       z     vdW  Elec       q    Type
REMARK                         _______ _______ _______ _____ _____    ______ ____
ROOT
ATOM      1  N   UNL     1       0.025  -0.011   2.418  0.00  0.00    -0.266 N 
ATOM      2  C   UNL     1      -0.355  -0.637   3.549  0.00  0.00    +0.305 C 
ATOM      3  O   UNL     1      -0.612  -1.825   3.530  0.00  0.00    -0.252 OA
ATOM      4  N   UNL     1      -0.451   0.054   4.702  0.00  0.00    -0.288 N 
ATOM      5  H   UNL     1       0.300   0.919   2.447  0.00  0.00    +0.156 HD
ATOM      6  H   UNL     1      -0.246   1.002   4.718  0.00  0.00    +0.151 HD
ENDROOT
BRANCH   1  13
ATOM      7  C   UNL     1       2.439  -1.254   1.572  0.00  0.00    +0.046 C 
ATOM      8  C   UNL     1       1.179  -1.324   0.750  0.00  0.00    -0.025 A 
ATOM      9  C   UNL     1       1.173  -2.010  -0.450  0.00  0.00    +0.020 A 
ATOM     10  C   UNL     1       0.017  -2.077  -1.207  0.00  0.00    +0.022 A 
ATOM     11  C   UNL     1      -1.138  -1.456  -0.768  0.00  0.00    +0.062 A 
ATOM     12  C   UNL     1      -1.140  -0.765   0.433  0.00  0.00    +0.143 A 
ATOM     13  C   UNL     1       0.022  -0.704   1.199  0.00  0.00    +0.080 A 
ATOM     14 BR   UNL     1       0.017  -3.018  -2.847  0.00  0.00    -0.050 Br
BRANCH  12  15
ATOM     15  O   UNL     1      -2.275  -0.154   0.866  0.00  0.00    -0.493 OA
ATOM     16  C   UNL     1      -3.430  -0.264   0.032  0.00  0.00    +0.277 C 
ENDBRANCH  12  15
ENDBRANCH   1  13
BRANCH   4  17
ATOM     17  C   UNL     1      -0.864  -0.627   5.932  0.00  0.00    +0.157 C 
ATOM     18  C   UNL     1       0.356  -1.274   6.591  0.00  0.00    +0.038 C 
BRANCH  17  19
ATOM     19  C   UNL     1      -1.475   0.374   6.879  0.00  0.00    +0.234 C 
ATOM     20  O   UNL     1      -1.557   1.541   6.558  0.00  0.00    -0.274 OA
ATOM     21  N   UNL     1      -1.930  -0.028   8.082  0.00  0.00    -0.309 N 
ATOM     22  H   UNL     1      -1.864  -0.961   8.339  0.00  0.00    +0.149 HD
BRANCH  21  23
ATOM     23  C   UNL     1      -2.524   0.945   9.003  0.00  0.00    +0.026 C 
ATOM     24  C   UNL     1      -3.744   1.592   8.344  0.00  0.00    +0.031 C 
ATOM     25  C   UNL     1      -2.955   0.234  10.287  0.00  0.00    +0.031 C 
ATOM     26  C   UNL     1      -1.493   2.025   9.339  0.00  0.00    +0.031 C 
ENDBRANCH  21  23
ENDBRANCH  17  19
ENDBRANCH   4  17
TORSDOF 5
