REMARK  Name = ZINC16226790
REMARK  8 active torsions:
REMARK  status: ('A' for Active; 'I' for Inactive)
REMARK    1  A    between atoms: C_1  and  O_2
REMARK    2  A    between atoms: O_2  and  C_3
REMARK    3  A    between atoms: C_8  and  C_9
REMARK    4  A    between atoms: N_11  and  C_12
REMARK    5  A    between atoms: C_12  and  N_14
REMARK    6  A    between atoms: N_14  and  C_15
REMARK    7  A    between atoms: C_18  and  O_30
REMARK    8  A    between atoms: C_19  and  C_21
REMARK                            x       y       z     vdW  Elec       q    Type
REMARK                         _______ _______ _______ _____ _____    ______ ____
ROOT
ATOM      1  N   UNL     1      -0.363  -6.271   0.765  0.00  0.00    -0.297 N 
ATOM      2  H   UNL     1      -0.509  -6.478  -0.171  0.00  0.00    +0.154 HD
ENDROOT
BRANCH   1   3
ATOM      3  C   UNL     1      -0.856  -7.129   1.757  0.00  0.00    +0.033 A 
ATOM      4  C   UNL     1      -1.521  -6.604   2.860  0.00  0.00    +0.027 A 
ATOM      5  C   UNL     1      -2.010  -7.442   3.842  0.00  0.00    +0.048 A 
ATOM      6  C   UNL     1      -1.841  -8.814   3.735  0.00  0.00    +0.127 A 
ATOM      7  C   UNL     1      -1.173  -9.349   2.627  0.00  0.00    +0.050 A 
ATOM      8  C   UNL     1      -0.686  -8.498   1.635  0.00  0.00    +0.037 A 
BRANCH   7   9
ATOM      9  C   UNL     1      -0.989 -10.810   2.506  0.00  0.00    +0.113 A 
ATOM     10  N   UNL     1      -0.391 -11.491   1.553  0.00  0.00    -0.239 NA
ATOM     11  C   UNL     1      -0.296 -12.835   1.573  0.00  0.00    +0.079 A 
ATOM     12  C   UNL     1       0.316 -13.682   0.618  0.00  0.00    +0.029 A 
ATOM     13  C   UNL     1       0.324 -15.031   0.788  0.00  0.00    +0.002 A 
ATOM     14  C   UNL     1      -0.262 -15.630   1.895  0.00  0.00    +0.001 A 
ATOM     15  C   UNL     1      -0.870 -14.839   2.851  0.00  0.00    +0.017 A 
ATOM     16  C   UNL     1      -0.884 -13.475   2.689  0.00  0.00    +0.040 A 
ATOM     17  S   UNL     1      -1.517 -12.103   3.623  0.00  0.00    -0.067 S 
ENDBRANCH   7   9
BRANCH   6  18
ATOM     18  O   UNL     1      -2.322  -9.636   4.703  0.00  0.00    -0.506 OA
ATOM     19  H   UNL     1      -3.228  -9.935   4.550  0.00  0.00    +0.292 HD
ENDBRANCH   6  18
ENDBRANCH   1   3
BRANCH   1  20
ATOM     20  C   UNL     1       0.314  -5.159   1.111  0.00  0.00    +0.141 C 
ATOM     21  S   UNL     1       0.478  -4.736   2.762  0.00  0.00    -0.018 S 
BRANCH  20  24
ATOM     22  C   UNL     1       1.539  -3.266   0.504  0.00  0.00    +0.253 C 
ATOM     23  O   UNL     1       1.655  -2.966   1.677  0.00  0.00    -0.270 OA
ATOM     24  N   UNL     1       0.862  -4.379   0.158  0.00  0.00    -0.263 N 
ATOM     25  H   UNL     1       0.769  -4.619  -0.777  0.00  0.00    +0.157 HD
BRANCH  22  31
ATOM     26  C   UNL     1       2.843  -1.255  -0.183  0.00  0.00    +0.132 A 
ATOM     27  C   UNL     1       3.408  -0.463  -1.171  0.00  0.00    +0.047 A 
ATOM     28  C   UNL     1       3.271  -0.812  -2.500  0.00  0.00    +0.019 A 
ATOM     29  C   UNL     1       2.570  -1.953  -2.857  0.00  0.00    +0.019 A 
ATOM     30  C   UNL     1       2.002  -2.752  -1.887  0.00  0.00    +0.032 A 
ATOM     31  C   UNL     1       2.138  -2.413  -0.538  0.00  0.00    +0.080 A 
ATOM     32 BR   UNL     1       2.390  -2.416  -4.682  0.00  0.00    -0.050 Br
BRANCH  26  34
ATOM     33  C   UNL     1       3.709   0.280   1.410  0.00  0.00    +0.277 C 
ATOM     34  O   UNL     1       2.978  -0.914   1.123  0.00  0.00    -0.494 OA
ENDBRANCH  26  34
ENDBRANCH  22  31
ENDBRANCH  20  24
ENDBRANCH   1  20
TORSDOF 7
