REMARK  Name = ZINC39545474
REMARK  8 active torsions:
REMARK  status: ('A' for Active; 'I' for Inactive)
REMARK    1  A    between atoms: C_1  and  C_2
REMARK    2  A    between atoms: C_2  and  O_3
REMARK    3  A    between atoms: O_3  and  C_4
REMARK    4  A    between atoms: C_6  and  C_18
REMARK    5  A    between atoms: N_20  and  C_21
REMARK    6  A    between atoms: N_20  and  S_28
REMARK    7  A    between atoms: C_26  and  O_27
REMARK    8  A    between atoms: S_28  and  C_29
REMARK                            x       y       z     vdW  Elec       q    Type
REMARK                         _______ _______ _______ _____ _____    ______ ____
ROOT
ATOM      1  C   UNL     1       0.602  -2.296  -0.634  0.00  0.00    +0.134 C 
ATOM      2  C   UNL     1       1.558  -2.519  -1.784  0.00  0.00    +0.107 C 
ATOM      3  C   UNL     1       1.550  -4.046  -1.989  0.00  0.00    +0.153 C 
ATOM      4  N   UNL     1       0.641  -4.543  -0.943  0.00  0.00    -0.367 NA
ATOM      5  C   UNL     1       0.134  -3.450  -0.226  0.00  0.00    +0.113 C 
ATOM      6  N   UNL     1      -0.812  -3.649   0.809  0.00  0.00    -0.301 N 
ATOM      7  C   UNL     1      -1.722  -4.695   0.583  0.00  0.00    +0.037 A 
ATOM      8  C   UNL     1      -2.760  -4.912   1.478  0.00  0.00    +0.023 A 
ATOM      9  C   UNL     1      -3.649  -5.946   1.261  0.00  0.00    +0.002 A 
ATOM     10  C   UNL     1      -3.500  -6.760   0.152  0.00  0.00    +0.000 A 
ATOM     11  C   UNL     1      -2.469  -6.542  -0.741  0.00  0.00    +0.007 A 
ATOM     12  C   UNL     1      -1.574  -5.505  -0.535  0.00  0.00    -0.010 A 
ATOM     13  C   UNL     1      -0.477  -5.276  -1.548  0.00  0.00    +0.124 C 
ATOM     14  H   UNL     1      -0.830  -3.106   1.612  0.00  0.00    +0.153 HD
ATOM     15  H   UNL     1       1.145  -5.150  -0.314  0.00  0.00    +0.129 HD
ENDROOT
BRANCH   3  16
ATOM     16  C   UNL     1       2.934  -4.612  -1.801  0.00  0.00    +0.249 C 
ATOM     17  O   UNL     1       3.219  -5.190  -0.773  0.00  0.00    -0.272 OA
ATOM     18  N   UNL     1       3.855  -4.475  -2.775  0.00  0.00    -0.209 N 
BRANCH  18  19
ATOM     19  C   UNL     1       3.498  -3.897  -4.001  0.00  0.00    +0.089 A 
ATOM     20  C   UNL     1       3.518  -2.519  -4.152  0.00  0.00    +0.028 A 
ATOM     21  C   UNL     1       3.167  -1.951  -5.362  0.00  0.00    +0.002 A 
ATOM     22  C   UNL     1       2.794  -2.754  -6.424  0.00  0.00    +0.004 A 
ATOM     23  C   UNL     1       2.772  -4.129  -6.281  0.00  0.00    +0.047 A 
ATOM     24  C   UNL     1       3.129  -4.706  -5.073  0.00  0.00    +0.139 A 
BRANCH  24  25
ATOM     25  O   UNL     1       3.113  -6.059  -4.933  0.00  0.00    -0.505 OA
ATOM     26  H   UNL     1       2.266  -6.413  -4.629  0.00  0.00    +0.292 HD
ENDBRANCH  24  25
ENDBRANCH  18  19
BRANCH  18  27
ATOM     27  S   UNL     1       5.409  -4.990  -2.523  0.00  0.00    -0.055 S 
ATOM     28  C   UNL     1       5.421  -6.683  -3.176  0.00  0.00    +0.107 C 
ENDBRANCH  18  27
ENDBRANCH   3  16
BRANCH   1  29
ATOM     29  O   UNL     1       0.283  -1.085  -0.101  0.00  0.00    -0.493 OA
BRANCH  29  31
ATOM     30  C   UNL     1      -0.969   0.360   1.377  0.00  0.00    +0.048 C 
ATOM     31  C   UNL     1      -0.617  -1.083   1.010  0.00  0.00    +0.225 C 
ENDBRANCH  29  31
ENDBRANCH   1  29
TORSDOF 6
