REMARK  Name = ZINC00690982
REMARK  6 active torsions:
REMARK  status: ('A' for Active; 'I' for Inactive)
REMARK    1  A    between atoms: C_1  and  C_2
REMARK    2  A    between atoms: C_5  and  C_9
REMARK    3  A    between atoms: C_6  and  C_8
REMARK    4  A    between atoms: C_15  and  C_17
REMARK    5  A    between atoms: C_20  and  C_26
REMARK    6  A    between atoms: C_21  and  N_23
REMARK                            x       y       z     vdW  Elec       q    Type
REMARK                         _______ _______ _______ _____ _____    ______ ____
ROOT
ATOM      1  C   UNL     1       0.102  -3.365   0.440  0.00  0.00    +0.165 C 
ATOM      2  N   UNL     1      -0.135  -4.157   1.662  0.00  0.00    -0.281 N 
ATOM      3  C   UNL     1       1.017  -4.886   2.187  0.00  0.00    +0.120 C 
ATOM      4  C   UNL     1       1.967  -5.325   1.034  0.00  0.00    +0.090 C 
ATOM      5  S   UNL     1       1.830  -3.811  -0.020  0.00  0.00    -0.132 S 
ATOM      6  C   UNL     1      -1.342  -4.206   2.259  0.00  0.00    +0.248 C 
ATOM      7  O   UNL     1      -2.255  -3.522   1.839  0.00  0.00    -0.270 OA
ENDROOT
BRANCH   1  12
ATOM      8  C   UNL     1      -0.317   2.289   1.562  0.00  0.00    +0.044 C 
ATOM      9  C   UNL     1      -0.207   0.814   1.270  0.00  0.00    -0.050 A 
ATOM     10  C   UNL     1      -0.185  -0.097   2.309  0.00  0.00    +0.004 A 
ATOM     11  C   UNL     1      -0.085  -1.449   2.041  0.00  0.00    +0.007 A 
ATOM     12  C   UNL     1      -0.007  -1.890   0.733  0.00  0.00    -0.014 A 
ATOM     13  C   UNL     1      -0.029  -0.979  -0.306  0.00  0.00    -0.044 A 
ATOM     14  C   UNL     1      -0.135   0.373  -0.038  0.00  0.00    +0.007 A 
ATOM     15  C   UNL     1       0.057  -1.460  -1.732  0.00  0.00    +0.044 C 
ENDBRANCH   1  12
BRANCH   6  16
ATOM     16  C   UNL     1      -1.556  -5.090   3.424  0.00  0.00    +0.039 A 
ATOM     17  C   UNL     1      -2.741  -5.817   3.544  0.00  0.00    +0.013 A 
ATOM     18  C   UNL     1      -2.933  -6.645   4.631  0.00  0.00    +0.006 A 
ATOM     19  C   UNL     1      -1.956  -6.747   5.606  0.00  0.00    -0.020 A 
ATOM     20  C   UNL     1      -0.782  -6.025   5.496  0.00  0.00    +0.130 A 
ATOM     21  C   UNL     1      -0.576  -5.197   4.411  0.00  0.00    +0.046 A 
ATOM     22  C   UNL     1      -2.175  -7.649   6.794  0.00  0.00    +0.046 C 
BRANCH  20  23
ATOM     23  N   UNL     1       0.257  -6.139   6.545  0.00  0.00    +0.057 N 
ATOM     24  O   UNL     1      -0.068  -6.240   7.715  0.00  0.00    -0.126 OA
ATOM     25  O   UNL     1       1.435  -6.134   6.238  0.00  0.00    -0.126 OA
ENDBRANCH  20  23
ENDBRANCH   6  16
TORSDOF 3
