REMARK  Name = ZINC35741604
REMARK  8 active torsions:
REMARK  status: ('A' for Active; 'I' for Inactive)
REMARK    1  A    between atoms: C_4  and  C_7
REMARK    2  A    between atoms: C_7  and  N_8
REMARK    3  A    between atoms: C_9  and  S_13
REMARK    4  A    between atoms: S_13  and  C_14
REMARK    5  A    between atoms: C_20  and  S_27
REMARK    6  A    between atoms: S_27  and  C_28
REMARK    7  A    between atoms: N_32  and  C_33
REMARK    8  A    between atoms: C_33  and  C_34
REMARK                            x       y       z     vdW  Elec       q    Type
REMARK                         _______ _______ _______ _____ _____    ______ ____
ROOT
ATOM      1  C   UNL     1       6.507   1.951   3.130  0.00  0.00    +0.067 C 
ATOM      2  C   UNL     1       5.546   2.107   4.285  0.00  0.00    +0.017 C 
ATOM      3  C   UNL     1       4.592   3.276   4.243  0.00  0.00    +0.016 C 
ATOM      4  C   UNL     1       5.238   4.632   3.982  0.00  0.00    +0.060 C 
ATOM      5  C   UNL     1       6.242   4.987   5.076  0.00  0.00    +0.067 C 
ATOM      6  C   UNL     1       7.383   4.007   5.225  0.00  0.00    +0.017 C 
ATOM      7  C   UNL     1       8.158   3.654   3.979  0.00  0.00    +0.016 C 
ATOM      8  C   UNL     1       7.311   3.204   2.794  0.00  0.00    +0.060 C 
ATOM      9  S   UNL     1       6.135   4.541   2.397  0.00  0.00    -0.152 S 
ENDROOT
BRANCH   1  10
ATOM     10  S   UNL     1       5.591   1.414   1.652  0.00  0.00    -0.080 S 
BRANCH  10  12
ATOM     11  N   UNL     1       4.152  -0.952   1.338  0.00  0.00    -0.216 N 
ATOM     12  C   UNL     1       4.920  -0.149   2.111  0.00  0.00    +0.210 A 
ATOM     13  N   UNL     1       5.070  -0.754   3.269  0.00  0.00    -0.101 NA
ATOM     14  N   UNL     1       4.450  -1.879   3.272  0.00  0.00    -0.022 NA
ATOM     15  N   UNL     1       3.863  -2.070   2.140  0.00  0.00    -0.043 NA
BRANCH  11  16
ATOM     16  C   UNL     1       3.711  -0.707  -0.038  0.00  0.00    +0.183 C 
BRANCH  16  20
ATOM     17  C   UNL     1      -0.017   1.378   0.010  0.00  0.00    +0.000 A 
ATOM     18  C   UNL     1       1.171   2.086   0.002  0.00  0.00    +0.000 A 
ATOM     19  C   UNL     1       2.377   1.411  -0.013  0.00  0.00    +0.005 A 
ATOM     20  C   UNL     1       2.396   0.029  -0.020  0.00  0.00    -0.026 A 
ATOM     21  C   UNL     1       1.208  -0.679  -0.012  0.00  0.00    +0.005 A 
ATOM     22  C   UNL     1       0.002  -0.004   0.002  0.00  0.00    +0.000 A 
ENDBRANCH  16  20
ENDBRANCH  11  16
ENDBRANCH  10  12
ENDBRANCH   1  10
BRANCH   5  23
ATOM     23  S   UNL     1       6.913   6.648   4.756  0.00  0.00    -0.080 S 
BRANCH  23  24
ATOM     24  C   UNL     1       7.929   6.975   6.159  0.00  0.00    +0.210 A 
ATOM     25  N   UNL     1       8.134   6.171   7.180  0.00  0.00    -0.101 NA
ATOM     26  N   UNL     1       8.927   6.716   8.029  0.00  0.00    -0.022 NA
ATOM     27  N   UNL     1       9.282   7.887   7.623  0.00  0.00    -0.043 NA
ATOM     28  N   UNL     1       8.650   8.098   6.386  0.00  0.00    -0.216 N 
BRANCH  28  29
ATOM     29  C   UNL     1       8.747   9.281   5.527  0.00  0.00    +0.183 C 
BRANCH  29  30
ATOM     30  C   UNL     1       7.669  10.264   5.903  0.00  0.00    -0.026 A 
ATOM     31  C   UNL     1       6.431  10.201   5.290  0.00  0.00    +0.005 A 
ATOM     32  C   UNL     1       5.442  11.103   5.635  0.00  0.00    +0.000 A 
ATOM     33  C   UNL     1       5.691  12.069   6.592  0.00  0.00    +0.000 A 
ATOM     34  C   UNL     1       6.928  12.132   7.205  0.00  0.00    +0.000 A 
ATOM     35  C   UNL     1       7.916  11.227   6.864  0.00  0.00    +0.005 A 
ENDBRANCH  29  30
ENDBRANCH  28  29
ENDBRANCH  23  24
ENDBRANCH   5  23
TORSDOF 8
