REMARK  Name = ZINC21317004
REMARK  12 active torsions:
REMARK  status: ('A' for Active; 'I' for Inactive)
REMARK    1  A    between atoms: C_1  and  C_2
REMARK    2  A    between atoms: C_2  and  C_26
REMARK    3  A    between atoms: N_3  and  N_4
REMARK    4  A    between atoms: C_8  and  S_11
REMARK    5  A    between atoms: N_9  and  N_10
REMARK    6  A    between atoms: S_11  and  C_12
REMARK    7  A    between atoms: C_12  and  C_13
REMARK    8  A    between atoms: N_15  and  C_16
REMARK    9  A    between atoms: C_29  and  O_34
REMARK   10  A    between atoms: C_30  and  O_32
REMARK   11  A    between atoms: O_32  and  C_33
REMARK   12  A    between atoms: O_34  and  C_35
REMARK                            x       y       z     vdW  Elec       q    Type
REMARK                         _______ _______ _______ _____ _____    ______ ____
ROOT
ATOM      1  N   UNL     1      -3.695  -1.003  -0.041  0.00  0.00    -0.204 N 
ATOM      2  C   UNL     1      -3.679  -2.390  -0.039  0.00  0.00    +0.254 A 
ATOM      3  N   UNL     1      -2.610  -3.149  -0.047  0.00  0.00    -0.109 NA
ATOM      4  N   UNL     1      -3.029  -4.486  -0.042  0.00  0.00    -0.119 NA
ATOM      5  C   UNL     1      -4.340  -4.500  -0.032  0.00  0.00    +0.210 A 
ATOM      6  N   UNL     1      -4.776  -3.206  -0.023  0.00  0.00    -0.211 N 
ATOM      7  H   UNL     1      -4.653  -0.463  -0.033  0.00  0.00    +0.178 HD
ENDROOT
BRANCH   1  10
ATOM      8  C   UNL     1      -3.817   1.749  -0.042  0.00  0.00    +0.068 C 
ATOM      9  C   UNL     1      -2.503   1.010  -0.053  0.00  0.00    +0.063 C 
ATOM     10  N   UNL     1      -2.489  -0.289  -0.052  0.00  0.00    -0.184 NA
BRANCH   9  11
ATOM     11  C   UNL     1      -1.235   1.761  -0.065  0.00  0.00    +0.001 A 
ATOM     12  C   UNL     1      -1.248   3.158  -0.061  0.00  0.00    +0.013 A 
ATOM     13  C   UNL     1      -0.060   3.858  -0.077  0.00  0.00    +0.050 A 
ATOM     14  C   UNL     1       1.149   3.179  -0.092  0.00  0.00    +0.162 A 
ATOM     15  C   UNL     1       1.170   1.787  -0.091  0.00  0.00    +0.162 A 
ATOM     16  C   UNL     1      -0.016   1.077  -0.075  0.00  0.00    +0.059 A 
BRANCH  15  17
ATOM     17  O   UNL     1       2.358   1.125  -0.105  0.00  0.00    -0.491 OA
ATOM     18  C   UNL     1       2.305  -0.303  -0.102  0.00  0.00    +0.277 C 
ENDBRANCH  15  17
BRANCH  14  19
ATOM     19  O   UNL     1       2.317   3.875  -0.109  0.00  0.00    -0.491 OA
ATOM     20  C   UNL     1       2.223   5.301  -0.109  0.00  0.00    +0.277 C 
ENDBRANCH  14  19
ENDBRANCH   9  11
ENDBRANCH   1  10
BRANCH   6  21
ATOM     21  N   UNL     1      -6.080  -2.798  -0.006  0.00  0.00    -0.294 N 
ATOM     22  H   UNL     1      -6.889  -3.543   0.006  0.00  0.00    +0.163 HD
ATOM     23  H   UNL     1      -6.321  -1.724  -0.003  0.00  0.00    +0.163 HD
ENDBRANCH   6  21
BRANCH   5  24
ATOM     24  S   UNL     1      -5.360  -5.937  -0.022  0.00  0.00    -0.075 S 
BRANCH  24  25
ATOM     25  C   UNL     1      -4.179  -7.314  -0.031  0.00  0.00    +0.173 C 
BRANCH  25  26
ATOM     26  C   UNL     1      -4.931  -8.620  -0.023  0.00  0.00    +0.228 C 
ATOM     27  O   UNL     1      -6.143  -8.622  -0.013  0.00  0.00    -0.275 OA
ATOM     28  N   UNL     1      -4.255  -9.786  -0.028  0.00  0.00    -0.284 N 
ATOM     29  H   UNL     1      -3.158  -9.786  -0.113  0.00  0.00    +0.155 HD
BRANCH  28  30
ATOM     30  C   UNL     1      -4.947 -10.994   0.074  0.00  0.00    +0.041 A 
ATOM     31  C   UNL     1      -6.189 -11.135  -0.506  0.00  0.00    +0.024 A 
ATOM     32  C   UNL     1      -6.887 -12.335  -0.410  0.00  0.00    +0.002 A 
ATOM     33  C   UNL     1      -6.364 -13.401   0.257  0.00  0.00    +0.008 A 
ATOM     34  C   UNL     1      -5.100 -13.299   0.862  0.00  0.00    -0.016 A 
ATOM     35  C   UNL     1      -4.378 -12.084   0.767  0.00  0.00    +0.003 A 
ATOM     36  C   UNL     1      -3.117 -11.982   1.375  0.00  0.00    +0.010 A 
ATOM     37  C   UNL     1      -2.601 -13.052   2.040  0.00  0.00    +0.001 A 
ATOM     38  C   UNL     1      -3.309 -14.249   2.131  0.00  0.00    +0.001 A 
ATOM     39  C   UNL     1      -4.535 -14.383   1.557  0.00  0.00    +0.008 A 
ENDBRANCH  28  30
ENDBRANCH  25  26
ENDBRANCH  24  25
ENDBRANCH   5  24
TORSDOF 9
