REMARK  Name = ZINC09665675
REMARK  7 active torsions:
REMARK  status: ('A' for Active; 'I' for Inactive)
REMARK    1  A    between atoms: C_1  and  C_2
REMARK    2  A    between atoms: C_5  and  S_8
REMARK    3  A    between atoms: S_8  and  N_11
REMARK    4  A    between atoms: C_17  and  C_19
REMARK    5  A    between atoms: C_17  and  C_20
REMARK    6  A    between atoms: C_17  and  N_59
REMARK    7  A    between atoms: N_22  and  C_23
REMARK                            x       y       z     vdW  Elec       q    Type
REMARK                         _______ _______ _______ _____ _____    ______ ____
ROOT
ATOM      1  C   UNL     1      -2.236   6.216   2.136  0.00  0.00    +0.016 C 
ATOM      2  C   UNL     1      -2.872   6.355   0.752  0.00  0.00    -0.004 C 
ENDROOT
BRANCH   1   9
ATOM      3  N   UNL     1      -0.191   2.402   2.039  0.00  0.00    -0.178 NA
ATOM      4  C   UNL     1       0.669   2.847   3.187  0.00  0.00    +0.107 C 
ATOM      5  C   UNL     1       0.516   4.301   3.298  0.00  0.00    -0.001 C 
ATOM      6  C   UNL     1      -0.921   4.762   3.515  0.00  0.00    -0.076 C 
ATOM      7  C   UNL     1      -2.271   3.813   1.734  0.00  0.00    -0.060 C 
ATOM      8  C   UNL     1      -1.619   2.487   2.167  0.00  0.00    +0.091 C 
ATOM      9  N   UNL     1      -1.433   4.970   2.172  0.00  0.00    +0.388 N 
ATOM     10  H   UNL     1      -0.639   5.064   1.527  0.00  0.00    -0.081 HD
BRANCH   3  11
ATOM     11  S   UNL     1       0.496   1.829   0.645  0.00  0.00    +0.061 S 
ATOM     12  O   UNL     1       1.807   2.373   0.585  0.00  0.00    -0.153 OA
ATOM     13  O   UNL     1      -0.459   2.025  -0.389  0.00  0.00    -0.153 OA
BRANCH  11  18
ATOM     14  C   UNL     1       1.136  -4.136   1.293  0.00  0.00    +0.044 C 
ATOM     15  C   UNL     1       0.976  -2.646   1.131  0.00  0.00    -0.050 A 
ATOM     16  C   UNL     1      -0.187  -2.131   0.590  0.00  0.00    +0.005 A 
ATOM     17  C   UNL     1      -0.333  -0.764   0.441  0.00  0.00    +0.029 A 
ATOM     18  C   UNL     1       0.683   0.087   0.835  0.00  0.00    +0.105 A 
ATOM     19  C   UNL     1       1.847  -0.429   1.371  0.00  0.00    +0.029 A 
ATOM     20  C   UNL     1       1.992  -1.795   1.524  0.00  0.00    +0.005 A 
ENDBRANCH  11  18
ENDBRANCH   3  11
ENDBRANCH   1   9
BRANCH   1  21
ATOM     21  C   UNL     1      -3.318   6.184   3.185  0.00  0.00    +0.203 C 
ATOM     22  O   UNL     1      -3.430   5.219   3.911  0.00  0.00    -0.277 OA
ATOM     23  N   UNL     1      -4.160   7.228   3.316  0.00  0.00    -0.287 N 
ATOM     24  H   UNL     1      -4.024   8.031   2.789  0.00  0.00    +0.155 HD
BRANCH  23  25
ATOM     25  C   UNL     1      -5.234   7.153   4.214  0.00  0.00    +0.035 A 
ATOM     26  C   UNL     1      -5.664   8.297   4.877  0.00  0.00    +0.025 A 
ATOM     27  C   UNL     1      -6.721   8.230   5.762  0.00  0.00    +0.029 A 
ATOM     28  C   UNL     1      -7.356   7.018   5.992  0.00  0.00    +0.067 A 
ATOM     29  C   UNL     1      -6.926   5.868   5.327  0.00  0.00    +0.069 A 
ATOM     30  C   UNL     1      -5.868   5.940   4.434  0.00  0.00    +0.051 A 
ATOM     31  N   UNL     1      -7.743   4.825   5.757  0.00  0.00    -0.306 N 
ATOM     32  H   UNL     1      -7.684   3.901   5.467  0.00  0.00    +0.170 HD
ATOM     33  C   UNL     1      -8.630   5.318   6.642  0.00  0.00    +0.325 A 
ATOM     34  O   UNL     1      -9.490   4.668   7.207  0.00  0.00    -0.247 OA
ATOM     35  N   UNL     1      -8.423   6.638   6.805  0.00  0.00    -0.306 N 
ATOM     36  H   UNL     1      -8.929   7.224   7.389  0.00  0.00    +0.170 HD
ENDBRANCH  23  25
ENDBRANCH   1  21
TORSDOF 5
