REMARK  Name = ZINC02843270
REMARK  7 active torsions:
REMARK  status: ('A' for Active; 'I' for Inactive)
REMARK    1  A    between atoms: C_8  and  C_10
REMARK    2  A    between atoms: C_13  and  N_17
REMARK    3  A    between atoms: C_15  and  O_16
REMARK    4  A    between atoms: N_17  and  C_18
REMARK    5  A    between atoms: C_18  and  N_20
REMARK    6  A    between atoms: C_21  and  C_23
REMARK    7  A    between atoms: C_26  and  C_30
REMARK                            x       y       z     vdW  Elec       q    Type
REMARK                         _______ _______ _______ _____ _____    ______ ____
ROOT
ATOM      1  C   UNL     1       3.010  -4.013  -0.070  0.00  0.00    +0.049 A 
ATOM      2  C   UNL     1       2.036  -4.979  -0.331  0.00  0.00    +0.016 A 
ATOM      3  C   UNL     1       2.374  -6.314  -0.333  0.00  0.00    +0.024 A 
ATOM      4  C   UNL     1       3.684  -6.705  -0.076  0.00  0.00    +0.036 A 
ATOM      5  C   UNL     1       4.660  -5.752   0.185  0.00  0.00    +0.069 A 
ATOM      6  C   UNL     1       4.331  -4.407   0.184  0.00  0.00    +0.128 A 
ENDROOT
BRANCH   1  14
ATOM      7  C   UNL     1       0.080   1.392  -0.385  0.00  0.00    +0.002 A 
ATOM      8  C   UNL     1       1.227   2.121  -0.107  0.00  0.00    +0.001 A 
ATOM      9  C   UNL     1       2.420   1.453   0.105  0.00  0.00    +0.017 A 
ATOM     10  C   UNL     1       2.447   0.082   0.036  0.00  0.00    +0.040 A 
ATOM     11  C   UNL     1       1.295  -0.689  -0.246  0.00  0.00    +0.079 A 
ATOM     12  C   UNL     1       0.096   0.034  -0.456  0.00  0.00    +0.029 A 
ATOM     13  N   UNL     1       1.479  -2.024  -0.280  0.00  0.00    -0.239 NA
ATOM     14  C   UNL     1       2.652  -2.581  -0.066  0.00  0.00    +0.113 A 
ATOM     15  S   UNL     1       3.699  -1.163   0.229  0.00  0.00    -0.067 S 
ENDBRANCH   1  14
BRANCH   6  16
ATOM     16  O   UNL     1       5.285  -3.473   0.433  0.00  0.00    -0.506 OA
ATOM     17  H   UNL     1       5.381  -3.249   1.369  0.00  0.00    +0.292 HD
ENDBRANCH   6  16
BRANCH   4  18
ATOM     18  N   UNL     1       4.020  -8.060  -0.079  0.00  0.00    -0.296 N 
ATOM     19  H   UNL     1       3.663  -8.646  -0.765  0.00  0.00    +0.154 HD
BRANCH  18  20
ATOM     20  C   UNL     1       4.839  -8.554   0.870  0.00  0.00    +0.141 C 
ATOM     21  S   UNL     1       5.356  -7.554   2.160  0.00  0.00    -0.018 S 
BRANCH  20  22
ATOM     22  N   UNL     1       5.252  -9.835   0.803  0.00  0.00    -0.263 N 
ATOM     23  C   UNL     1       6.072 -10.329   1.752  0.00  0.00    +0.252 C 
ATOM     24  O   UNL     1       6.439  -9.619   2.668  0.00  0.00    -0.270 OA
ATOM     25  H   UNL     1       4.960 -10.402   0.072  0.00  0.00    +0.157 HD
BRANCH  23  26
ATOM     26  C   UNL     1       6.525 -11.733   1.679  0.00  0.00    +0.072 A 
ATOM     27  C   UNL     1       6.108 -12.548   0.623  0.00  0.00    +0.017 A 
ATOM     28  C   UNL     1       6.529 -13.856   0.555  0.00  0.00    +0.020 A 
ATOM     29  C   UNL     1       7.375 -14.372   1.542  0.00  0.00    +0.055 A 
ATOM     30  C   UNL     1       7.793 -13.561   2.597  0.00  0.00    +0.058 A 
ATOM     31  C   UNL     1       7.376 -12.246   2.664  0.00  0.00    +0.137 A 
ATOM     32  F   UNL     1       7.784 -11.458   3.683  0.00  0.00    -0.205 F 
BRANCH  29  33
ATOM     33  C   UNL     1       7.812 -15.734   1.469  0.00  0.00    +0.099 C 
ATOM     34  N   UNL     1       8.158 -16.814   1.412  0.00  0.00    -0.191 NA
ENDBRANCH  29  33
ENDBRANCH  23  26
ENDBRANCH  20  22
ENDBRANCH  18  20
ENDBRANCH   4  18
TORSDOF 7
