REMARK  Name = ZINC04126519
REMARK  2 active torsions:
REMARK  status: ('A' for Active; 'I' for Inactive)
REMARK    1  A    between atoms: C_6  and  N_7
REMARK    2  A    between atoms: C_17  and  N_25
REMARK                            x       y       z     vdW  Elec       q    Type
REMARK                         _______ _______ _______ _____ _____    ______ ____
ROOT
ATOM      1  C   UNL     1       1.214  -0.682  -0.014  0.00  0.00    +0.026 A 
ATOM      2  C   UNL     1       2.402   0.024  -0.023  0.00  0.00    +0.051 A 
ATOM      3  C   UNL     1       2.387   1.409  -0.015  0.00  0.00    +0.162 A 
ATOM      4  C   UNL     1       1.174   2.091   0.002  0.00  0.00    +0.164 A 
ATOM      5  C   UNL     1      -0.017   1.384   0.010  0.00  0.00    +0.072 A 
ATOM      6  C   UNL     1       0.002  -0.004   0.002  0.00  0.00    +0.028 A 
ATOM      7  O   UNL     1       1.158   3.452   0.014  0.00  0.00    -0.486 OA
ATOM      8  C   UNL     1       0.596   4.083   1.167  0.00  0.00    +0.257 C 
ATOM      9  C   UNL     1       0.858   5.589   1.103  0.00  0.00    +0.201 C 
ATOM     10  O   UNL     1       1.277   6.054   2.387  0.00  0.00    -0.373 OA
ATOM     11  C   UNL     1       2.409   6.925   2.348  0.00  0.00    +0.201 C 
ATOM     12  C   UNL     1       3.663   6.149   2.756  0.00  0.00    +0.257 C 
ATOM     13  O   UNL     1       4.787   6.640   2.023  0.00  0.00    -0.486 OA
ATOM     14  C   UNL     1       6.009   6.154   2.368  0.00  0.00    +0.164 A 
ATOM     15  C   UNL     1       6.797   6.840   3.278  0.00  0.00    +0.072 A 
ATOM     16  C   UNL     1       8.043   6.339   3.632  0.00  0.00    +0.028 A 
ATOM     17  C   UNL     1       8.498   5.152   3.073  0.00  0.00    +0.026 A 
ATOM     18  C   UNL     1       7.712   4.468   2.165  0.00  0.00    +0.051 A 
ATOM     19  C   UNL     1       6.469   4.965   1.810  0.00  0.00    +0.162 A 
ATOM     20  O   UNL     1       5.697   4.290   0.914  0.00  0.00    -0.485 OA
ATOM     21  C   UNL     1       5.534   2.887   1.129  0.00  0.00    +0.270 C 
ATOM     22  C   UNL     1       4.044   2.560   1.243  0.00  0.00    +0.270 C 
ATOM     23  O   UNL     1       3.558   2.103  -0.021  0.00  0.00    -0.485 OA
ENDROOT
BRANCH   6  24
ATOM     24  N   UNL     1      -1.200  -0.720   0.010  0.00  0.00    -0.358 N 
ATOM     25  H   UNL     1      -2.046  -0.246   0.021  0.00  0.00    +0.142 HD
ATOM     26  H   UNL     1      -1.187  -1.690   0.005  0.00  0.00    +0.142 HD
ENDBRANCH   6  24
BRANCH  16  27
ATOM     27  N   UNL     1       8.839   7.031   4.551  0.00  0.00    -0.358 N 
ATOM     28  H   UNL     1       9.710   6.681   4.798  0.00  0.00    +0.142 HD
ATOM     29  H   UNL     1       8.521   7.860   4.941  0.00  0.00    +0.142 HD
ENDBRANCH  16  27
TORSDOF 2
