REMARK  Name = ZINC02737666
REMARK  7 active torsions:
REMARK  status: ('A' for Active; 'I' for Inactive)
REMARK    1  A    between atoms: C_1  and  C_2
REMARK    2  A    between atoms: C_2  and  C_3
REMARK    3  A    between atoms: C_10  and  N_15
REMARK    4  A    between atoms: C_11  and  C_12
REMARK    5  A    between atoms: C_16  and  C_18
REMARK    6  A    between atoms: C_18  and  O_19
REMARK    7  A    between atoms: O_19  and  C_20
REMARK                            x       y       z     vdW  Elec       q    Type
REMARK                         _______ _______ _______ _____ _____    ______ ____
ROOT
ATOM      1  C   UNL     1      -5.595   4.048   0.432  0.00  0.00    -0.006 C 
ATOM      2  C   UNL     1      -5.936   2.815  -0.411  0.00  0.00    +0.008 C 
ATOM      3  C   UNL     1      -5.080   1.628   0.034  0.00  0.00    +0.037 C 
ATOM      4  C   UNL     1      -3.616   2.051   0.030  0.00  0.00    -0.023 A 
ATOM      5  C   UNL     1      -3.268   3.356   0.036  0.00  0.00    -0.004 A 
ATOM      6  S   UNL     1      -1.498   3.353   0.035  0.00  0.00    -0.077 S 
ATOM      7  C   UNL     1      -1.221   1.643   0.017  0.00  0.00    +0.084 A 
ATOM      8  C   UNL     1      -2.505   1.115   0.020  0.00  0.00    +0.068 A 
ATOM      9  C   UNL     1      -4.190   4.536   0.049  0.00  0.00    +0.046 C 
ENDROOT
BRANCH   8  10
ATOM     10  C   UNL     1      -2.731  -0.334   0.014  0.00  0.00    +0.244 C 
ATOM     11  O   UNL     1      -2.819  -0.941   1.065  0.00  0.00    -0.270 OA
ATOM     12  N   UNL     1      -2.841  -0.994  -1.156  0.00  0.00    -0.325 N 
ATOM     13  H   UNL     1      -2.770  -0.510  -1.994  0.00  0.00    +0.145 HD
ATOM     14  H   UNL     1      -2.990  -1.952  -1.161  0.00  0.00    +0.145 HD
ENDBRANCH   8  10
BRANCH   7  15
ATOM     15  N   UNL     1      -0.011   0.966   0.007  0.00  0.00    -0.277 N 
ATOM     16  C   UNL     1       1.147   1.655   0.000  0.00  0.00    +0.255 C 
ATOM     17  O   UNL     1       1.130   2.868   0.007  0.00  0.00    -0.272 OA
ATOM     18  H   UNL     1       0.002  -0.004   0.002  0.00  0.00    +0.155 HD
BRANCH  16  19
ATOM     19  C   UNL     1       2.462   0.920  -0.017  0.00  0.00    +0.324 C 
BRANCH  19  20
ATOM     20  O   UNL     1       3.535   1.863  -0.022  0.00  0.00    -0.483 OA
BRANCH  20  21
ATOM     21  C   UNL     1       4.798   1.361  -0.036  0.00  0.00    +0.121 A 
ATOM     22  C   UNL     1       5.000  -0.012  -0.040  0.00  0.00    +0.047 A 
ATOM     23  C   UNL     1       6.284  -0.520  -0.060  0.00  0.00    +0.023 A 
ATOM     24  C   UNL     1       7.369   0.338  -0.066  0.00  0.00    +0.041 A 
ATOM     25  C   UNL     1       7.170   1.707  -0.057  0.00  0.00    +0.023 A 
ATOM     26  C   UNL     1       5.887   2.220  -0.042  0.00  0.00    +0.047 A 
ATOM     27 CL   UNL     1       8.982  -0.303  -0.084  0.00  0.00    -0.084 Cl
ENDBRANCH  20  21
ENDBRANCH  19  20
ENDBRANCH  16  19
ENDBRANCH   7  15
BRANCH   1  29
ATOM     28  C   UNL     1      -6.337   6.345   1.077  0.00  0.00    +0.004 C 
ATOM     29  C   UNL     1      -6.615   5.155   0.157  0.00  0.00    +0.000 C 
ENDBRANCH   1  29
TORSDOF 6
