REMARK  Name = ZINC09041999
REMARK  8 active torsions:
REMARK  status: ('A' for Active; 'I' for Inactive)
REMARK    1  A    between atoms: C_4  and  C_7
REMARK    2  A    between atoms: C_9  and  C_33
REMARK    3  A    between atoms: C_10  and  N_12
REMARK    4  A    between atoms: C_13  and  C_15
REMARK    5  A    between atoms: C_15  and  S_16
REMARK    6  A    between atoms: S_16  and  C_17
REMARK    7  A    between atoms: C_22  and  C_31
REMARK    8  A    between atoms: C_23  and  C_25
REMARK                            x       y       z     vdW  Elec       q    Type
REMARK                         _______ _______ _______ _____ _____    ______ ____
ROOT
ATOM      1  N   UNL     1      -3.421   7.924   1.486  0.00  0.00    -0.279 N 
ATOM      2  C   UNL     1      -2.159   7.516   1.246  0.00  0.00    +0.228 C 
ATOM      3  O   UNL     1      -1.244   8.311   1.296  0.00  0.00    -0.275 OA
ATOM      4  H   UNL     1      -4.250   7.203   1.440  0.00  0.00    +0.155 HD
ENDROOT
BRANCH   1   8
ATOM      5  C   UNL     1      -3.688  11.870   2.328  0.00  0.00    +0.022 A 
ATOM      6  C   UNL     1      -4.888  11.228   2.345  0.00  0.00    +0.031 A 
ATOM      7  C   UNL     1      -4.895   9.863   2.060  0.00  0.00    +0.066 A 
ATOM      8  C   UNL     1      -3.673   9.251   1.789  0.00  0.00    +0.084 A 
ATOM      9  S   UNL     1      -2.548  10.563   1.919  0.00  0.00    -0.073 S 
BRANCH   5  13
ATOM     10  C   UNL     1      -2.866  15.971   3.067  0.00  0.00    +0.000 A 
ATOM     11  C   UNL     1      -1.831  15.106   2.760  0.00  0.00    +0.001 A 
ATOM     12  C   UNL     1      -2.091  13.773   2.519  0.00  0.00    +0.009 A 
ATOM     13  C   UNL     1      -3.402  13.297   2.585  0.00  0.00    -0.011 A 
ATOM     14  C   UNL     1      -4.442  14.178   2.888  0.00  0.00    +0.009 A 
ATOM     15  C   UNL     1      -4.168  15.507   3.133  0.00  0.00    +0.001 A 
ENDBRANCH   5  13
BRANCH   7  16
ATOM     16  C   UNL     1      -6.146   9.096   2.051  0.00  0.00    +0.244 C 
ATOM     17  O   UNL     1      -6.128   7.904   1.804  0.00  0.00    -0.270 OA
ATOM     18  N   UNL     1      -7.316   9.711   2.317  0.00  0.00    -0.325 N 
ATOM     19  H   UNL     1      -8.253   9.136   2.310  0.00  0.00    +0.145 HD
ATOM     20  H   UNL     1      -7.332  10.788   2.540  0.00  0.00    +0.145 HD
ENDBRANCH   7  16
ENDBRANCH   1   8
BRANCH   2  21
ATOM     21  C   UNL     1      -1.884   6.072   0.915  0.00  0.00    +0.173 C 
BRANCH  21  22
ATOM     22  S   UNL     1      -0.108   5.841   0.648  0.00  0.00    -0.078 S 
BRANCH  22  23
ATOM     23  C   UNL     1      -0.074   4.116   0.289  0.00  0.00    +0.170 A 
ATOM     24  N   UNL     1       1.120   3.520   0.019  0.00  0.00    -0.301 N 
ATOM     25  H   UNL     1       2.046   4.114   0.026  0.00  0.00    +0.171 HD
ATOM     26  C   UNL     1       1.175   2.200  -0.258  0.00  0.00    +0.270 A 
ATOM     27  O   UNL     1       2.239   1.659  -0.501  0.00  0.00    -0.266 OA
ATOM     28  C   UNL     1      -0.034   1.456  -0.262  0.00  0.00    +0.142 A 
ATOM     29  C   UNL     1      -1.235   2.133   0.019  0.00  0.00    +0.096 A 
ATOM     30  N   UNL     1      -1.206   3.439   0.291  0.00  0.00    -0.222 NA
BRANCH  29  31
ATOM     31  C   UNL     1      -2.520   1.400   0.021  0.00  0.00    +0.002 A 
ATOM     32  C   UNL     1      -3.624   1.918  -0.658  0.00  0.00    +0.010 A 
ATOM     33  C   UNL     1      -4.818   1.227  -0.657  0.00  0.00    +0.001 A 
ATOM     34  C   UNL     1      -4.926   0.028   0.026  0.00  0.00    +0.000 A 
ATOM     35  C   UNL     1      -3.837  -0.488   0.706  0.00  0.00    +0.001 A 
ATOM     36  C   UNL     1      -2.636   0.190   0.708  0.00  0.00    +0.010 A 
ENDBRANCH  29  31
BRANCH  28  37
ATOM     37  C   UNL     1      -0.031   0.053  -0.549  0.00  0.00    +0.107 C 
ATOM     38  N   UNL     1      -0.029  -1.060  -0.778  0.00  0.00    -0.191 NA
ENDBRANCH  28  37
ENDBRANCH  22  23
ENDBRANCH  21  22
ENDBRANCH   2  21
TORSDOF 8
