REMARK  Name = ZINC42417662
REMARK  6 active torsions:
REMARK  status: ('A' for Active; 'I' for Inactive)
REMARK    1  A    between atoms: C_1  and  C_2
REMARK    2  A    between atoms: C_2  and  C_3
REMARK    3  A    between atoms: C_2  and  C_4
REMARK    4  A    between atoms: C_2  and  N_17
REMARK    5  A    between atoms: N_6  and  C_7
REMARK    6  A    between atoms: C_10  and  C_14
REMARK                            x       y       z     vdW  Elec       q    Type
REMARK                         _______ _______ _______ _____ _____    ______ ____
ROOT
ATOM      1  C   UNL     1      -1.411  -0.527   0.015  0.00  0.00    +0.205 C 
ATOM      2  O   UNL     1      -2.303   0.150   0.480  0.00  0.00    -0.277 OA
ATOM      3  N   UNL     1      -1.683  -1.749  -0.485  0.00  0.00    -0.287 N 
ATOM      4  H   UNL     1      -0.982  -2.263  -0.916  0.00  0.00    +0.155 HD
ENDROOT
BRANCH   3   5
ATOM      5  C   UNL     1      -2.969  -2.274  -0.381  0.00  0.00    +0.035 A 
ATOM      6  C   UNL     1      -4.073  -1.431  -0.480  0.00  0.00    +0.024 A 
ATOM      7  C   UNL     1      -5.337  -1.938  -0.380  0.00  0.00    +0.018 A 
ATOM      8  C   UNL     1      -5.528  -3.309  -0.176  0.00  0.00    +0.082 A 
ATOM      9  C   UNL     1      -4.419  -4.159  -0.076  0.00  0.00    +0.057 A 
ATOM     10  C   UNL     1      -3.147  -3.639  -0.184  0.00  0.00    +0.044 A 
ATOM     11 CL   UNL     1      -4.646  -5.862   0.176  0.00  0.00    -0.083 Cl
BRANCH   8  12
ATOM     12  C   UNL     1      -6.889  -3.856  -0.067  0.00  0.00    +0.388 C 
ATOM     13  O   UNL     1      -7.856  -3.112  -0.154  0.00  0.00    -0.241 OA
ATOM     14  O   UNL     1      -7.054  -5.056   0.111  0.00  0.00    -0.241 OA
ENDBRANCH   8  12
ENDBRANCH   3   5
BRANCH   1  16
ATOM     15  C   UNL     1      -0.023   1.528   0.010  0.00  0.00    -0.001 C 
ATOM     16  C   UNL     1       0.001  -0.002  -0.004  0.00  0.00    +0.002 C 
ATOM     17  C   UNL     1       0.752  -0.511   1.228  0.00  0.00    -0.001 C 
BRANCH  16  18
ATOM     18  N   UNL     1       0.681  -0.469  -1.220  0.00  0.00    +0.387 N 
ATOM     19  H   UNL     1       1.627  -0.117  -1.233  0.00  0.00    -0.089 HD
ATOM     20  H   UNL     1       0.697  -1.478  -1.229  0.00  0.00    -0.089 HD
ATOM     21  H   UNL     1       0.186  -0.133  -2.032  0.00  0.00    -0.089 HD
ENDBRANCH  16  18
ENDBRANCH   1  16
TORSDOF 4
