REMARK  Name = ZINC38999761
REMARK  6 active torsions:
REMARK  status: ('A' for Active; 'I' for Inactive)
REMARK    1  A    between atoms: C_4  and  C_8
REMARK    2  A    between atoms: C_8  and  S_9
REMARK    3  A    between atoms: S_9  and  C_10
REMARK    4  A    between atoms: C_14  and  C_18
REMARK    5  A    between atoms: N_16  and  N_17
REMARK    6  A    between atoms: C_21  and  C_24
REMARK                            x       y       z     vdW  Elec       q    Type
REMARK                         _______ _______ _______ _____ _____    ______ ____
ROOT
ATOM      1  C   UNL     1       5.894  -1.821   1.542  0.00  0.00    +0.214 C 
ATOM      2  N   UNL     1       5.883  -3.014   0.656  0.00  0.00    -0.228 NA
ATOM      3  N   UNL     1       7.292  -3.138   0.249  0.00  0.00    -0.234 NA
ATOM      4  C   UNL     1       7.751  -1.741   0.074  0.00  0.00    +0.185 C 
ATOM      5  N   UNL     1       6.861  -0.898   0.903  0.00  0.00    -0.197 NA
ATOM      6  H   UNL     1       5.288  -2.865  -0.145  0.00  0.00    +0.143 HD
ATOM      7  H   UNL     1       7.375  -3.657  -0.613  0.00  0.00    +0.143 HD
ENDROOT
BRANCH   4   8
ATOM      8  C   UNL     1       9.198  -1.601   0.552  0.00  0.00    +0.187 C 
ATOM      9  C   UNL     1      10.129  -2.437  -0.308  0.00  0.00    +0.034 C 
ATOM     10  C   UNL     1      10.665  -3.318   0.559  0.00  0.00    +0.091 C 
ATOM     11  N   UNL     1      10.174  -3.111   1.810  0.00  0.00    -0.154 NA
ATOM     12  N   UNL     1       9.361  -2.183   1.894  0.00  0.00    -0.176 NA
BRANCH  10  13
ATOM     13  C   UNL     1      11.652  -4.366   0.201  0.00  0.00    +0.002 A 
ATOM     14  C   UNL     1      12.094  -4.488  -1.115  0.00  0.00    +0.013 A 
ATOM     15  C   UNL     1      13.012  -5.464  -1.445  0.00  0.00    +0.039 A 
ATOM     16  C   UNL     1      13.494  -6.322  -0.469  0.00  0.00    +0.123 A 
ATOM     17  C   UNL     1      13.056  -6.205   0.840  0.00  0.00    +0.039 A 
ATOM     18  C   UNL     1      12.143  -5.228   1.179  0.00  0.00    +0.013 A 
ATOM     19  F   UNL     1      14.392  -7.277  -0.796  0.00  0.00    -0.205 F 
ENDBRANCH  10  13
ENDBRANCH   4   8
BRANCH   5  20
ATOM     20  N   UNL     1       6.176   0.092   0.089  0.00  0.00    -0.264 NA
ATOM     21  H   UNL     1       5.625   0.714   0.662  0.00  0.00    +0.137 HD
ATOM     22  H   UNL     1       6.831   0.609  -0.479  0.00  0.00    +0.137 HD
ENDBRANCH   5  20
BRANCH   1  23
ATOM     23  S   UNL     1       4.246  -1.066   1.609  0.00  0.00    -0.119 S 
BRANCH  23  24
ATOM     24  C   UNL     1       3.335  -2.105   2.784  0.00  0.00    +0.110 C 
BRANCH  24  28
ATOM     25  C   UNL     1      -0.532  -0.421   3.476  0.00  0.00    +0.003 A 
ATOM     26  C   UNL     1      -0.348  -1.334   2.455  0.00  0.00    +0.020 A 
ATOM     27  C   UNL     1       0.903  -1.880   2.230  0.00  0.00    +0.046 A 
ATOM     28  C   UNL     1       1.971  -1.511   3.028  0.00  0.00    -0.001 A 
ATOM     29  C   UNL     1       1.788  -0.597   4.050  0.00  0.00    +0.046 A 
ATOM     30  C   UNL     1       0.535  -0.052   4.274  0.00  0.00    +0.020 A 
ATOM     31 CL   UNL     1       3.127  -0.134   5.052  0.00  0.00    -0.083 Cl
ATOM     32 CL   UNL     1       1.133  -3.027   0.948  0.00  0.00    -0.083 Cl
ENDBRANCH  24  28
ENDBRANCH  23  24
ENDBRANCH   1  23
TORSDOF 6
