REMARK  Name = ZINC12898587
REMARK  8 active torsions:
REMARK  status: ('A' for Active; 'I' for Inactive)
REMARK    1  A    between atoms: C_4  and  C_7
REMARK    2  A    between atoms: C_10  and  N_13
REMARK    3  A    between atoms: C_14  and  C_16
REMARK    4  A    between atoms: C_16  and  C_17
REMARK    5  A    between atoms: C_17  and  C_18
REMARK    6  A    between atoms: C_18  and  C_19
REMARK    7  A    between atoms: N_21  and  C_22
REMARK    8  A    between atoms: C_23  and  C_27
REMARK                            x       y       z     vdW  Elec       q    Type
REMARK                         _______ _______ _______ _____ _____    ______ ____
ROOT
ATOM      1  C   UNL     1      -2.699   5.559   0.208  0.00  0.00    +0.096 C 
ENDROOT
BRANCH   1   3
ATOM      2  N   UNL     1      -4.375   7.372   0.063  0.00  0.00    -0.285 N 
ATOM      3  C   UNL     1      -4.121   6.058   0.223  0.00  0.00    +0.217 C 
ATOM      4  O   UNL     1      -5.036   5.278   0.379  0.00  0.00    -0.275 OA
ATOM      5  H   UNL     1      -3.642   8.006   0.015  0.00  0.00    +0.155 HD
BRANCH   2   9
ATOM      6  C   UNL     1      -8.312   8.713  -0.226  0.00  0.00    -0.018 A 
ATOM      7  C   UNL     1      -7.345   9.512   0.382  0.00  0.00    +0.010 A 
ATOM      8  C   UNL     1      -6.044   9.066   0.477  0.00  0.00    +0.024 A 
ATOM      9  C   UNL     1      -5.696   7.822  -0.034  0.00  0.00    +0.033 A 
ATOM     10  C   UNL     1      -6.657   7.025  -0.646  0.00  0.00    +0.024 A 
ATOM     11  C   UNL     1      -7.960   7.464  -0.737  0.00  0.00    +0.010 A 
BRANCH   6  15
ATOM     12  C   UNL     1     -12.327  10.081  -0.523  0.00  0.00    +0.000 A 
ATOM     13  C   UNL     1     -11.982   8.841  -1.031  0.00  0.00    +0.001 A 
ATOM     14  C   UNL     1     -10.680   8.392  -0.938  0.00  0.00    +0.008 A 
ATOM     15  C   UNL     1      -9.713   9.190  -0.330  0.00  0.00    -0.018 A 
ATOM     16  C   UNL     1     -10.067  10.435   0.185  0.00  0.00    +0.008 A 
ATOM     17  C   UNL     1     -11.370  10.877   0.081  0.00  0.00    +0.001 A 
ENDBRANCH   6  15
ENDBRANCH   2   9
ENDBRANCH   1   3
BRANCH   1  18
ATOM     18  C   UNL     1      -2.689   4.042   0.410  0.00  0.00    +0.018 C 
BRANCH  18  19
ATOM     19  C   UNL     1      -1.245   3.535   0.395  0.00  0.00    +0.096 C 
BRANCH  19  20
ATOM     20  C   UNL     1      -1.236   2.041   0.593  0.00  0.00    +0.218 C 
ATOM     21  O   UNL     1      -2.280   1.441   0.733  0.00  0.00    -0.275 OA
ATOM     22  N   UNL     1      -0.066   1.372   0.615  0.00  0.00    -0.279 N 
ATOM     23  H   UNL     1       0.769   1.851   0.500  0.00  0.00    +0.155 HD
BRANCH  22  24
ATOM     24  C   UNL     1      -0.057  -0.002   0.798  0.00  0.00    +0.084 A 
ATOM     25  C   UNL     1       1.036  -0.861   0.839  0.00  0.00    +0.065 A 
ATOM     26  C   UNL     1       0.754  -2.261   1.048  0.00  0.00    +0.022 A 
ATOM     27  C   UNL     1      -0.538  -2.615   1.175  0.00  0.00    +0.048 A 
ATOM     28  S   UNL     1      -1.404  -1.067   1.022  0.00  0.00    -0.081 S 
BRANCH  25  29
ATOM     29  C   UNL     1       2.407  -0.368   0.680  0.00  0.00    +0.244 C 
ATOM     30  O   UNL     1       2.611   0.820   0.508  0.00  0.00    -0.270 OA
ATOM     31  N   UNL     1       3.442  -1.230   0.725  0.00  0.00    -0.325 N 
ATOM     32  H   UNL     1       3.280  -2.176   0.863  0.00  0.00    +0.145 HD
ATOM     33  H   UNL     1       4.350  -0.904   0.620  0.00  0.00    +0.145 HD
ENDBRANCH  25  29
ENDBRANCH  22  24
ENDBRANCH  19  20
ENDBRANCH  18  19
ENDBRANCH   1  18
TORSDOF 8
