REMARK  Name = ZINC16856887
REMARK  5 active torsions:
REMARK  status: ('A' for Active; 'I' for Inactive)
REMARK    1  A    between atoms: C_4  and  C_7
REMARK    2  A    between atoms: C_7  and  C_12
REMARK    3  A    between atoms: N_14  and  C_15
REMARK    4  A    between atoms: C_18  and  N_21
REMARK    5  A    between atoms: C_22  and  C_24
REMARK                            x       y       z     vdW  Elec       q    Type
REMARK                         _______ _______ _______ _____ _____    ______ ____
ROOT
ATOM      1  C   UNL     1       0.759   5.898  -1.097  0.00  0.00    +0.228 C 
ATOM      2  O   UNL     1       0.280   6.713  -1.857  0.00  0.00    -0.275 OA
ATOM      3  N   UNL     1       2.032   5.488  -1.264  0.00  0.00    -0.285 N 
ATOM      4  H   UNL     1       2.397   4.794  -0.693  0.00  0.00    +0.155 HD
ENDROOT
BRANCH   3   5
ATOM      5  C   UNL     1       2.828   6.062  -2.263  0.00  0.00    +0.034 A 
ATOM      6  C   UNL     1       4.185   6.260  -2.042  0.00  0.00    +0.025 A 
ATOM      7  C   UNL     1       4.970   6.822  -3.029  0.00  0.00    +0.025 A 
ATOM      8  C   UNL     1       4.401   7.199  -4.239  0.00  0.00    +0.034 A 
ATOM      9  C   UNL     1       3.043   7.006  -4.457  0.00  0.00    +0.025 A 
ATOM     10  C   UNL     1       2.259   6.440  -3.473  0.00  0.00    +0.025 A 
BRANCH   8  11
ATOM     11  N   UNL     1       5.196   7.774  -5.237  0.00  0.00    -0.279 N 
ATOM     12  C   UNL     1       4.681   8.717  -6.049  0.00  0.00    +0.284 C 
ATOM     13  O   UNL     1       3.554   9.136  -5.858  0.00  0.00    -0.266 OA
ATOM     14  H   UNL     1       6.119   7.493  -5.344  0.00  0.00    +0.155 HD
BRANCH  12  15
ATOM     15  C   UNL     1       5.477   9.240  -7.164  0.00  0.00    +0.189 A 
ATOM     16  C   UNL     1       5.078  10.192  -8.058  0.00  0.00    +0.054 A 
ATOM     17  C   UNL     1       6.148  10.385  -8.947  0.00  0.00    +0.042 A 
ATOM     18  C   UNL     1       7.140   9.553  -8.561  0.00  0.00    +0.196 A 
ATOM     19  O   UNL     1       6.734   8.869  -7.483  0.00  0.00    -0.458 OA
ENDBRANCH  12  15
ENDBRANCH   8  11
ENDBRANCH   3   5
BRANCH   1  20
ATOM     20  C   UNL     1      -0.068   5.346   0.035  0.00  0.00    +0.072 C 
ATOM     21  C   UNL     1       0.544   5.758   1.389  0.00  0.00    +0.021 C 
ATOM     22  C   UNL     1      -0.245   7.028   1.792  0.00  0.00    +0.001 C 
ATOM     23  C   UNL     1      -1.684   6.699   1.323  0.00  0.00    +0.001 C 
ATOM     24  C   UNL     1      -1.485   5.944  -0.007  0.00  0.00    +0.021 C 
BRANCH  20  28
ATOM     25  C   UNL     1      -0.271   1.088  -0.246  0.00  0.00    +0.000 A 
ATOM     26  C   UNL     1       0.294   1.822  -1.272  0.00  0.00    +0.000 A 
ATOM     27  C   UNL     1       0.355   3.200  -1.183  0.00  0.00    +0.004 A 
ATOM     28  C   UNL     1      -0.139   3.843  -0.064  0.00  0.00    -0.032 A 
ATOM     29  C   UNL     1      -0.699   3.109   0.965  0.00  0.00    +0.004 A 
ATOM     30  C   UNL     1      -0.765   1.731   0.873  0.00  0.00    +0.000 A 
ENDBRANCH  20  28
ENDBRANCH   1  20
TORSDOF 5
