REMARK  Name = ZINC39499040
REMARK  5 active torsions:
REMARK  status: ('A' for Active; 'I' for Inactive)
REMARK    1  A    between atoms: C_3  and  N_23
REMARK    2  A    between atoms: C_6  and  C_7
REMARK    3  A    between atoms: C_8  and  C_9
REMARK    4  A    between atoms: C_8  and  C_11
REMARK    5  A    between atoms: C_13  and  C_16
REMARK                            x       y       z     vdW  Elec       q    Type
REMARK                         _______ _______ _______ _____ _____    ______ ____
ROOT
ATOM      1  C   UNL     1      -1.351  -0.972  -0.882  0.00  0.00    +0.029 C 
ATOM      2  C   UNL     1      -1.182  -2.138  -0.104  0.00  0.00    +0.084 C 
ENDROOT
BRANCH   1   8
ATOM      3  C   UNL     1       0.485  -1.576  -2.380  0.00  0.00    +0.010 A 
ATOM      4  C   UNL     1       1.437  -1.203  -3.285  0.00  0.00    +0.033 A 
ATOM      5  C   UNL     1       1.570   0.129  -3.652  0.00  0.00    +0.126 A 
ATOM      6  C   UNL     1       0.740   1.098  -3.106  0.00  0.00    +0.033 A 
ATOM      7  C   UNL     1      -0.219   0.750  -2.198  0.00  0.00    +0.010 A 
ATOM      8  C   UNL     1      -0.365  -0.600  -1.817  0.00  0.00    -0.024 A 
BRANCH   5   9
ATOM      9  N   UNL     1       2.607   0.519  -4.636  0.00  0.00    +0.056 N 
ATOM     10  O   UNL     1       3.398  -0.396  -5.157  0.00  0.00    -0.126 OA
ATOM     11  O   UNL     1       2.738   1.781  -4.988  0.00  0.00    -0.126 OA
ENDBRANCH   5   9
ENDBRANCH   1   8
BRANCH   2  12
ATOM     12  C   UNL     1       0.043  -2.821  -0.120  0.00  0.00    +0.119 A 
ATOM     13  N   UNL     1       0.265  -4.128  -0.317  0.00  0.00    -0.238 NA
ATOM     14  C   UNL     1       1.482  -4.580  -0.296  0.00  0.00    +0.079 A 
ATOM     15  C   UNL     1       2.555  -3.590  -0.050  0.00  0.00    +0.075 A 
ATOM     16  S   UNL     1       1.683  -2.159   0.109  0.00  0.00    -0.074 S 
BRANCH  14  17
ATOM     17  C   UNL     1       1.780  -6.005  -0.506  0.00  0.00    +0.001 A 
ATOM     18  C   UNL     1       3.107  -6.461  -0.470  0.00  0.00    +0.011 A 
ATOM     19  C   UNL     1       3.377  -7.796  -0.668  0.00  0.00    +0.020 A 
ATOM     20  C   UNL     1       2.342  -8.690  -0.902  0.00  0.00    +0.041 A 
ATOM     21  C   UNL     1       1.027  -8.247  -0.939  0.00  0.00    +0.020 A 
ATOM     22  C   UNL     1       0.739  -6.917  -0.737  0.00  0.00    +0.011 A 
ATOM     23 CL   UNL     1       2.694 -10.372  -1.151  0.00  0.00    -0.084 Cl
ENDBRANCH  14  17
ENDBRANCH   2  12
BRANCH   2  24
ATOM     24  C   UNL     1      -2.262  -2.623   0.701  0.00  0.00    +0.102 C 
ATOM     25  N   UNL     1      -3.119  -3.008   1.340  0.00  0.00    -0.191 NA
ENDBRANCH   2  24
TORSDOF 5
