REMARK  Name = ZINC47757502
REMARK  5 active torsions:
REMARK  status: ('A' for Active; 'I' for Inactive)
REMARK    1  A    between atoms: C_3  and  N_15
REMARK    2  A    between atoms: C_6  and  C_7
REMARK    3  A    between atoms: N_9  and  C_10
REMARK    4  A    between atoms: N_18  and  C_19
REMARK    5  A    between atoms: C_24  and  C_27
REMARK                            x       y       z     vdW  Elec       q    Type
REMARK                         _______ _______ _______ _____ _____    ______ ____
ROOT
ATOM      1  N   UNL     1       3.578   2.132  -0.021  0.00  0.00    -0.269 N 
ATOM      2  C   UNL     1       3.660   3.302  -0.685  0.00  0.00    +0.304 C 
ATOM      3  O   UNL     1       2.667   3.779  -1.201  0.00  0.00    -0.253 OA
ATOM      4  N   UNL     1       4.841   3.943  -0.778  0.00  0.00    -0.296 N 
ATOM      5  H   UNL     1       4.354   1.785   0.446  0.00  0.00    +0.156 HD
ATOM      6  H   UNL     1       5.633   3.562  -0.367  0.00  0.00    +0.151 HD
ENDROOT
BRANCH   1   9
ATOM      7  C   UNL     1      -0.019   1.406   0.035  0.00  0.00    +0.015 A 
ATOM      8  C   UNL     1       1.167   2.105   0.021  0.00  0.00    +0.024 A 
ATOM      9  C   UNL     1       2.378   1.421  -0.006  0.00  0.00    +0.035 A 
ATOM     10  C   UNL     1       2.396   0.030  -0.017  0.00  0.00    +0.024 A 
ATOM     11  C   UNL     1       1.213  -0.675  -0.003  0.00  0.00    +0.015 A 
ATOM     12  C   UNL     1      -0.005   0.009   0.024  0.00  0.00    +0.037 A 
BRANCH  12  13
ATOM     13  C   UNL     1      -1.275  -0.743   0.040  0.00  0.00    +0.244 C 
ATOM     14  O   UNL     1      -2.334  -0.147   0.063  0.00  0.00    -0.270 OA
ATOM     15  N   UNL     1      -1.260  -2.091   0.028  0.00  0.00    -0.308 N 
ATOM     16  H   UNL     1      -0.415  -2.567   0.010  0.00  0.00    +0.149 HD
BRANCH  15  17
ATOM     17  C   UNL     1      -2.520  -2.838   0.044  0.00  0.00    +0.073 C 
ATOM     18  C   UNL     1      -2.978  -3.072   1.498  0.00  0.00    +0.022 C 
ATOM     19  C   UNL     1      -3.596  -4.492   1.478  0.00  0.00    +0.002 C 
ATOM     20  C   UNL     1      -2.658  -5.259   0.514  0.00  0.00    +0.002 C 
ATOM     21  C   UNL     1      -2.317  -4.229  -0.582  0.00  0.00    +0.022 C 
ENDBRANCH  15  17
ENDBRANCH  12  13
ENDBRANCH   1   9
BRANCH   4  22
ATOM     22  C   UNL     1       4.930   5.215  -1.501  0.00  0.00    +0.075 C 
ATOM     23  C   UNL     1       4.548   6.361  -0.563  0.00  0.00    +0.022 C 
ATOM     24  C   UNL     1       4.641   7.689  -1.317  0.00  0.00    +0.002 C 
ATOM     25  C   UNL     1       6.073   7.894  -1.816  0.00  0.00    +0.012 C 
ATOM     26  C   UNL     1       6.455   6.747  -2.754  0.00  0.00    +0.095 C 
ATOM     27  C   UNL     1       6.362   5.419  -2.000  0.00  0.00    +0.034 C 
BRANCH  26  28
ATOM     28  C   UNL     1       7.887   6.951  -3.252  0.00  0.00    +0.393 C 
ATOM     29  F   UNL     1       8.762   6.972  -2.161  0.00  0.00    -0.170 F 
ATOM     30  F   UNL     1       8.236   5.902  -4.110  0.00  0.00    -0.170 F 
ATOM     31  F   UNL     1       7.972   8.165  -3.942  0.00  0.00    -0.170 F 
ENDBRANCH  26  28
ENDBRANCH   4  22
TORSDOF 5
