REMARK  Name = ZINC03380976
REMARK  9 active torsions:
REMARK  status: ('A' for Active; 'I' for Inactive)
REMARK    1  A    between atoms: C_1  and  C_2
REMARK    2  A    between atoms: N_5  and  N_32
REMARK    3  A    between atoms: C_6  and  S_9
REMARK    4  A    between atoms: S_9  and  C_10
REMARK    5  A    between atoms: C_10  and  C_11
REMARK    6  A    between atoms: C_14  and  C_27
REMARK    7  A    between atoms: C_17  and  C_19
REMARK    8  A    between atoms: C_22  and  O_25
REMARK    9  A    between atoms: O_25  and  C_26
REMARK                            x       y       z     vdW  Elec       q    Type
REMARK                         _______ _______ _______ _____ _____    ______ ____
ROOT
ATOM      1  C   UNL     1      -5.569   3.523   5.146  0.00  0.00    +0.243 C 
ATOM      2  O   UNL     1      -5.181   3.797   6.262  0.00  0.00    -0.273 OA
ATOM      3  N   UNL     1      -6.877   3.640   4.840  0.00  0.00    -0.207 N 
ATOM      4  C   UNL     1      -7.959   4.082   5.733  0.00  0.00    +0.187 C 
ATOM      5  C   UNL     1      -9.208   4.026   4.882  0.00  0.00    +0.030 C 
ATOM      6  C   UNL     1      -8.846   3.604   3.673  0.00  0.00    +0.050 C 
ATOM      7  N   UNL     1      -7.480   3.370   3.604  0.00  0.00    -0.261 N 
ATOM      8  H   UNL     1      -7.010   3.062   2.813  0.00  0.00    +0.170 HD
ENDROOT
BRANCH   6   9
ATOM      9  C   UNL     1      -9.783   3.414   2.542  0.00  0.00    -0.003 A 
ATOM     10  C   UNL     1     -11.143   3.677   2.708  0.00  0.00    +0.013 A 
ATOM     11  C   UNL     1     -12.011   3.505   1.651  0.00  0.00    +0.046 A 
ATOM     12  C   UNL     1     -11.535   3.059   0.425  0.00  0.00    +0.120 A 
ATOM     13  C   UNL     1     -10.183   2.792   0.258  0.00  0.00    +0.046 A 
ATOM     14  C   UNL     1      -9.308   2.967   1.309  0.00  0.00    +0.013 A 
BRANCH  12  15
ATOM     15  O   UNL     1     -12.394   2.885  -0.613  0.00  0.00    -0.495 OA
ATOM     16  C   UNL     1     -13.771   3.179  -0.371  0.00  0.00    +0.277 C 
ENDBRANCH  12  15
ENDBRANCH   6   9
BRANCH   4  17
ATOM     17  C   UNL     1      -7.707   5.491   6.207  0.00  0.00    +0.131 A 
ATOM     18  C   UNL     1      -7.934   5.956   7.448  0.00  0.00    +0.047 A 
ATOM     19  C   UNL     1      -7.556   7.319   7.450  0.00  0.00    +0.041 A 
ATOM     20  C   UNL     1      -7.129   7.606   6.208  0.00  0.00    +0.195 A 
ATOM     21  O   UNL     1      -7.222   6.495   5.459  0.00  0.00    -0.466 OA
ENDBRANCH   4  17
BRANCH   1  22
ATOM     22  C   UNL     1      -4.590   3.052   4.102  0.00  0.00    +0.175 C 
BRANCH  22  23
ATOM     23  S   UNL     1      -2.927   3.000   4.815  0.00  0.00    -0.075 S 
BRANCH  23  29
ATOM     24  C   UNL     1      -0.013   1.086   0.008  0.00  0.00    +0.073 C 
ATOM     25  C   UNL     1      -0.718   1.572   1.248  0.00  0.00    +0.126 A 
ATOM     26  C   UNL     1       0.010   1.812   2.433  0.00  0.00    +0.293 A 
ATOM     27  O   UNL     1       1.216   1.633   2.475  0.00  0.00    -0.264 OA
ATOM     28  N   UNL     1      -0.666   2.248   3.521  0.00  0.00    -0.206 N 
ATOM     29  C   UNL     1      -2.013   2.433   3.419  0.00  0.00    +0.210 A 
ATOM     30  N   UNL     1      -2.639   2.189   2.279  0.00  0.00    -0.122 NA
ATOM     31  N   UNL     1      -2.014   1.780   1.234  0.00  0.00    -0.146 NA
BRANCH  28  32
ATOM     32  N   UNL     1      -0.014   2.498   4.694  0.00  0.00    -0.293 N 
ATOM     33  H   UNL     1       0.974   2.314   4.606  0.00  0.00    +0.163 HD
ATOM     34  H   UNL     1      -0.179   3.444   5.005  0.00  0.00    +0.163 HD
ENDBRANCH  28  32
ENDBRANCH  23  29
ENDBRANCH  22  23
ENDBRANCH   1  22
TORSDOF 7
