REMARK  Name = ZINC33487025
REMARK  5 active torsions:
REMARK  status: ('A' for Active; 'I' for Inactive)
REMARK    1  A    between atoms: C_1  and  C_2
REMARK    2  A    between atoms: C_5  and  N_9
REMARK    3  A    between atoms: C_6  and  N_8
REMARK    4  A    between atoms: N_9  and  C_10
REMARK    5  A    between atoms: C_17  and  O_19
REMARK                            x       y       z     vdW  Elec       q    Type
REMARK                         _______ _______ _______ _____ _____    ______ ____
ROOT
ATOM      1  N   UNL     1      -1.238   2.076   0.019  0.00  0.00    -0.335 N 
ATOM      2  H   UNL     1      -2.184   1.515   0.021  0.00  0.00    +0.147 HD
ENDROOT
BRANCH   1   7
ATOM      3  C   UNL     1       3.716  -0.699  -0.037  0.00  0.00    +0.044 C 
ATOM      4  C   UNL     1       2.400   0.035  -0.021  0.00  0.00    -0.049 A 
ATOM      5  C   UNL     1       2.381   1.417  -0.013  0.00  0.00    +0.005 A 
ATOM      6  C   UNL     1       1.177   2.096   0.002  0.00  0.00    +0.025 A 
ATOM      7  C   UNL     1      -0.017   1.391   0.010  0.00  0.00    +0.048 A 
ATOM      8  C   UNL     1       0.002  -0.004   0.002  0.00  0.00    +0.046 A 
ATOM      9  C   UNL     1       1.214  -0.677  -0.013  0.00  0.00    +0.028 A 
BRANCH   8  10
ATOM     10  N   UNL     1      -1.200  -0.723   0.010  0.00  0.00    -0.357 N 
ATOM     11  H   UNL     1      -1.183  -1.823   0.004  0.00  0.00    +0.142 HD
ATOM     12  H   UNL     1      -2.160  -0.187   0.023  0.00  0.00    +0.142 HD
ENDBRANCH   8  10
ENDBRANCH   1   7
BRANCH   1  13
ATOM     13  C   UNL     1      -1.255   3.541   0.027  0.00  0.00    +0.121 C 
ATOM     14  C   UNL     1      -1.105   4.044  -1.426  0.00  0.00    +0.190 C 
ATOM     15  S   UNL     1      -2.855   4.406  -1.870  0.00  0.00    -0.027 S 
ATOM     16  O   UNL     1      -3.501   3.201  -2.256  0.00  0.00    -0.174 OA
ATOM     17  O   UNL     1      -2.901   5.537  -2.729  0.00  0.00    -0.174 OA
ATOM     18  C   UNL     1      -3.430   4.894  -0.185  0.00  0.00    +0.199 C 
ATOM     19  C   UNL     1      -2.533   4.008   0.708  0.00  0.00    +0.157 C 
BRANCH  19  20
ATOM     20  O   UNL     1      -2.182   4.747   1.879  0.00  0.00    -0.388 OA
ATOM     21  H   UNL     1      -2.970   5.174   2.517  0.00  0.00    +0.210 HD
ENDBRANCH  19  20
ENDBRANCH   1  13
TORSDOF 4
