REMARK  Name = ZINC05908591
REMARK  8 active torsions:
REMARK  status: ('A' for Active; 'I' for Inactive)
REMARK    1  A    between atoms: C_1  and  C_2
REMARK    2  A    between atoms: C_2  and  O_3
REMARK    3  A    between atoms: O_3  and  C_4
REMARK    4  A    between atoms: C_9  and  N_10
REMARK    5  A    between atoms: C_11  and  C_13
REMARK    6  A    between atoms: C_14  and  C_28
REMARK    7  A    between atoms: C_19  and  C_21
REMARK    8  A    between atoms: C_24  and  C_27
REMARK                            x       y       z     vdW  Elec       q    Type
REMARK                         _______ _______ _______ _____ _____    ______ ____
ROOT
ATOM      1  C   UNL     1      -2.782   0.825   1.357  0.00  0.00    +0.056 C 
ATOM      2  C   UNL     1      -4.039   1.282   1.540  0.00  0.00    +0.017 C 
ATOM      3  N   UNL     1      -4.731   1.872   0.520  0.00  0.00    -0.300 N 
ATOM      4  C   UNL     1      -4.235   2.043  -0.712  0.00  0.00    +0.135 C 
ATOM      5  S   UNL     1      -5.209   2.799  -1.899  0.00  0.00    -0.019 S 
ATOM      6  N   UNL     1      -2.993   1.640  -1.047  0.00  0.00    -0.315 N 
ATOM      7  C   UNL     1      -2.165   0.991  -0.017  0.00  0.00    +0.139 C 
ATOM      8  C   UNL     1      -4.691   1.137   2.891  0.00  0.00    +0.061 C 
ATOM      9  H   UNL     1      -5.631   2.184   0.699  0.00  0.00    +0.154 HD
ATOM     10  H   UNL     1      -2.653   1.775  -1.946  0.00  0.00    +0.149 HD
ENDROOT
BRANCH   7  11
ATOM     11  C   UNL     1      -0.899   1.794   0.136  0.00  0.00    -0.023 A 
ATOM     12  C   UNL     1       0.310   1.150   0.321  0.00  0.00    +0.006 A 
ATOM     13  C   UNL     1       1.472   1.887   0.456  0.00  0.00    +0.004 A 
ATOM     14  C   UNL     1       1.424   3.267   0.410  0.00  0.00    -0.050 A 
ATOM     15  C   UNL     1       0.214   3.912   0.230  0.00  0.00    +0.004 A 
ATOM     16  C   UNL     1      -0.948   3.175   0.095  0.00  0.00    +0.006 A 
ATOM     17  C   UNL     1       2.691   4.071   0.557  0.00  0.00    +0.044 C 
ENDBRANCH   7  11
BRANCH   1  19
ATOM     18  N   UNL     1      -1.718   0.932   3.498  0.00  0.00    -0.279 N 
ATOM     19  C   UNL     1      -2.065   0.212   2.413  0.00  0.00    +0.248 C 
ATOM     20  O   UNL     1      -1.761  -0.965   2.340  0.00  0.00    -0.270 OA
ATOM     21  H   UNL     1      -1.925   1.878   3.539  0.00  0.00    +0.155 HD
BRANCH  18  27
ATOM     22  C   UNL     1      -0.585   1.075   5.632  0.00  0.00    +0.142 A 
ATOM     23  C   UNL     1       0.068   0.457   6.687  0.00  0.00    +0.047 A 
ATOM     24  C   UNL     1       0.247  -0.914   6.681  0.00  0.00    +0.004 A 
ATOM     25  C   UNL     1      -0.221  -1.672   5.623  0.00  0.00    +0.002 A 
ATOM     26  C   UNL     1      -0.878  -1.063   4.571  0.00  0.00    +0.027 A 
ATOM     27  C   UNL     1      -1.058   0.312   4.567  0.00  0.00    +0.076 A 
BRANCH  22  28
ATOM     28  O   UNL     1      -0.763   2.423   5.637  0.00  0.00    -0.490 OA
BRANCH  28  30
ATOM     29  C   UNL     1      -0.545   4.633   6.591  0.00  0.00    +0.048 C 
ATOM     30  C   UNL     1      -0.252   3.141   6.762  0.00  0.00    +0.226 C 
ENDBRANCH  28  30
ENDBRANCH  22  28
ENDBRANCH  18  27
ENDBRANCH   1  19
TORSDOF 5
