REMARK  Name = ZINC20694334
REMARK  8 active torsions:
REMARK  status: ('A' for Active; 'I' for Inactive)
REMARK    1  A    between atoms: C_1  and  O_2
REMARK    2  A    between atoms: O_2  and  C_3
REMARK    3  A    between atoms: C_7  and  C_10
REMARK    4  A    between atoms: C_8  and  O_9
REMARK    5  A    between atoms: C_23  and  C_26
REMARK    6  A    between atoms: N_28  and  C_29
REMARK    7  A    between atoms: C_32  and  N_35
REMARK    8  A    between atoms: N_35  and  C_36
REMARK                            x       y       z     vdW  Elec       q    Type
REMARK                         _______ _______ _______ _____ _____    ______ ____
ROOT
ATOM      1  C   UNL     1       6.824   9.702   0.015  0.00  0.00    +0.109 C 
ATOM      2  C   UNL     1       8.125   9.933   0.756  0.00  0.00    +0.029 C 
ATOM      3  C   UNL     1       8.634  11.372   0.886  0.00  0.00    +0.033 C 
ATOM      4  C   UNL     1      10.149  11.155   0.947  0.00  0.00    -0.030 C 
ATOM      5  C   UNL     1      10.468  10.023   0.329  0.00  0.00    -0.023 C 
ATOM      6  C   UNL     1       9.229   9.419  -0.219  0.00  0.00    +0.049 C 
ATOM      7  C   UNL     1       9.039   7.957  -0.342  0.00  0.00    -0.019 A 
ATOM      8  C   UNL     1      10.104   7.101  -0.526  0.00  0.00    +0.006 A 
ATOM      9  C   UNL     1       9.903   5.737  -0.656  0.00  0.00    +0.001 A 
ATOM     10  C   UNL     1       8.627   5.222  -0.597  0.00  0.00    +0.015 A 
ATOM     11  C   UNL     1       7.539   6.072  -0.411  0.00  0.00    +0.058 A 
ATOM     12  C   UNL     1       7.734   7.462  -0.270  0.00  0.00    +0.044 A 
ATOM     13  N   UNL     1       6.615   8.247  -0.049  0.00  0.00    -0.336 N 
ATOM     14  H   UNL     1       5.604   7.831   0.077  0.00  0.00    +0.147 HD
ENDROOT
BRANCH   1  19
ATOM     15  C   UNL     1       6.686  12.117  -2.897  0.00  0.00    +0.162 A 
ATOM     16  C   UNL     1       7.095  11.305  -3.943  0.00  0.00    +0.049 A 
ATOM     17  C   UNL     1       7.416   9.981  -3.705  0.00  0.00    +0.004 A 
ATOM     18  C   UNL     1       7.328   9.464  -2.425  0.00  0.00    +0.009 A 
ATOM     19  C   UNL     1       6.920  10.269  -1.378  0.00  0.00    +0.018 A 
ATOM     20  C   UNL     1       6.592  11.595  -1.611  0.00  0.00    +0.163 A 
BRANCH  15  22
ATOM     21  C   UNL     1       6.483  13.884  -4.476  0.00  0.00    +0.277 C 
ATOM     22  O   UNL     1       6.370  13.419  -3.130  0.00  0.00    -0.491 OA
ENDBRANCH  15  22
BRANCH  20  23
ATOM     23  O   UNL     1       6.185  12.387  -0.583  0.00  0.00    -0.503 OA
ATOM     24  H   UNL     1       6.112  11.974   0.434  0.00  0.00    +0.292 HD
ENDBRANCH  20  23
ENDBRANCH   1  19
BRANCH  11  25
ATOM     25  C   UNL     1       6.175   5.515  -0.356  0.00  0.00    +0.250 C 
ATOM     26  O   UNL     1       5.223   6.253  -0.190  0.00  0.00    -0.270 OA
ATOM     27  N   UNL     1       5.984   4.188  -0.491  0.00  0.00    -0.281 N 
ATOM     28  H   UNL     1       6.838   3.527  -0.702  0.00  0.00    +0.155 HD
BRANCH  27  29
ATOM     29  C   UNL     1       4.697   3.649  -0.362  0.00  0.00    +0.034 A 
ATOM     30  C   UNL     1       4.522   2.400   0.220  0.00  0.00    +0.025 A 
ATOM     31  C   UNL     1       3.255   1.869   0.347  0.00  0.00    +0.025 A 
ATOM     32  C   UNL     1       2.153   2.584  -0.107  0.00  0.00    +0.031 A 
ATOM     33  C   UNL     1       2.329   3.831  -0.694  0.00  0.00    +0.025 A 
ATOM     34  C   UNL     1       3.596   4.364  -0.816  0.00  0.00    +0.025 A 
BRANCH  32  35
ATOM     35  N   UNL     1       0.868   2.046   0.022  0.00  0.00    -0.314 N 
ATOM     36  H   UNL     1       0.715   0.960  -0.066  0.00  0.00    +0.152 HD
BRANCH  35  37
ATOM     37  C   UNL     1      -0.220   2.888   0.264  0.00  0.00    +0.031 A 
ATOM     38  C   UNL     1      -1.488   2.530  -0.178  0.00  0.00    +0.023 A 
ATOM     39  C   UNL     1      -2.561   3.368   0.057  0.00  0.00    +0.002 A 
ATOM     40  C   UNL     1      -2.376   4.555   0.742  0.00  0.00    +0.000 A 
ATOM     41  C   UNL     1      -1.116   4.914   1.183  0.00  0.00    +0.002 A 
ATOM     42  C   UNL     1      -0.037   4.084   0.947  0.00  0.00    +0.023 A 
ENDBRANCH  35  37
ENDBRANCH  32  35
ENDBRANCH  27  29
ENDBRANCH  11  25
TORSDOF 7
