REMARK  Name = ZINC56157738
REMARK  6 active torsions:
REMARK  status: ('A' for Active; 'I' for Inactive)
REMARK    1  A    between atoms: C_1  and  C_2
REMARK    2  A    between atoms: C_2  and  C_4
REMARK    3  A    between atoms: C_2  and  N_15
REMARK    4  A    between atoms: N_6  and  C_7
REMARK    5  A    between atoms: N_15  and  C_16
REMARK    6  A    between atoms: C_20  and  N_22
REMARK                            x       y       z     vdW  Elec       q    Type
REMARK                         _______ _______ _______ _____ _____    ______ ____
ROOT
ATOM      1  N   UNL     1      -1.430  -0.419   0.304  0.00  0.00    -0.333 N 
ATOM      2  H   UNL     1      -1.882  -0.642  -0.524  0.00  0.00    +0.147 HD
ENDROOT
BRANCH   1   3
ATOM      3  C   UNL     1      -2.092  -0.575   1.524  0.00  0.00    +0.029 A 
ATOM      4  C   UNL     1      -1.447  -0.250   2.712  0.00  0.00    +0.023 A 
ATOM      5  C   UNL     1      -2.102  -0.403   3.919  0.00  0.00    +0.004 A 
ATOM      6  C   UNL     1      -3.399  -0.879   3.950  0.00  0.00    +0.024 A 
ATOM      7  C   UNL     1      -4.049  -1.206   2.766  0.00  0.00    +0.040 A 
ATOM      8  C   UNL     1      -3.396  -1.047   1.552  0.00  0.00    +0.046 A 
BRANCH   7   9
ATOM      9  N   UNL     1      -5.362  -1.688   2.798  0.00  0.00    -0.254 N 
ATOM     10  C   UNL     1      -6.204  -1.787   3.999  0.00  0.00    +0.134 C 
ATOM     11  C   UNL     1      -7.529  -2.373   3.474  0.00  0.00    +0.125 C 
ATOM     12  N   UNL     1      -7.293  -2.542   2.033  0.00  0.00    -0.297 N 
ATOM     13  C   UNL     1      -6.053  -2.127   1.738  0.00  0.00    +0.307 C 
ATOM     14  O   UNL     1      -5.596  -2.151   0.612  0.00  0.00    -0.252 OA
ATOM     15  H   UNL     1      -7.934  -2.894   1.395  0.00  0.00    +0.150 HD
ENDBRANCH   7   9
ENDBRANCH   1   3
BRANCH   1  17
ATOM     16  C   UNL     1      -0.064   1.610   0.298  0.00  0.00    +0.038 C 
ATOM     17  C   UNL     1      -0.053   0.080   0.277  0.00  0.00    +0.154 C 
BRANCH  17  18
ATOM     18  C   UNL     1       0.630  -0.400  -0.978  0.00  0.00    +0.237 C 
ATOM     19  O   UNL     1       0.026  -1.091  -1.771  0.00  0.00    -0.273 OA
ATOM     20  N   UNL     1       1.912  -0.061  -1.219  0.00  0.00    -0.282 N 
ATOM     21  H   UNL     1       2.370   0.556  -0.627  0.00  0.00    +0.155 HD
BRANCH  20  22
ATOM     22  C   UNL     1       2.584  -0.602  -2.324  0.00  0.00    +0.069 A 
ATOM     23  C   UNL     1       2.176  -1.815  -2.860  0.00  0.00    +0.029 A 
ATOM     24  C   UNL     1       2.840  -2.346  -3.949  0.00  0.00    +0.040 A 
ATOM     25  C   UNL     1       3.911  -1.669  -4.507  0.00  0.00    +0.126 A 
ATOM     26  C   UNL     1       4.321  -0.459  -3.975  0.00  0.00    +0.078 A 
ATOM     27  C   UNL     1       3.656   0.080  -2.888  0.00  0.00    +0.147 A 
ATOM     28  F   UNL     1       4.052   1.264  -2.372  0.00  0.00    -0.203 F 
ATOM     29  F   UNL     1       4.558  -2.191  -5.572  0.00  0.00    -0.205 F 
ENDBRANCH  20  22
ENDBRANCH  17  18
ENDBRANCH   1  17
TORSDOF 5
