REMARK  Name = ZINC44925855
REMARK  3 active torsions:
REMARK  status: ('A' for Active; 'I' for Inactive)
REMARK    1  A    between atoms: C_6  and  N_7
REMARK    2  A    between atoms: N_8  and  C_9
REMARK    3  A    between atoms: C_9  and  C_10
REMARK                            x       y       z     vdW  Elec       q    Type
REMARK                         _______ _______ _______ _____ _____    ______ ____
ROOT
ATOM      1  C   UNL     1      -0.017   1.384   0.010  0.00  0.00    +0.043 A 
ATOM      2  C   UNL     1       1.196   2.062   0.002  0.00  0.00    +0.038 A 
ATOM      3  C   UNL     1       2.374   1.343  -0.013  0.00  0.00    +0.128 A 
ATOM      4  N   UNL     1       2.364   0.022  -0.020  0.00  0.00    -0.238 NA
ATOM      5  C   UNL     1       1.234  -0.664  -0.013  0.00  0.00    +0.140 A 
ATOM      6  C   UNL     1       0.002  -0.004   0.002  0.00  0.00    +0.066 A 
ATOM      7  N   UNL     1       1.271  -2.057  -0.021  0.00  0.00    -0.320 N 
ATOM      8 BR   UNL     1       1.232   3.953   0.011  0.00  0.00    -0.049 Br
ATOM      9  H   UNL     1       0.444  -2.564  -0.016  0.00  0.00    +0.148 HD
ENDROOT
BRANCH   6  10
ATOM     10  N   UNL     1      -1.194  -0.731   0.009  0.00  0.00    -0.355 N 
ATOM     11  H   UNL     1      -2.045  -0.265   0.020  0.00  0.00    +0.142 HD
ATOM     12  H   UNL     1      -1.173  -1.701   0.004  0.00  0.00    +0.142 HD
ENDBRANCH   6  10
BRANCH   7  13
ATOM     13  C   UNL     1       2.558  -2.756  -0.037  0.00  0.00    +0.183 C 
BRANCH  13  14
ATOM     14  C   UNL     1       2.323  -4.244  -0.043  0.00  0.00    +0.194 A 
ATOM     15  N   UNL     1       2.204  -5.029   1.018  0.00  0.00    -0.110 NA
ATOM     16  N   UNL     1       2.011  -6.231   0.593  0.00  0.00    -0.021 NA
ATOM     17  N   UNL     1       2.005  -6.225  -0.694  0.00  0.00    -0.021 NA
ATOM     18  N   UNL     1       2.189  -5.019  -1.110  0.00  0.00    -0.110 NA
ENDBRANCH  13  14
ENDBRANCH   7  13
TORSDOF 3
