REMARK  Name = ZINC59385858
REMARK  6 active torsions:
REMARK  status: ('A' for Active; 'I' for Inactive)
REMARK    1  A    between atoms: C_1  and  C_2
REMARK    2  A    between atoms: C_3  and  C_17
REMARK    3  A    between atoms: C_4  and  C_10
REMARK    4  A    between atoms: C_15  and  O_16
REMARK    5  A    between atoms: N_19  and  N_20
REMARK    6  A    between atoms: C_21  and  C_22
REMARK                            x       y       z     vdW  Elec       q    Type
REMARK                         _______ _______ _______ _____ _____    ______ ____
ROOT
ATOM      1  C   UNL     1       0.565   1.310   0.469  0.00  0.00    +0.061 C 
ATOM      2  C   UNL     1       0.315  -0.148   0.181  0.00  0.00    +0.019 C 
ATOM      3  C   UNL     1      -0.954  -0.593   0.068  0.00  0.00    +0.057 C 
ATOM      4  C   UNL     1      -1.162  -2.066  -0.222  0.00  0.00    +0.145 C 
ATOM      5  N   UNL     1       0.047  -2.896  -0.357  0.00  0.00    -0.288 N 
ATOM      6  C   UNL     1       1.250  -2.305  -0.217  0.00  0.00    +0.304 C 
ATOM      7  O   UNL     1       2.254  -2.982  -0.327  0.00  0.00    -0.252 OA
ATOM      8  N   UNL     1       1.376  -0.996   0.034  0.00  0.00    -0.273 N 
ATOM      9  H   UNL     1      -0.022  -3.846  -0.542  0.00  0.00    +0.151 HD
ATOM     10  H   UNL     1       2.270  -0.630   0.119  0.00  0.00    +0.156 HD
ENDROOT
BRANCH   4  11
ATOM     11  C   UNL     1      -1.949  -2.181  -1.502  0.00  0.00    +0.019 A 
ATOM     12  C   UNL     1      -2.070  -1.089  -2.340  0.00  0.00    +0.009 A 
ATOM     13  C   UNL     1      -2.793  -1.194  -3.514  0.00  0.00    +0.001 A 
ATOM     14  C   UNL     1      -3.396  -2.392  -3.852  0.00  0.00    +0.004 A 
ATOM     15  C   UNL     1      -3.277  -3.486  -3.018  0.00  0.00    +0.046 A 
ATOM     16  C   UNL     1      -2.548  -3.385  -1.842  0.00  0.00    +0.122 A 
BRANCH  16  17
ATOM     17  O   UNL     1      -2.426  -4.462  -1.022  0.00  0.00    -0.506 OA
ATOM     18  H   UNL     1      -3.163  -4.573  -0.407  0.00  0.00    +0.292 HD
ENDBRANCH  16  17
ENDBRANCH   4  11
BRANCH   3  19
ATOM     19  C   UNL     1      -2.055   0.286   0.215  0.00  0.00    +0.263 C 
ATOM     20  O   UNL     1      -1.866   1.483   0.340  0.00  0.00    -0.269 OA
ATOM     21  N   UNL     1      -3.311  -0.201   0.217  0.00  0.00    -0.203 N 
ATOM     22  H   UNL     1      -3.467  -1.142   0.040  0.00  0.00    +0.178 HD
BRANCH  21  23
ATOM     23  N   UNL     1      -4.393   0.651   0.477  0.00  0.00    -0.187 NA
ATOM     24  C   UNL     1      -5.592   0.165   0.576  0.00  0.00    +0.138 C 
BRANCH  24  25
ATOM     25  C   UNL     1      -6.731   1.062   0.848  0.00  0.00    -0.004 A 
ATOM     26  C   UNL     1      -6.522   2.436   0.995  0.00  0.00    +0.009 A 
ATOM     27  C   UNL     1      -7.591   3.269   1.250  0.00  0.00    +0.002 A 
ATOM     28  C   UNL     1      -8.868   2.748   1.361  0.00  0.00    +0.015 A 
ATOM     29  C   UNL     1      -9.083   1.388   1.217  0.00  0.00    +0.018 A 
ATOM     30  C   UNL     1      -8.023   0.543   0.955  0.00  0.00    +0.024 A 
ATOM     31 BR   UNL     1     -10.832   0.687   1.371  0.00  0.00    -0.050 Br
ENDBRANCH  24  25
ENDBRANCH  21  23
ENDBRANCH   3  19
TORSDOF 5
