REMARK  Name = ZINC40369491
REMARK  6 active torsions:
REMARK  status: ('A' for Active; 'I' for Inactive)
REMARK    1  A    between atoms: C_3  and  N_13
REMARK    2  A    between atoms: C_5  and  O_7
REMARK    3  A    between atoms: O_7  and  C_8
REMARK    4  A    between atoms: C_8  and  C_9
REMARK    5  A    between atoms: N_10  and  O_11
REMARK    6  A    between atoms: C_14  and  C_16
REMARK                            x       y       z     vdW  Elec       q    Type
REMARK                         _______ _______ _______ _____ _____    ______ ____
ROOT
ATOM      1  C   UNL     1      -0.014   1.366  -0.001  0.00  0.00    +0.005 A 
ATOM      2  C   UNL     1       1.169   2.079  -0.002  0.00  0.00    +0.023 A 
ATOM      3  C   UNL     1       2.385   1.409  -0.020  0.00  0.00    +0.037 A 
ATOM      4  C   UNL     1       2.410   0.021  -0.037  0.00  0.00    +0.069 A 
ATOM      5  C   UNL     1       1.222  -0.691  -0.036  0.00  0.00    +0.123 A 
ATOM      6  C   UNL     1       0.009  -0.016  -0.018  0.00  0.00    +0.046 A 
ENDROOT
BRANCH   3   7
ATOM      7  N   UNL     1       3.583   2.131  -0.021  0.00  0.00    -0.281 N 
ATOM      8  C   UNL     1       4.658   1.653   0.636  0.00  0.00    +0.255 C 
ATOM      9  O   UNL     1       4.614   0.555   1.159  0.00  0.00    -0.269 OA
ATOM     10  H   UNL     1       3.639   2.975  -0.495  0.00  0.00    +0.155 HD
BRANCH   8  11
ATOM     11  C   UNL     1       5.881   2.455   0.720  0.00  0.00    +0.075 A 
ATOM     12  C   UNL     1       7.086   2.150   1.335  0.00  0.00    +0.022 A 
ATOM     13  C   UNL     1       8.062   3.113   1.246  0.00  0.00    +0.024 A 
ATOM     14  C   UNL     1       7.793   4.265   0.581  0.00  0.00    +0.056 A 
ATOM     15  S   UNL     1       6.210   4.074   0.051  0.00  0.00    -0.077 S 
ATOM     16 BR   UNL     1       8.940   5.744   0.308  0.00  0.00    -0.043 Br
ENDBRANCH   8  11
ENDBRANCH   3   7
BRANCH   5  17
ATOM     17  O   UNL     1       1.243  -2.050  -0.053  0.00  0.00    -0.484 OA
BRANCH  17  18
ATOM     18  C   UNL     1      -0.020  -2.719  -0.051  0.00  0.00    +0.303 C 
BRANCH  18  19
ATOM     19  C   UNL     1       0.201  -4.209  -0.071  0.00  0.00    +0.169 C 
ATOM     20  N   UNL     1       1.402  -4.684  -0.087  0.00  0.00    -0.073 NA
ATOM     21  N   UNL     1      -0.878  -5.065  -0.073  0.00  0.00    -0.341 N 
ATOM     22  H   UNL     1      -1.780  -4.709  -0.061  0.00  0.00    +0.144 HD
ATOM     23  H   UNL     1      -0.736  -6.025  -0.086  0.00  0.00    +0.144 HD
BRANCH  20  24
ATOM     24  O   UNL     1       1.609  -6.085  -0.106  0.00  0.00    -0.408 OA
ATOM     25  H   UNL     1       2.541  -6.344  -0.117  0.00  0.00    +0.328 HD
ENDBRANCH  20  24
ENDBRANCH  18  19
ENDBRANCH  17  18
ENDBRANCH   5  17
TORSDOF 6
