REMARK  Name = ZINC13131228
REMARK  9 active torsions:
REMARK  status: ('A' for Active; 'I' for Inactive)
REMARK    1  A    between atoms: C_1  and  C_2
REMARK    2  A    between atoms: C_2  and  O_3
REMARK    3  A    between atoms: O_3  and  C_4
REMARK    4  A    between atoms: C_7  and  C_10
REMARK    5  A    between atoms: C_13  and  C_22
REMARK    6  A    between atoms: C_25  and  O_30
REMARK    7  A    between atoms: C_26  and  O_28
REMARK    8  A    between atoms: O_28  and  C_29
REMARK    9  A    between atoms: O_30  and  C_31
REMARK                            x       y       z     vdW  Elec       q    Type
REMARK                         _______ _______ _______ _____ _____    ______ ____
ROOT
ATOM      1  C   UNL     1      -2.001  -6.092  -0.011  0.00  0.00    +0.106 C 
ATOM      2  C   UNL     1      -2.326  -6.566  -1.432  0.00  0.00    +0.058 C 
ATOM      3  C   UNL     1      -3.582  -5.850  -1.942  0.00  0.00    +0.143 C 
ATOM      4  N   UNL     1      -4.627  -5.947  -0.923  0.00  0.00    -0.224 N 
ATOM      5  C   UNL     1      -4.397  -6.235   0.381  0.00  0.00    +0.216 A 
ATOM      6  N   UNL     1      -5.545  -6.245   1.004  0.00  0.00    -0.180 NA
ATOM      7  C   UNL     1      -6.528  -5.967   0.135  0.00  0.00    +0.233 A 
ATOM      8  N   UNL     1      -6.006  -5.778  -1.057  0.00  0.00    -0.132 NA
ATOM      9  N   UNL     1      -7.887  -5.891   0.445  0.00  0.00    -0.326 N 
ATOM     10  N   UNL     1      -3.118  -6.462   0.879  0.00  0.00    -0.307 N 
ATOM     11  H   UNL     1      -8.186  -6.046   1.355  0.00  0.00    +0.145 HD
ATOM     12  H   UNL     1      -8.532  -5.684  -0.249  0.00  0.00    +0.145 HD
ATOM     13  H   UNL     1      -2.967  -6.843   1.759  0.00  0.00    +0.149 HD
ENDROOT
BRANCH   1  17
ATOM     14  C   UNL     1      -1.498  -1.848   0.006  0.00  0.00    +0.121 A 
ATOM     15  C   UNL     1      -0.388  -2.679  -0.003  0.00  0.00    +0.046 A 
ATOM     16  C   UNL     1      -0.553  -4.051  -0.008  0.00  0.00    +0.009 A 
ATOM     17  C   UNL     1      -1.823  -4.596  -0.005  0.00  0.00    -0.027 A 
ATOM     18  C   UNL     1      -2.932  -3.769   0.004  0.00  0.00    +0.009 A 
ATOM     19  C   UNL     1      -2.772  -2.397   0.016  0.00  0.00    +0.046 A 
BRANCH  14  20
ATOM     20  O   UNL     1      -1.339  -0.499   0.012  0.00  0.00    -0.492 OA
BRANCH  20  22
ATOM     21  C   UNL     1      -0.019   1.526   0.010  0.00  0.00    +0.048 C 
ATOM     22  C   UNL     1       0.002  -0.004   0.002  0.00  0.00    +0.225 C 
ENDBRANCH  20  22
ENDBRANCH  14  20
ENDBRANCH   1  17
BRANCH   3  23
ATOM     23  C   UNL     1      -4.053  -6.502  -3.216  0.00  0.00    -0.019 A 
ATOM     24  C   UNL     1      -4.413  -7.837  -3.216  0.00  0.00    +0.009 A 
ATOM     25  C   UNL     1      -4.846  -8.440  -4.382  0.00  0.00    +0.050 A 
ATOM     26  C   UNL     1      -4.920  -7.706  -5.555  0.00  0.00    +0.162 A 
ATOM     27  C   UNL     1      -4.559  -6.362  -5.556  0.00  0.00    +0.162 A 
ATOM     28  C   UNL     1      -4.130  -5.763  -4.382  0.00  0.00    +0.055 A 
BRANCH  27  29
ATOM     29  O   UNL     1      -4.630  -5.638  -6.704  0.00  0.00    -0.491 OA
ATOM     30  C   UNL     1      -4.243  -4.264  -6.630  0.00  0.00    +0.277 C 
ENDBRANCH  27  29
BRANCH  26  31
ATOM     31  O   UNL     1      -5.346  -8.297  -6.703  0.00  0.00    -0.491 OA
ATOM     32  C   UNL     1      -5.700  -9.680  -6.628  0.00  0.00    +0.277 C 
ENDBRANCH  26  31
ENDBRANCH   3  23
TORSDOF 6
