REMARK  Name = ZINC44781052
REMARK  3 active torsions:
REMARK  status: ('A' for Active; 'I' for Inactive)
REMARK    1  A    between atoms: C_4  and  C_7
REMARK    2  A    between atoms: C_4  and  C_10
REMARK    3  A    between atoms: C_7  and  N_9
REMARK                            x       y       z     vdW  Elec       q    Type
REMARK                         _______ _______ _______ _____ _____    ______ ____
ROOT
ATOM      1  C   UNL     1       0.148   1.773  -0.019  0.00  0.00    +0.000 C 
ATOM      2  C   UNL     1       1.646   2.051  -0.156  0.00  0.00    +0.001 C 
ATOM      3  C   UNL     1       2.375   1.543   1.089  0.00  0.00    +0.023 C 
ATOM      4  C   UNL     1       2.147   0.037   1.234  0.00  0.00    +0.091 C 
ATOM      5  C   UNL     1       0.649  -0.241   1.371  0.00  0.00    +0.023 C 
ATOM      6  C   UNL     1      -0.080   0.267   0.126  0.00  0.00    +0.001 C 
ENDROOT
BRANCH   4   7
ATOM      7  C   UNL     1       2.680  -0.672   0.015  0.00  0.00    +0.228 C 
ATOM      8  O   UNL     1       1.919  -1.248  -0.733  0.00  0.00    -0.275 OA
ATOM      9  N   UNL     1       4.003  -0.665  -0.244  0.00  0.00    -0.297 N 
ATOM     10  C   UNL     1       5.047   0.052   0.516  0.00  0.00    +0.111 C 
ATOM     11  C   UNL     1       6.384  -0.264  -0.223  0.00  0.00    +0.008 C 
ATOM     12  C   UNL     1       6.654  -1.765   0.112  0.00  0.00    +0.007 C 
ATOM     13  C   UNL     1       5.520  -2.524  -0.617  0.00  0.00    +0.023 C 
ATOM     14  C   UNL     1       4.697  -1.386  -1.350  0.00  0.00    +0.076 C 
ATOM     15  C   UNL     1       5.846  -0.369  -1.696  0.00  0.00    +0.027 C 
ENDBRANCH   4   7
BRANCH   4  16
ATOM     16  C   UNL     1       2.866  -0.464   2.460  0.00  0.00    +0.061 C 
ATOM     17  S   UNL     1       3.563   0.573   3.458  0.00  0.00    -0.040 S 
BRANCH  16  18
ATOM     18  N   UNL     1       2.921  -1.786   2.716  0.00  0.00    -0.355 N 
ATOM     19  H   UNL     1       2.563  -2.420   2.074  0.00  0.00    +0.143 HD
ATOM     20  H   UNL     1       3.319  -2.105   3.542  0.00  0.00    +0.143 HD
ENDBRANCH  16  18
ENDBRANCH   4  16
TORSDOF 3
