REMARK  Name = ZINC52634669
REMARK  12 active torsions:
REMARK  status: ('A' for Active; 'I' for Inactive)
REMARK    1  A    between atoms: C_1  and  C_2
REMARK    2  A    between atoms: C_5  and  S_8
REMARK    3  A    between atoms: S_8  and  N_11
REMARK    4  A    between atoms: N_11  and  C_12
REMARK    5  A    between atoms: C_15  and  N_18
REMARK    6  A    between atoms: N_18  and  C_19
REMARK    7  A    between atoms: C_19  and  C_21
REMARK    8  A    between atoms: C_19  and  C_22
REMARK    9  A    between atoms: N_24  and  C_25
REMARK   10  A    between atoms: C_25  and  C_26
REMARK   11  A    between atoms: C_25  and  C_27
REMARK   12  A    between atoms: C_25  and  C_28
REMARK                            x       y       z     vdW  Elec       q    Type
REMARK                         _______ _______ _______ _____ _____    ______ ____
ROOT
ATOM      1  C   UNL     1       2.405  -4.609   1.214  0.00  0.00    +0.048 A 
ATOM      2  C   UNL     1       2.175  -3.425   1.903  0.00  0.00    +0.026 A 
ATOM      3  C   UNL     1       2.894  -3.142   3.047  0.00  0.00    +0.025 A 
ATOM      4  C   UNL     1       3.847  -4.040   3.509  0.00  0.00    +0.028 A 
ATOM      5  C   UNL     1       4.077  -5.223   2.820  0.00  0.00    +0.025 A 
ATOM      6  C   UNL     1       3.354  -5.509   1.679  0.00  0.00    +0.026 A 
ENDROOT
BRANCH   1   7
ATOM      7  N   UNL     1       1.676  -4.896   0.053  0.00  0.00    -0.216 N 
ATOM      8  H   UNL     1       2.097  -4.813  -0.817  0.00  0.00    +0.174 HD
BRANCH   7   9
ATOM      9  S   UNL     1       0.096  -5.377   0.166  0.00  0.00    +0.072 S 
ATOM     10  O   UNL     1      -0.337  -5.665  -1.157  0.00  0.00    -0.150 OA
ATOM     11  O   UNL     1      -0.561  -4.426   0.992  0.00  0.00    -0.150 OA
BRANCH   9  16
ATOM     12  C   UNL     1       0.031 -10.606   3.176  0.00  0.00    +0.044 C 
ATOM     13  C   UNL     1       0.047  -9.300   2.425  0.00  0.00    -0.050 A 
ATOM     14  C   UNL     1      -0.164  -8.112   3.099  0.00  0.00    +0.005 A 
ATOM     15  C   UNL     1      -0.149  -6.914   2.409  0.00  0.00    +0.029 A 
ATOM     16  C   UNL     1       0.078  -6.904   1.045  0.00  0.00    +0.109 A 
ATOM     17  C   UNL     1       0.290  -8.092   0.371  0.00  0.00    +0.029 A 
ATOM     18  C   UNL     1       0.280  -9.290   1.062  0.00  0.00    +0.005 A 
ENDBRANCH   9  16
ENDBRANCH   7   9
ENDBRANCH   1   7
BRANCH   4  19
ATOM     19  N   UNL     1       4.576  -3.752   4.669  0.00  0.00    -0.333 N 
ATOM     20  H   UNL     1       4.416  -2.925   5.150  0.00  0.00    +0.147 HD
BRANCH  19  21
ATOM     21  C   UNL     1       5.582  -4.700   5.156  0.00  0.00    +0.154 C 
ATOM     22  C   UNL     1       4.903  -5.763   6.022  0.00  0.00    +0.038 C 
BRANCH  21  23
ATOM     23  C   UNL     1       6.610  -3.964   5.976  0.00  0.00    +0.233 C 
ATOM     24  O   UNL     1       6.512  -2.766   6.138  0.00  0.00    -0.274 OA
ATOM     25  N   UNL     1       7.638  -4.637   6.530  0.00  0.00    -0.309 N 
ATOM     26  H   UNL     1       7.716  -5.595   6.400  0.00  0.00    +0.149 HD
BRANCH  25  27
ATOM     27  C   UNL     1       8.637  -3.922   7.327  0.00  0.00    +0.026 C 
ATOM     28  C   UNL     1       7.952  -3.248   8.518  0.00  0.00    +0.031 C 
ATOM     29  C   UNL     1       9.687  -4.912   7.835  0.00  0.00    +0.031 C 
ATOM     30  C   UNL     1       9.315  -2.859   6.460  0.00  0.00    +0.031 C 
ENDBRANCH  25  27
ENDBRANCH  21  23
ENDBRANCH  19  21
ENDBRANCH   4  19
TORSDOF 7
