REMARK  Name = ZINC05139047
REMARK  3 active torsions:
REMARK  status: ('A' for Active; 'I' for Inactive)
REMARK    1  A    between atoms: C_5  and  C_7
REMARK    2  A    between atoms: C_7  and  N_8
REMARK    3  A    between atoms: N_17  and  C_18
REMARK                            x       y       z     vdW  Elec       q    Type
REMARK                         _______ _______ _______ _____ _____    ______ ____
ROOT
ATOM      1  N   UNL     1       1.384   1.926   0.022  0.00  0.00    -0.294 N 
ATOM      2  C   UNL     1       2.012   2.218  -1.145  0.00  0.00    +0.204 A 
ATOM      3  N   UNL     1       3.254   2.600  -1.207  0.00  0.00    -0.217 NA
ATOM      4  C   UNL     1       4.010   2.732  -0.106  0.00  0.00    +0.170 A 
ATOM      5  C   UNL     1       3.447   2.451   1.149  0.00  0.00    +0.103 A 
ATOM      6  C   UNL     1       2.047   2.029   1.198  0.00  0.00    +0.265 A 
ATOM      7  O   UNL     1       1.500   1.775   2.256  0.00  0.00    -0.267 OA
ATOM      8  C   UNL     1       4.448   2.669   2.115  0.00  0.00    +0.150 A 
ATOM      9  N   UNL     1       5.534   3.052   1.501  0.00  0.00    -0.172 NA
ATOM     10  N   UNL     1       5.300   3.102   0.121  0.00  0.00    -0.214 N 
ENDROOT
BRANCH  10  11
ATOM     11  C   UNL     1       6.233   3.470  -0.857  0.00  0.00    +0.068 A 
ATOM     12  C   UNL     1       6.221   2.847  -2.098  0.00  0.00    +0.029 A 
ATOM     13  C   UNL     1       7.138   3.215  -3.062  0.00  0.00    +0.022 A 
ATOM     14  C   UNL     1       8.076   4.196  -2.789  0.00  0.00    +0.041 A 
ATOM     15  C   UNL     1       8.093   4.814  -1.551  0.00  0.00    +0.022 A 
ATOM     16  C   UNL     1       7.174   4.454  -0.585  0.00  0.00    +0.029 A 
ATOM     17 CL   UNL     1       9.233   4.651  -4.001  0.00  0.00    -0.084 Cl
ENDBRANCH  10  11
BRANCH   1  18
ATOM     18  C   UNL     1      -0.018   1.503   0.010  0.00  0.00    +0.163 C 
BRANCH  18  23
ATOM     19  C   UNL     1      -0.381  -2.047   1.243  0.00  0.00    +0.000 A 
ATOM     20  C   UNL     1      -0.219  -2.765   0.072  0.00  0.00    +0.001 A 
ATOM     21  C   UNL     1       0.007  -2.102  -1.119  0.00  0.00    +0.020 A 
ATOM     22  C   UNL     1       0.067  -0.719  -1.141  0.00  0.00    +0.046 A 
ATOM     23  C   UNL     1      -0.089  -0.002   0.032  0.00  0.00    -0.009 A 
ATOM     24  C   UNL     1      -0.316  -0.667   1.223  0.00  0.00    +0.007 A 
ATOM     25 CL   UNL     1       0.344   0.115  -2.638  0.00  0.00    -0.083 Cl
ENDBRANCH  18  23
ENDBRANCH   1  18
TORSDOF 3
