REMARK  Name = ZINC27254342
REMARK  10 active torsions:
REMARK  status: ('A' for Active; 'I' for Inactive)
REMARK    1  A    between atoms: C_1  and  C_2
REMARK    2  A    between atoms: C_7  and  N_12
REMARK    3  A    between atoms: C_9  and  C_11
REMARK    4  A    between atoms: N_12  and  C_13
REMARK    5  A    between atoms: C_13  and  N_15
REMARK    6  A    between atoms: N_15  and  N_16
REMARK    7  A    between atoms: C_17  and  C_19
REMARK    8  A    between atoms: C_19  and  C_20
REMARK    9  A    between atoms: C_20  and  N_21
REMARK   10  A    between atoms: C_22  and  C_24
REMARK                            x       y       z     vdW  Elec       q    Type
REMARK                         _______ _______ _______ _____ _____    ______ ____
ROOT
ATOM      1  N   UNL     1      -8.418   3.147   0.057  0.00  0.00    -0.235 N 
ATOM      2  C   UNL     1      -7.382   2.285   0.048  0.00  0.00    +0.231 C 
ATOM      3  O   UNL     1      -7.588   1.090   0.042  0.00  0.00    -0.274 OA
ATOM      4  H   UNL     1      -8.232   4.231   0.062  0.00  0.00    +0.173 HD
ENDROOT
BRANCH   1   5
ATOM      5  N   UNL     1      -9.733   2.662   0.060  0.00  0.00    -0.246 N 
ATOM      6  H   UNL     1      -9.919   1.578   0.055  0.00  0.00    +0.172 HD
BRANCH   5   7
ATOM      7  C   UNL     1     -10.769   3.524   0.070  0.00  0.00    +0.147 C 
ATOM      8  S   UNL     1     -12.375   2.932   0.074  0.00  0.00    -0.017 S 
BRANCH   7   9
ATOM      9  N   UNL     1     -10.541   4.852   0.076  0.00  0.00    -0.322 N 
ATOM     10  H   UNL     1      -9.509   5.233   0.074  0.00  0.00    +0.148 HD
BRANCH   9  16
ATOM     11  C   UNL     1     -13.541   7.508   1.542  0.00  0.00    +0.008 C 
ATOM     12  C   UNL     1     -12.397   8.095   0.713  0.00  0.00    -0.009 C 
ATOM     13  C   UNL     1     -12.876   8.333  -0.721  0.00  0.00    +0.003 C 
ATOM     14  C   UNL     1     -13.322   7.005  -1.336  0.00  0.00    +0.002 C 
ATOM     15  C   UNL     1     -12.146   6.027  -1.347  0.00  0.00    +0.022 C 
ATOM     16  C   UNL     1     -11.667   5.789   0.087  0.00  0.00    +0.075 C 
ATOM     17  C   UNL     1     -11.220   7.117   0.702  0.00  0.00    +0.009 C 
ATOM     18  C   UNL     1     -10.741   6.879   2.135  0.00  0.00    +0.009 C 
ENDBRANCH   9  16
ENDBRANCH   7   9
ENDBRANCH   5   7
ENDBRANCH   1   5
BRANCH   2  19
ATOM     19  C   UNL     1      -5.968   2.807   0.044  0.00  0.00    +0.116 C 
BRANCH  19  20
ATOM     20  C   UNL     1      -4.990   1.630   0.033  0.00  0.00    +0.114 C 
BRANCH  20  21
ATOM     21  N   UNL     1      -3.616   2.137   0.030  0.00  0.00    -0.310 N 
ATOM     22  C   UNL     1      -2.580   1.276   0.021  0.00  0.00    +0.251 C 
ATOM     23  O   UNL     1      -2.786   0.076   0.015  0.00  0.00    -0.270 OA
ATOM     24  H   UNL     1      -3.430   3.221   0.035  0.00  0.00    +0.149 HD
BRANCH  22  25
ATOM     25  C   UNL     1      -1.205   1.783   0.017  0.00  0.00    +0.074 A 
ATOM     26  C   UNL     1      -0.013   1.076   0.008  0.00  0.00    +0.021 A 
ATOM     27  C   UNL     1       1.149   1.808   0.001  0.00  0.00    +0.008 A 
ATOM     28  C   UNL     1       1.077   3.165   0.008  0.00  0.00    +0.046 A 
ATOM     29  S   UNL     1      -0.629   3.471   0.026  0.00  0.00    -0.092 S 
ENDBRANCH  22  25
ENDBRANCH  20  21
ENDBRANCH  19  20
ENDBRANCH   2  19
TORSDOF 8
