REMARK  Name = ZINC47410100
REMARK  3 active torsions:
REMARK  status: ('A' for Active; 'I' for Inactive)
REMARK    1  A    between atoms: C_5  and  N_8
REMARK    2  A    between atoms: N_8  and  N_9
REMARK    3  A    between atoms: C_10  and  C_12
REMARK                            x       y       z     vdW  Elec       q    Type
REMARK                         _______ _______ _______ _____ _____    ______ ____
ROOT
ATOM      1  N   UNL     1       1.238  -2.080  -0.021  0.00  0.00    -0.261 N 
ATOM      2  H   UNL     1       2.028  -2.550  -0.329  0.00  0.00    +0.170 HD
ENDROOT
BRANCH   1   7
ATOM      3  C   UNL     1       1.855   1.421  -0.969  0.00  0.00    +0.042 A 
ATOM      4  C   UNL     1       1.187   2.087   0.043  0.00  0.00    +0.044 A 
ATOM      5  C   UNL     1       0.536   1.374   1.033  0.00  0.00    +0.042 A 
ATOM      6  C   UNL     1       0.550  -0.009   1.015  0.00  0.00    +0.066 A 
ATOM      7  C   UNL     1       1.220  -0.681   0.000  0.00  0.00    +0.081 A 
ATOM      8  C   UNL     1       1.874   0.039  -0.993  0.00  0.00    +0.066 A 
ATOM      9 CL   UNL     1       2.712  -0.797  -2.263  0.00  0.00    -0.081 Cl
ATOM     10 CL   UNL     1      -0.266  -0.903   2.258  0.00  0.00    -0.081 Cl
ATOM     11 CL   UNL     1       1.166   3.823   0.070  0.00  0.00    -0.083 Cl
ENDBRANCH   1   7
BRANCH   1  12
ATOM     12  N   UNL     1       0.113  -2.801   0.401  0.00  0.00    -0.232 N 
ATOM     13  C   UNL     1       0.168  -4.144   0.489  0.00  0.00    +0.270 C 
ATOM     14  O   UNL     1       1.194  -4.731   0.202  0.00  0.00    -0.268 OA
ATOM     15  H   UNL     1      -0.705  -2.333   0.630  0.00  0.00    +0.173 HD
BRANCH  13  16
ATOM     16  C   UNL     1      -1.013  -4.902   0.933  0.00  0.00    +0.115 A 
ATOM     17  C   UNL     1      -1.184  -6.271   1.102  0.00  0.00    +0.157 A 
ATOM     18  N   UNL     1      -2.377  -6.621   1.515  0.00  0.00    -0.149 NA
ATOM     19  N   UNL     1      -3.305  -5.761   1.742  0.00  0.00    -0.110 NA
ATOM     20  S   UNL     1      -2.632  -4.323   1.413  0.00  0.00    +0.041 S 
ENDBRANCH  13  16
ENDBRANCH   1  12
TORSDOF 3
