REMARK  Name = ZINC42412936
REMARK  3 active torsions:
REMARK  status: ('A' for Active; 'I' for Inactive)
REMARK    1  A    between atoms: C_3  and  N_9
REMARK    2  A    between atoms: N_9  and  S_10
REMARK    3  A    between atoms: S_10  and  C_13
REMARK                            x       y       z     vdW  Elec       q    Type
REMARK                         _______ _______ _______ _____ _____    ______ ____
ROOT
ATOM      1  N   UNL     1       3.583   2.130  -0.021  0.00  0.00    -0.094 NA
ENDROOT
BRANCH   1   4
ATOM      2  C   UNL     1      -0.017   1.378   0.010  0.00  0.00    +0.005 A 
ATOM      3  C   UNL     1       1.169   2.088   0.002  0.00  0.00    +0.030 A 
ATOM      4  C   UNL     1       2.382   1.413  -0.013  0.00  0.00    +0.112 A 
ATOM      5  C   UNL     1       2.401   0.022  -0.021  0.00  0.00    +0.183 A 
ATOM      6  C   UNL     1       1.209  -0.683  -0.013  0.00  0.00    +0.160 A 
ATOM      7  C   UNL     1       0.002  -0.004   0.002  0.00  0.00    +0.041 A 
ATOM      8  F   UNL     1       1.224  -2.034  -0.020  0.00  0.00    -0.202 F 
ATOM      9  F   UNL     1       3.579  -0.639  -0.036  0.00  0.00    -0.200 F 
ENDBRANCH   1   4
BRANCH   1  10
ATOM     10  S   UNL     1       5.029   1.323  -0.039  0.00  0.00    +0.098 S 
ATOM     11  O   UNL     1       5.127   0.637   1.202  0.00  0.00    -0.148 OA
ATOM     12  O   UNL     1       5.103   0.650  -1.289  0.00  0.00    -0.148 OA
BRANCH  10  13
ATOM     13  C   UNL     1       6.304   2.538  -0.045  0.00  0.00    +0.149 A 
ATOM     14  C   UNL     1       6.935   3.118   1.004  0.00  0.00    +0.038 A 
ATOM     15  C   UNL     1       7.918   4.060   0.759  0.00  0.00    +0.025 A 
ATOM     16  C   UNL     1       8.220   4.375  -0.525  0.00  0.00    +0.057 A 
ATOM     17  S   UNL     1       7.104   3.321  -1.436  0.00  0.00    -0.061 S 
ATOM     18 BR   UNL     1       9.496   5.607  -1.180  0.00  0.00    -0.043 Br
ENDBRANCH  10  13
ENDBRANCH   1  10
TORSDOF 3
