REMARK  Name = ZINC40322545
REMARK  6 active torsions:
REMARK  status: ('A' for Active; 'I' for Inactive)
REMARK    1  A    between atoms: C_3  and  O_19
REMARK    2  A    between atoms: C_4  and  N_18
REMARK    3  A    between atoms: C_6  and  S_7
REMARK    4  A    between atoms: S_7  and  N_10
REMARK    5  A    between atoms: N_10  and  C_11
REMARK    6  A    between atoms: C_12  and  C_16
REMARK                            x       y       z     vdW  Elec       q    Type
REMARK                         _______ _______ _______ _____ _____    ______ ____
ROOT
ATOM      1  C   UNL     1      -0.017   1.378   0.010  0.00  0.00    +0.032 A 
ATOM      2  C   UNL     1       1.169   2.090   0.002  0.00  0.00    +0.049 A 
ATOM      3  C   UNL     1       2.380   1.418  -0.013  0.00  0.00    +0.137 A 
ATOM      4  C   UNL     1       2.400   0.024  -0.021  0.00  0.00    +0.068 A 
ATOM      5  C   UNL     1       1.207  -0.682  -0.013  0.00  0.00    +0.055 A 
ATOM      6  C   UNL     1       0.002  -0.004   0.002  0.00  0.00    +0.112 A 
ENDROOT
BRANCH   6   7
ATOM      7  S   UNL     1      -1.513  -0.904   0.012  0.00  0.00    +0.092 S 
ATOM      8  O   UNL     1      -1.221  -2.185   0.553  0.00  0.00    -0.148 OA
ATOM      9  O   UNL     1      -2.492  -0.043   0.578  0.00  0.00    -0.148 OA
BRANCH   7  10
ATOM     10  N   UNL     1      -1.950  -1.145  -1.567  0.00  0.00    -0.089 NA
BRANCH  10  11
ATOM     11  C   UNL     1      -3.113  -1.832  -1.865  0.00  0.00    +0.129 A 
ATOM     12  C   UNL     1      -3.630  -2.131  -3.118  0.00  0.00    +0.083 A 
ATOM     13  C   UNL     1      -4.873  -2.868  -3.145  0.00  0.00    +0.028 A 
ATOM     14  C   UNL     1      -5.394  -3.183  -1.946  0.00  0.00    +0.048 A 
ATOM     15  S   UNL     1      -4.219  -2.502  -0.796  0.00  0.00    -0.077 S 
BRANCH  12  16
ATOM     16  C   UNL     1      -2.965  -1.731  -4.322  0.00  0.00    +0.102 C 
ATOM     17  N   UNL     1      -2.438  -1.413  -5.277  0.00  0.00    -0.191 NA
ENDBRANCH  12  16
ENDBRANCH  10  11
ENDBRANCH   7  10
ENDBRANCH   6   7
BRANCH   4  18
ATOM     18  N   UNL     1       3.621  -0.660  -0.037  0.00  0.00    -0.355 N 
ATOM     19  H   UNL     1       4.455  -0.164  -0.043  0.00  0.00    +0.142 HD
ATOM     20  H   UNL     1       3.633  -1.630  -0.043  0.00  0.00    +0.142 HD
ENDBRANCH   4  18
BRANCH   3  21
ATOM     21  O   UNL     1       3.547   2.116  -0.022  0.00  0.00    -0.505 OA
ATOM     22  H   UNL     1       3.894   2.314   0.859  0.00  0.00    +0.292 HD
ENDBRANCH   3  21
TORSDOF 6
