REMARK  Name = ZINC13408086
REMARK  14 active torsions:
REMARK  status: ('A' for Active; 'I' for Inactive)
REMARK    1  A    between atoms: C_1  and  C_2
REMARK    2  A    between atoms: C_2  and  O_3
REMARK    3  A    between atoms: O_3  and  C_4
REMARK    4  A    between atoms: C_4  and  C_6
REMARK    5  A    between atoms: C_8  and  C_29
REMARK    6  A    between atoms: C_9  and  C_24
REMARK    7  A    between atoms: C_11  and  C_19
REMARK    8  A    between atoms: C_11  and  O_23
REMARK    9  A    between atoms: C_13  and  C_14
REMARK   10  A    between atoms: C_13  and  O_18
REMARK   11  A    between atoms: C_24  and  O_26
REMARK   12  A    between atoms: O_26  and  C_27
REMARK   13  A    between atoms: C_27  and  C_28
REMARK   14  A    between atoms: C_34  and  O_35
REMARK                            x       y       z     vdW  Elec       q    Type
REMARK                         _______ _______ _______ _____ _____    ______ ____
ROOT
ATOM      1  C   UNL     1      -3.240  -2.410  -0.823  0.00  0.00    +0.162 C 
ATOM      2  C   UNL     1      -3.014  -3.860  -1.263  0.00  0.00    +0.059 C 
ATOM      3  C   UNL     1      -4.093  -4.748  -0.638  0.00  0.00    +0.162 C 
ATOM      4  C   UNL     1      -4.043  -4.607   0.885  0.00  0.00    +0.230 C 
ATOM      5  N   UNL     1      -4.265  -3.203   1.255  0.00  0.00    -0.245 NA
ATOM      6  C   UNL     1      -3.215  -2.336   0.705  0.00  0.00    +0.230 C 
ATOM      7  H   UNL     1      -5.180  -2.893   0.964  0.00  0.00    +0.128 HD
ENDROOT
BRANCH   2   8
ATOM      8  C   UNL     1      -1.654  -4.320  -0.804  0.00  0.00    -0.001 A 
ATOM      9  C   UNL     1      -1.344  -4.326   0.542  0.00  0.00    +0.007 A 
ATOM     10  C   UNL     1      -0.097  -4.747   0.963  0.00  0.00    +0.001 A 
ATOM     11  C   UNL     1       0.843  -5.164   0.039  0.00  0.00    +0.004 A 
ATOM     12  C   UNL     1       0.538  -5.160  -1.308  0.00  0.00    +0.046 A 
ATOM     13  C   UNL     1      -0.715  -4.743  -1.733  0.00  0.00    +0.120 A 
BRANCH  13  14
ATOM     14  O   UNL     1      -1.020  -4.743  -3.058  0.00  0.00    -0.506 OA
ATOM     15  H   UNL     1      -0.805  -3.917  -3.511  0.00  0.00    +0.292 HD
ENDBRANCH  13  14
ENDBRANCH   2   8
BRANCH   6  16
ATOM     16  C   UNL     1      -3.461  -0.893   1.150  0.00  0.00    +0.433 C 
ATOM     17  F   UNL     1      -4.717  -0.473   0.699  0.00  0.00    -0.166 F 
ATOM     18  F   UNL     1      -3.419  -0.821   2.546  0.00  0.00    -0.166 F 
ATOM     19  F   UNL     1      -2.471  -0.064   0.610  0.00  0.00    -0.166 F 
ENDBRANCH   6  16
BRANCH   4  20
ATOM     20  C   UNL     1      -5.133  -5.478   1.514  0.00  0.00    +0.433 C 
ATOM     21  F   UNL     1      -4.994  -6.796   1.064  0.00  0.00    -0.166 F 
ATOM     22  F   UNL     1      -5.011  -5.446   2.907  0.00  0.00    -0.166 F 
ATOM     23  F   UNL     1      -6.391  -4.990   1.145  0.00  0.00    -0.166 F 
ENDBRANCH   4  20
BRANCH   1  24
ATOM     24  C   UNL     1      -2.147  -1.538  -1.386  0.00  0.00    +0.315 C 
ATOM     25  O   UNL     1      -1.093  -1.438  -0.805  0.00  0.00    -0.250 OA
BRANCH  24  26
ATOM     26  O   UNL     1      -2.346  -0.871  -2.534  0.00  0.00    -0.465 OA
BRANCH  26  28
ATOM     27  C   UNL     1      -1.677   0.614  -4.320  0.00  0.00    +0.048 C 
ATOM     28  C   UNL     1      -1.268  -0.063  -3.010  0.00  0.00    +0.229 C 
ENDBRANCH  26  28
ENDBRANCH  24  26
ENDBRANCH   1  24
BRANCH   6  29
ATOM     29  O   UNL     1      -1.941  -2.771   1.183  0.00  0.00    -0.366 OA
ATOM     30  H   UNL     1      -1.804  -2.624   2.129  0.00  0.00    +0.212 HD
ENDBRANCH   6  29
BRANCH   4  31
ATOM     31  O   UNL     1      -2.764  -5.029   1.361  0.00  0.00    -0.366 OA
ATOM     32  H   UNL     1      -2.711  -5.115   2.323  0.00  0.00    +0.212 HD
ENDBRANCH   4  31
BRANCH   3  33
ATOM     33  C   UNL     1      -3.845  -6.185  -1.019  0.00  0.00    +0.315 C 
ATOM     34  O   UNL     1      -2.713  -6.585  -1.164  0.00  0.00    -0.250 OA
BRANCH  33  35
ATOM     35  O   UNL     1      -4.880  -7.021  -1.198  0.00  0.00    -0.465 OA
BRANCH  35  36
ATOM     36  C   UNL     1      -4.571  -8.368  -1.558  0.00  0.00    +0.229 C 
ATOM     37  C   UNL     1      -5.868  -9.164  -1.717  0.00  0.00    +0.048 C 
ENDBRANCH  35  36
ENDBRANCH  33  35
ENDBRANCH   3  33
TORSDOF 12
