REMARK  Name = ZINC21328375
REMARK  11 active torsions:
REMARK  status: ('A' for Active; 'I' for Inactive)
REMARK    1  A    between atoms: C_1  and  C_2
REMARK    2  A    between atoms: C_2  and  C_26
REMARK    3  A    between atoms: N_3  and  N_4
REMARK    4  A    between atoms: C_8  and  S_11
REMARK    5  A    between atoms: N_9  and  N_10
REMARK    6  A    between atoms: S_11  and  C_12
REMARK    7  A    between atoms: C_12  and  C_13
REMARK    8  A    between atoms: N_15  and  C_16
REMARK    9  A    between atoms: C_20  and  C_22
REMARK   10  A    between atoms: C_29  and  O_32
REMARK   11  A    between atoms: O_32  and  C_33
REMARK                            x       y       z     vdW  Elec       q    Type
REMARK                         _______ _______ _______ _____ _____    ______ ____
ROOT
ATOM      1  N   UNL     1       3.682  13.166   0.799  0.00  0.00    -0.204 N 
ATOM      2  C   UNL     1       2.998  11.965   0.678  0.00  0.00    +0.254 A 
ATOM      3  N   UNL     1       1.696  11.821   0.622  0.00  0.00    -0.109 NA
ATOM      4  N   UNL     1       1.417  10.454   0.497  0.00  0.00    -0.119 NA
ATOM      5  C   UNL     1       2.558   9.806   0.488  0.00  0.00    +0.210 A 
ATOM      6  N   UNL     1       3.565  10.723   0.596  0.00  0.00    -0.211 N 
ATOM      7  H   UNL     1       4.781  13.173   0.837  0.00  0.00    +0.178 HD
ENDROOT
BRANCH   1  10
ATOM      8  C   UNL     1       5.117  15.505   1.038  0.00  0.00    +0.068 C 
ATOM      9  C   UNL     1       3.611  15.496   0.986  0.00  0.00    +0.063 C 
ATOM     10  N   UNL     1       2.971  14.372   0.873  0.00  0.00    -0.184 NA
BRANCH   9  11
ATOM     11  C   UNL     1       2.863  16.765   1.063  0.00  0.00    -0.002 A 
ATOM     12  C   UNL     1       3.549  17.976   1.191  0.00  0.00    +0.013 A 
ATOM     13  C   UNL     1       2.846  19.159   1.257  0.00  0.00    +0.046 A 
ATOM     14  C   UNL     1       1.458  19.149   1.209  0.00  0.00    +0.120 A 
ATOM     15  C   UNL     1       0.772  17.947   1.089  0.00  0.00    +0.046 A 
ATOM     16  C   UNL     1       1.467  16.759   1.016  0.00  0.00    +0.013 A 
BRANCH  14  17
ATOM     17  O   UNL     1       0.769  20.318   1.280  0.00  0.00    -0.495 OA
ATOM     18  C   UNL     1       1.537  21.517   1.403  0.00  0.00    +0.277 C 
ENDBRANCH  14  17
ENDBRANCH   9  11
ENDBRANCH   1  10
BRANCH   6  19
ATOM     19  N   UNL     1       4.902  10.448   0.618  0.00  0.00    -0.294 N 
ATOM     20  H   UNL     1       5.251   9.407   0.545  0.00  0.00    +0.163 HD
ATOM     21  H   UNL     1       5.631  11.267   0.708  0.00  0.00    +0.163 HD
ENDBRANCH   6  19
BRANCH   5  22
ATOM     22  S   UNL     1       2.757   8.061   0.352  0.00  0.00    -0.075 S 
BRANCH  22  23
ATOM     23  C   UNL     1       1.059   7.433   0.245  0.00  0.00    +0.173 C 
BRANCH  23  24
ATOM     24  C   UNL     1       1.085   5.931   0.123  0.00  0.00    +0.227 C 
ATOM     25  O   UNL     1       2.146   5.342   0.111  0.00  0.00    -0.275 OA
ATOM     26  N   UNL     1      -0.069   5.242   0.029  0.00  0.00    -0.285 N 
ATOM     27  H   UNL     1      -1.026   5.779  -0.047  0.00  0.00    +0.155 HD
BRANCH  26  28
ATOM     28  C   UNL     1      -0.051   3.842   0.028  0.00  0.00    +0.034 A 
ATOM     29  C   UNL     1       0.907   3.158   0.765  0.00  0.00    +0.023 A 
ATOM     30  C   UNL     1       0.922   1.778   0.762  0.00  0.00    +0.002 A 
ATOM     31  C   UNL     1      -0.014   1.076   0.025  0.00  0.00    +0.012 A 
ATOM     32  C   UNL     1      -0.966   1.754  -0.714  0.00  0.00    +0.057 A 
ATOM     33  C   UNL     1      -0.990   3.135  -0.711  0.00  0.00    +0.035 A 
BRANCH  32  34
ATOM     34  C   UNL     1      -1.981   0.985  -1.521  0.00  0.00    +0.417 C 
ATOM     35  F   UNL     1      -1.759  -0.387  -1.363  0.00  0.00    -0.166 F 
ATOM     36  F   UNL     1      -3.268   1.304  -1.076  0.00  0.00    -0.166 F 
ATOM     37  F   UNL     1      -1.857   1.325  -2.872  0.00  0.00    -0.166 F 
ENDBRANCH  32  34
ENDBRANCH  26  28
ENDBRANCH  23  24
ENDBRANCH  22  23
ENDBRANCH   5  22
TORSDOF 9
