REMARK  Name = ZINC15276160
REMARK  13 active torsions:
REMARK  status: ('A' for Active; 'I' for Inactive)
REMARK    1  A    between atoms: C_1  and  C_2
REMARK    2  A    between atoms: C_2  and  O_3
REMARK    3  A    between atoms: O_3  and  C_4
REMARK    4  A    between atoms: C_8  and  C_11
REMARK    5  A    between atoms: C_9  and  O_10
REMARK    6  A    between atoms: N_19  and  C_22
REMARK    7  A    between atoms: C_27  and  O_28
REMARK    8  A    between atoms: O_28  and  C_29
REMARK    9  A    between atoms: C_30  and  C_32
REMARK   10  A    between atoms: C_30  and  C_36
REMARK   11  A    between atoms: C_32  and  C_33
REMARK   12  A    between atoms: C_33  and  C_34
REMARK   13  A    between atoms: C_33  and  C_35
REMARK                            x       y       z     vdW  Elec       q    Type
REMARK                         _______ _______ _______ _____ _____    ______ ____
ROOT
ATOM      1  C   UNL     1       2.097  -4.339   4.240  0.00  0.00    -0.023 C 
ATOM      2  C   UNL     1       1.206  -4.222   5.494  0.00  0.00    +0.077 C 
ATOM      3  C   UNL     1       1.476  -5.523   6.297  0.00  0.00    +0.086 C 
ATOM      4  C   UNL     1       0.147  -6.242   6.253  0.00  0.00    +0.229 C 
ATOM      5  O   UNL     1      -0.086  -7.316   6.766  0.00  0.00    -0.275 OA
ATOM      6  N   UNL     1      -0.732  -5.509   5.560  0.00  0.00    -0.206 N 
ATOM      7  C   UNL     1      -0.245  -4.339   5.086  0.00  0.00    +0.229 C 
ATOM      8  O   UNL     1      -0.860  -3.518   4.441  0.00  0.00    -0.275 OA
ATOM      9  C   UNL     1       2.517  -6.296   5.461  0.00  0.00    +0.048 C 
ATOM     10  N   UNL     1       2.320  -5.797   4.067  0.00  0.00    +0.396 N 
ATOM     11  H   UNL     1       1.514  -6.229   3.639  0.00  0.00    -0.083 HD
ATOM     12  H   UNL     1       3.147  -5.965   3.515  0.00  0.00    -0.083 HD
ENDROOT
BRANCH   1  17
ATOM     13  C   UNL     1       0.812  -1.892   1.654  0.00  0.00    +0.162 A 
ATOM     14  C   UNL     1       0.083  -2.730   0.826  0.00  0.00    +0.049 A 
ATOM     15  C   UNL     1       0.009  -4.082   1.103  0.00  0.00    +0.004 A 
ATOM     16  C   UNL     1       0.661  -4.601   2.207  0.00  0.00    +0.006 A 
ATOM     17  C   UNL     1       1.389  -3.770   3.038  0.00  0.00    -0.015 A 
ATOM     18  C   UNL     1       1.472  -2.415   2.762  0.00  0.00    +0.160 A 
BRANCH  18  19
ATOM     19  O   UNL     1       2.193  -1.597   3.575  0.00  0.00    -0.503 OA
ATOM     20  H   UNL     1       1.683  -1.219   4.305  0.00  0.00    +0.292 HD
ENDBRANCH  18  19
BRANCH  13  21
ATOM     21  O   UNL     1       0.886  -0.561   1.382  0.00  0.00    -0.489 OA
BRANCH  21  23
ATOM     22  C   UNL     1       0.382   1.416   0.087  0.00  0.00    +0.048 C 
ATOM     23  C   UNL     1       0.183  -0.095   0.229  0.00  0.00    +0.226 C 
ENDBRANCH  21  23
ENDBRANCH  13  21
ENDBRANCH   1  17
BRANCH   6  24
ATOM     24  C   UNL     1      -2.058  -5.917   5.345  0.00  0.00    +0.085 A 
ATOM     25  C   UNL     1      -3.050  -5.559   6.247  0.00  0.00    +0.027 A 
ATOM     26  C   UNL     1      -4.355  -5.961   6.033  0.00  0.00    +0.002 A 
ATOM     27  C   UNL     1      -4.675  -6.720   4.922  0.00  0.00    +0.004 A 
ATOM     28  C   UNL     1      -3.692  -7.080   4.020  0.00  0.00    +0.047 A 
ATOM     29  C   UNL     1      -2.382  -6.676   4.224  0.00  0.00    +0.142 A 
BRANCH  29  30
ATOM     30  O   UNL     1      -1.415  -7.025   3.335  0.00  0.00    -0.493 OA
ATOM     31  C   UNL     1      -1.821  -7.805   2.208  0.00  0.00    +0.277 C 
ENDBRANCH  29  30
ENDBRANCH   6  24
BRANCH   9  32
ATOM     32  C   UNL     1       2.240  -7.776   5.517  0.00  0.00    +0.346 C 
ATOM     33  O   UNL     1       1.882  -8.368   4.513  0.00  0.00    -0.248 OA
ATOM     34  O   UNL     1       2.375  -8.382   6.567  0.00  0.00    -0.248 OA
ENDBRANCH   9  32
BRANCH   9  35
ATOM     35  C   UNL     1       3.931  -5.997   5.961  0.00  0.00    +0.002 C 
BRANCH  35  36
ATOM     36  C   UNL     1       4.952  -6.643   5.022  0.00  0.00    -0.018 C 
ATOM     37  C   UNL     1       6.360  -6.189   5.409  0.00  0.00    +0.007 C 
ATOM     38  C   UNL     1       4.857  -8.165   5.136  0.00  0.00    +0.007 C 
ENDBRANCH  35  36
ENDBRANCH   9  35
TORSDOF 9
