REMARK  Name = ZINC01159122
REMARK  8 active torsions:
REMARK  status: ('A' for Active; 'I' for Inactive)
REMARK    1  A    between atoms: C_1  and  C_2
REMARK    2  A    between atoms: C_2  and  O_3
REMARK    3  A    between atoms: O_3  and  C_4
REMARK    4  A    between atoms: C_6  and  C_11
REMARK    5  A    between atoms: C_9  and  O_10
REMARK    6  A    between atoms: C_13  and  C_20
REMARK    7  A    between atoms: C_14  and  C_19
REMARK    8  A    between atoms: N_22  and  C_23
REMARK                            x       y       z     vdW  Elec       q    Type
REMARK                         _______ _______ _______ _____ _____    ______ ____
ROOT
ATOM      1  C   UNL     1      -1.379  -0.567  -0.555  0.00  0.00    +0.139 C 
ATOM      2  C   UNL     1       0.008  -0.033  -0.259  0.00  0.00    +0.056 C 
ATOM      3  C   UNL     1       0.993  -0.929  -0.040  0.00  0.00    +0.017 C 
ATOM      4  N   UNL     1       0.745  -2.272  -0.075  0.00  0.00    -0.300 N 
ATOM      5  C   UNL     1      -0.459  -2.798  -0.331  0.00  0.00    +0.135 C 
ATOM      6  S   UNL     1      -0.632  -4.501  -0.351  0.00  0.00    -0.019 S 
ATOM      7  N   UNL     1      -1.540  -2.031  -0.575  0.00  0.00    -0.315 N 
ATOM      8  C   UNL     1       2.388  -0.441   0.253  0.00  0.00    +0.061 C 
ATOM      9  H   UNL     1       1.483  -2.878   0.092  0.00  0.00    +0.154 HD
ATOM     10  H   UNL     1      -2.403  -2.433  -0.760  0.00  0.00    +0.149 HD
ENDROOT
BRANCH   1  13
ATOM     11  C   UNL     1      -3.151   1.452  -3.212  0.00  0.00    +0.162 A 
ATOM     12  C   UNL     1      -2.763   0.958  -1.977  0.00  0.00    +0.055 A 
ATOM     13  C   UNL     1      -1.804  -0.035  -1.900  0.00  0.00    -0.019 A 
ATOM     14  C   UNL     1      -1.238  -0.544  -3.054  0.00  0.00    +0.009 A 
ATOM     15  C   UNL     1      -1.625  -0.060  -4.289  0.00  0.00    +0.049 A 
ATOM     16  C   UNL     1      -2.582   0.939  -4.373  0.00  0.00    +0.158 A 
BRANCH  16  17
ATOM     17  O   UNL     1      -2.964   1.416  -5.588  0.00  0.00    -0.503 OA
ATOM     18  H   UNL     1      -3.710   0.942  -5.980  0.00  0.00    +0.292 HD
ENDBRANCH  16  17
BRANCH  11  19
ATOM     19  O   UNL     1      -4.090   2.432  -3.289  0.00  0.00    -0.489 OA
BRANCH  19  21
ATOM     20  C   UNL     1      -5.803   3.866  -2.365  0.00  0.00    +0.048 C 
ATOM     21  C   UNL     1      -4.734   2.811  -2.071  0.00  0.00    +0.226 C 
ENDBRANCH  19  21
ENDBRANCH  11  19
ENDBRANCH   1  13
BRANCH   2  22
ATOM     22  C   UNL     1       0.263   1.360  -0.218  0.00  0.00    +0.248 C 
ATOM     23  O   UNL     1      -0.030   2.003   0.774  0.00  0.00    -0.270 OA
ATOM     24  N   UNL     1       0.834   1.972  -1.274  0.00  0.00    -0.282 N 
ATOM     25  H   UNL     1       0.976   1.482  -2.099  0.00  0.00    +0.155 HD
BRANCH  24  26
ATOM     26  C   UNL     1       1.222   3.313  -1.180  0.00  0.00    +0.037 A 
ATOM     27  C   UNL     1       1.654   3.828   0.036  0.00  0.00    +0.026 A 
ATOM     28  C   UNL     1       2.042   5.151   0.127  0.00  0.00    +0.043 A 
ATOM     29  C   UNL     1       1.991   5.967  -0.990  0.00  0.00    +0.159 A 
ATOM     30  C   UNL     1       1.555   5.457  -2.204  0.00  0.00    +0.160 A 
ATOM     31  C   UNL     1       1.171   4.131  -2.300  0.00  0.00    +0.064 A 
ATOM     32  F   UNL     1       1.506   6.255  -3.293  0.00  0.00    -0.202 F 
ATOM     33  F   UNL     1       2.366   7.261  -0.898  0.00  0.00    -0.202 F 
ENDBRANCH  24  26
ENDBRANCH   2  22
TORSDOF 6
