REMARK  Name = ZINC20720191
REMARK  6 active torsions:
REMARK  status: ('A' for Active; 'I' for Inactive)
REMARK    1  A    between atoms: C_1  and  C_2
REMARK    2  A    between atoms: C_2  and  C_3
REMARK    3  A    between atoms: C_2  and  N_4
REMARK    4  A    between atoms: N_4  and  S_5
REMARK    5  A    between atoms: S_5  and  C_8
REMARK    6  A    between atoms: C_21  and  C_24
REMARK                            x       y       z     vdW  Elec       q    Type
REMARK                         _______ _______ _______ _____ _____    ______ ____
ROOT
ATOM      1  C   UNL     1      -0.949   2.209   1.507  0.00  0.00    +0.106 A 
ATOM      2  C   UNL     1      -2.301   2.420   1.704  0.00  0.00    +0.030 A 
ATOM      3  C   UNL     1      -2.760   2.800   2.950  0.00  0.00    +0.025 A 
ATOM      4  C   UNL     1      -1.864   2.981   3.995  0.00  0.00    +0.031 A 
ATOM      5  C   UNL     1      -0.506   2.777   3.801  0.00  0.00    -0.018 A 
ATOM      6  C   UNL     1      -0.058   2.389   2.546  0.00  0.00    +0.034 A 
ATOM      7  C   UNL     1       0.495   2.958   4.897  0.00  0.00    +0.049 C 
ATOM      8  C   UNL     1       1.278   4.238   4.723  0.00  0.00    -0.023 C 
ATOM      9  C   UNL     1       1.529   4.779   5.890  0.00  0.00    -0.030 C 
ATOM     10  C   UNL     1       0.951   3.927   7.005  0.00  0.00    +0.033 C 
ATOM     11  C   UNL     1      -0.153   3.096   6.288  0.00  0.00    +0.029 C 
ATOM     12  C   UNL     1      -1.401   3.980   6.197  0.00  0.00    +0.107 C 
ATOM     13  N   UNL     1      -2.343   3.376   5.249  0.00  0.00    -0.336 N 
ATOM     14  H   UNL     1      -3.397   3.242   5.532  0.00  0.00    +0.147 HD
ENDROOT
BRANCH  12  15
ATOM     15  C   UNL     1      -1.012   5.354   5.715  0.00  0.00    -0.002 A 
ATOM     16  C   UNL     1      -0.990   5.777   4.441  0.00  0.00    +0.089 A 
ATOM     17  N   UNL     1      -0.585   7.083   4.389  0.00  0.00    -0.360 N 
ATOM     18  H   UNL     1      -0.508   7.597   3.420  0.00  0.00    +0.165 HD
ATOM     19  C   UNL     1      -0.330   7.544   5.662  0.00  0.00    +0.047 A 
ATOM     20  C   UNL     1      -0.592   6.483   6.548  0.00  0.00    +0.005 A 
ATOM     21  C   UNL     1      -0.422   6.665   7.921  0.00  0.00    +0.010 A 
ATOM     22  C   UNL     1      -0.005   7.876   8.399  0.00  0.00    +0.001 A 
ATOM     23  C   UNL     1       0.251   8.927   7.529  0.00  0.00    +0.002 A 
ATOM     24  C   UNL     1       0.097   8.767   6.169  0.00  0.00    +0.026 A 
ENDBRANCH  12  15
BRANCH   1  25
ATOM     25  S   UNL     1      -0.360   1.716  -0.079  0.00  0.00    +0.059 S 
ATOM     26  O   UNL     1       1.002   2.119  -0.149  0.00  0.00    -0.153 OA
ATOM     27  O   UNL     1      -1.331   2.145  -1.024  0.00  0.00    -0.153 OA
BRANCH  25  28
ATOM     28  N   UNL     1      -0.366   0.061  -0.111  0.00  0.00    -0.187 NA
ATOM     29  H   UNL     1       0.587  -0.482  -0.029  0.00  0.00    +0.148 HD
BRANCH  28  31
ATOM     30  C   UNL     1      -2.124  -1.003  -1.437  0.00  0.00    +0.025 C 
ATOM     31  C   UNL     1      -1.634  -0.669  -0.027  0.00  0.00    +0.070 C 
ATOM     32  C   UNL     1      -1.426  -1.963   0.762  0.00  0.00    +0.025 C 
ENDBRANCH  28  31
ENDBRANCH  25  28
ENDBRANCH   1  25
TORSDOF 4
