REMARK  Name = ZINC01177554
REMARK  8 active torsions:
REMARK  status: ('A' for Active; 'I' for Inactive)
REMARK    1  A    between atoms: C_1  and  C_2
REMARK    2  A    between atoms: C_2  and  O_3
REMARK    3  A    between atoms: O_3  and  C_4
REMARK    4  A    between atoms: C_6  and  C_11
REMARK    5  A    between atoms: C_9  and  O_10
REMARK    6  A    between atoms: C_14  and  C_25
REMARK    7  A    between atoms: C_20  and  N_24
REMARK    8  A    between atoms: C_21  and  C_22
REMARK                            x       y       z     vdW  Elec       q    Type
REMARK                         _______ _______ _______ _____ _____    ______ ____
ROOT
ATOM      1  C   UNL     1       0.782  -4.981  -0.011  0.00  0.00    +0.102 C 
ATOM      2  C   UNL     1       0.618  -5.926  -1.172  0.00  0.00    +0.054 A 
ATOM      3  C   UNL     1       0.720  -5.671  -2.543  0.00  0.00    +0.100 A 
ATOM      4  N   UNL     1       0.496  -6.802  -3.185  0.00  0.00    -0.171 NA
ATOM      5  N   UNL     1       0.245  -7.806  -2.237  0.00  0.00    -0.246 N 
ATOM      6  H   UNL     1       0.049  -8.736  -2.429  0.00  0.00    +0.192 HD
ATOM      7  C   UNL     1       0.325  -7.250  -1.010  0.00  0.00    +0.223 A 
ATOM      8  O   UNL     1       0.162  -7.819   0.210  0.00  0.00    -0.423 OA
ATOM      9  C   UNL     1       0.563  -7.114   1.288  0.00  0.00    +0.200 C 
ATOM     10  C   UNL     1       0.869  -5.797   1.254  0.00  0.00    +0.098 C 
ENDROOT
BRANCH   3  11
ATOM     11  C   UNL     1       1.028  -4.359  -3.166  0.00  0.00    +0.004 A 
ATOM     12  C   UNL     1       2.019  -3.543  -2.624  0.00  0.00    +0.011 A 
ATOM     13  C   UNL     1       2.302  -2.325  -3.206  0.00  0.00    +0.022 A 
ATOM     14  C   UNL     1       1.603  -1.911  -4.327  0.00  0.00    +0.059 A 
ATOM     15  C   UNL     1       0.617  -2.718  -4.870  0.00  0.00    +0.060 A 
ATOM     16  C   UNL     1       0.331  -3.942  -4.297  0.00  0.00    +0.031 A 
ATOM     17 CL   UNL     1      -0.256  -2.194  -6.276  0.00  0.00    -0.082 Cl
ATOM     18 CL   UNL     1       1.963  -0.377  -5.054  0.00  0.00    -0.082 Cl
ENDBRANCH   3  11
BRANCH   1  21
ATOM     19  C   UNL     1      -1.301  -1.831   0.119  0.00  0.00    +0.162 A 
ATOM     20  C   UNL     1      -0.211  -2.685   0.052  0.00  0.00    +0.054 A 
ATOM     21  C   UNL     1      -0.404  -4.054   0.063  0.00  0.00    -0.031 A 
ATOM     22  C   UNL     1      -1.682  -4.574   0.141  0.00  0.00    +0.008 A 
ATOM     23  C   UNL     1      -2.773  -3.728   0.208  0.00  0.00    +0.049 A 
ATOM     24  C   UNL     1      -2.587  -2.355   0.203  0.00  0.00    +0.158 A 
BRANCH  24  25
ATOM     25  O   UNL     1      -3.659  -1.522   0.275  0.00  0.00    -0.503 OA
ATOM     26  H   UNL     1      -4.027  -1.280  -0.586  0.00  0.00    +0.292 HD
ENDBRANCH  24  25
BRANCH  19  27
ATOM     27  O   UNL     1      -1.113  -0.484   0.109  0.00  0.00    -0.489 OA
BRANCH  27  29
ATOM     28  C   UNL     1       0.246   1.512   0.022  0.00  0.00    +0.048 C 
ATOM     29  C   UNL     1       0.235  -0.018   0.020  0.00  0.00    +0.226 C 
ENDBRANCH  27  29
ENDBRANCH  19  27
ENDBRANCH   1  21
BRANCH   9  30
ATOM     30  N   UNL     1       0.668  -7.772   2.488  0.00  0.00    -0.328 N 
ATOM     31  H   UNL     1       0.456  -8.717   2.544  0.00  0.00    +0.145 HD
ATOM     32  H   UNL     1       0.954  -7.291   3.281  0.00  0.00    +0.145 HD
ENDBRANCH   9  30
BRANCH  10  33
ATOM     33  C   UNL     1       1.290  -5.155   2.463  0.00  0.00    +0.101 C 
ATOM     34  N   UNL     1       1.624  -4.645   3.422  0.00  0.00    -0.191 NA
ENDBRANCH  10  33
TORSDOF 7
