REMARK  Name = ZINC03122261
REMARK  9 active torsions:
REMARK  status: ('A' for Active; 'I' for Inactive)
REMARK    1  A    between atoms: C_1  and  C_2
REMARK    2  A    between atoms: C_2  and  O_3
REMARK    3  A    between atoms: O_3  and  C_4
REMARK    4  A    between atoms: N_6  and  C_7
REMARK    5  A    between atoms: C_7  and  C_9
REMARK    6  A    between atoms: C_7  and  N_13
REMARK    7  A    between atoms: N_13  and  C_14
REMARK    8  A    between atoms: C_14  and  N_16
REMARK    9  A    between atoms: N_16  and  C_17
REMARK                            x       y       z     vdW  Elec       q    Type
REMARK                         _______ _______ _______ _____ _____    ______ ____
ROOT
ATOM      1  N   UNL     1       2.296   5.515   0.212  0.00  0.00    -0.305 N 
ATOM      2  H   UNL     1       1.449   5.988   0.222  0.00  0.00    +0.150 HD
ENDROOT
BRANCH   1   3
ATOM      3  C   UNL     1       2.317   4.172   0.104  0.00  0.00    +0.136 C 
ATOM      4  S   UNL     1       3.812   3.338   0.086  0.00  0.00    -0.019 S 
BRANCH   3   5
ATOM      5  N   UNL     1       1.161   3.485   0.009  0.00  0.00    -0.297 N 
ATOM      6  H   UNL     1       0.319   3.961  -0.061  0.00  0.00    +0.154 HD
BRANCH   5   7
ATOM      7  C   UNL     1       1.176   2.086   0.013  0.00  0.00    +0.033 A 
ATOM      8  C   UNL     1       2.010   1.402   0.888  0.00  0.00    +0.024 A 
ATOM      9  C   UNL     1       2.023   0.021   0.890  0.00  0.00    +0.017 A 
ATOM     10  C   UNL     1       1.206  -0.681   0.022  0.00  0.00    +0.018 A 
ATOM     11  C   UNL     1       0.374  -0.002  -0.851  0.00  0.00    +0.017 A 
ATOM     12  C   UNL     1       0.358   1.379  -0.858  0.00  0.00    +0.024 A 
ATOM     13 BR   UNL     1       1.225  -2.572   0.028  0.00  0.00    -0.050 Br
ENDBRANCH   5   7
ENDBRANCH   3   5
ENDBRANCH   1   3
BRANCH   1  14
ATOM     14  C   UNL     1       3.553   6.262   0.315  0.00  0.00    +0.214 C 
BRANCH  14  17
ATOM     15  C   UNL     1       4.784   6.435  -1.781  0.00  0.00    +0.402 C 
ATOM     16  O   UNL     1       5.410   5.444  -1.461  0.00  0.00    -0.226 OA
ATOM     17  N   UNL     1       3.832   6.925  -0.961  0.00  0.00    -0.259 N 
ATOM     18  H   UNL     1       3.333   7.716  -1.216  0.00  0.00    +0.154 HD
BRANCH  15  19
ATOM     19  O   UNL     1       5.041   7.045  -2.953  0.00  0.00    -0.451 OA
BRANCH  19  21
ATOM     20  C   UNL     1       6.227   7.286  -5.066  0.00  0.00    +0.048 C 
ATOM     21  C   UNL     1       6.079   6.463  -3.785  0.00  0.00    +0.230 C 
ENDBRANCH  19  21
ENDBRANCH  15  19
ENDBRANCH  14  17
BRANCH  14  22
ATOM     22  C   UNL     1       3.433   7.313   1.420  0.00  0.00    +0.225 C 
ATOM     23 CL   UNL     1       3.088   6.497   2.991  0.00  0.00    -0.080 Cl
ATOM     24 CL   UNL     1       4.979   8.231   1.546  0.00  0.00    -0.080 Cl
ATOM     25 CL   UNL     1       2.089   8.449   1.026  0.00  0.00    -0.080 Cl
ENDBRANCH  14  22
ENDBRANCH   1  14
TORSDOF 8
