REMARK  Name = ZINC50721855
REMARK  2 active torsions:
REMARK  status: ('A' for Active; 'I' for Inactive)
REMARK    1  A    between atoms: C_1  and  N_2
REMARK    2  A    between atoms: C_7  and  C_9
REMARK                            x       y       z     vdW  Elec       q    Type
REMARK                         _______ _______ _______ _____ _____    ______ ____
ROOT
ATOM      1  C   UNL     1       1.163  -4.175  -2.000  0.00  0.00    +0.270 C 
ATOM      2  O   UNL     1       1.677  -4.811  -2.898  0.00  0.00    -0.268 OA
ATOM      3  N   UNL     1       0.581  -4.816  -0.967  0.00  0.00    -0.259 N 
ATOM      4  C   UNL     1       0.568  -6.200  -0.931  0.00  0.00    +0.166 A 
ATOM      5  N   UNL     1       1.070  -7.051  -1.795  0.00  0.00    -0.225 NA
ATOM      6  C   UNL     1       0.984  -8.389  -1.631  0.00  0.00    +0.080 A 
ATOM      7  C   UNL     1       1.477  -9.407  -2.479  0.00  0.00    +0.029 A 
ATOM      8  C   UNL     1       1.302 -10.728  -2.163  0.00  0.00    +0.002 A 
ATOM      9  C   UNL     1       0.639 -11.115  -1.007  0.00  0.00    +0.001 A 
ATOM     10  C   UNL     1       0.143 -10.147  -0.154  0.00  0.00    +0.017 A 
ATOM     11  C   UNL     1       0.314  -8.820  -0.463  0.00  0.00    +0.041 A 
ATOM     12  S   UNL     1      -0.130  -7.282   0.308  0.00  0.00    -0.052 S 
ATOM     13  H   UNL     1       0.171  -4.309  -0.250  0.00  0.00    +0.157 HD
ENDROOT
BRANCH   1  20
ATOM     14  C   UNL     1      -0.018   1.461   0.010  0.00  0.00    +0.127 C 
ATOM     15  N   UNL     1       0.002  -0.004   0.002  0.00  0.00    -0.332 N 
ATOM     16  C   UNL     1       0.604  -0.685  -1.050  0.00  0.00    +0.119 A 
ATOM     17  C   UNL     1       1.191   0.034  -2.091  0.00  0.00    +0.045 A 
ATOM     18  C   UNL     1       1.787  -0.649  -3.134  0.00  0.00    +0.025 A 
ATOM     19  C   UNL     1       1.781  -2.039  -3.108  0.00  0.00    +0.072 A 
ATOM     20  C   UNL     1       1.177  -2.695  -2.038  0.00  0.00    +0.146 A 
ATOM     21  N   UNL     1       0.617  -2.005  -1.050  0.00  0.00    -0.226 NA
ATOM     22 CL   UNL     1       2.516  -2.945  -4.393  0.00  0.00    -0.081 Cl
ATOM     23  H   UNL     1      -0.404  -0.499   0.731  0.00  0.00    +0.147 HD
ENDBRANCH   1  20
TORSDOF 1
