REMARK  Name = ZINC20466638
REMARK  10 active torsions:
REMARK  status: ('A' for Active; 'I' for Inactive)
REMARK    1  A    between atoms: C_1  and  C_2
REMARK    2  A    between atoms: C_4  and  N_33
REMARK    3  A    between atoms: C_8  and  C_32
REMARK    4  A    between atoms: C_11  and  O_31
REMARK    5  A    between atoms: C_13  and  C_17
REMARK    6  A    between atoms: C_17  and  C_19
REMARK    7  A    between atoms: C_17  and  C_20
REMARK    8  A    between atoms: N_22  and  C_23
REMARK    9  A    between atoms: C_23  and  C_24
REMARK   10  A    between atoms: C_34  and  C_36
REMARK                            x       y       z     vdW  Elec       q    Type
REMARK                         _______ _______ _______ _____ _____    ______ ____
ROOT
ATOM      1  C   UNL     1       0.285  -1.955  -1.550  0.00  0.00    +0.010 C 
ATOM      2  C   UNL     1       0.206  -0.427  -1.557  0.00  0.00    +0.012 C 
ATOM      3  C   UNL     1       1.616   0.157  -1.449  0.00  0.00    +0.076 C 
ATOM      4  C   UNL     1       1.538   1.685  -1.456  0.00  0.00    +0.023 C 
ATOM      5  C   UNL     1       0.697   2.158  -0.268  0.00  0.00    +0.009 C 
ATOM      6  C   UNL     1      -0.713   1.574  -0.377  0.00  0.00    -0.027 C 
ATOM      7  C   UNL     1      -0.634   0.046  -0.369  0.00  0.00    +0.028 C 
ATOM      8  C   UNL     1      -2.045  -0.537  -0.478  0.00  0.00    +0.122 C 
ATOM      9  C   UNL     1      -2.885  -0.065   0.710  0.00  0.00    +0.029 C 
ATOM     10  C   UNL     1      -2.964   1.463   0.703  0.00  0.00    +0.007 C 
ATOM     11  C   UNL     1      -1.554   2.047   0.811  0.00  0.00    +0.007 C 
ATOM     12  C   UNL     1      -1.361   2.046  -1.680  0.00  0.00    +0.011 C 
ENDROOT
BRANCH   3  13
ATOM     13  N   UNL     1       2.421  -0.296  -2.586  0.00  0.00    -0.312 N 
ATOM     14  C   UNL     1       3.763  -0.355  -2.481  0.00  0.00    +0.216 C 
ATOM     15  O   UNL     1       4.305  -0.034  -1.444  0.00  0.00    -0.276 OA
ATOM     16  H   UNL     1       1.930  -0.587  -3.526  0.00  0.00    +0.149 HD
BRANCH  14  17
ATOM     17  C   UNL     1       4.591  -0.821  -3.650  0.00  0.00    +0.075 C 
ATOM     18  C   UNL     1       5.304  -2.169  -3.520  0.00  0.00    +0.013 C 
ATOM     19  C   UNL     1       6.109  -0.868  -3.467  0.00  0.00    +0.013 C 
ENDBRANCH  14  17
ENDBRANCH   3  13
BRANCH   9  20
ATOM     20  C   UNL     1      -2.237  -0.536   2.013  0.00  0.00    +0.077 C 
ATOM     21  C   UNL     1      -2.079  -2.057   1.984  0.00  0.00    +0.017 C 
BRANCH  20  22
ATOM     22  C   UNL     1      -3.108  -0.144   3.178  0.00  0.00    +0.216 C 
ATOM     23  O   UNL     1      -4.146   0.454   2.985  0.00  0.00    -0.276 OA
ATOM     24  N   UNL     1      -2.735  -0.457   4.435  0.00  0.00    -0.311 N 
ATOM     25  H   UNL     1      -1.794  -0.999   4.610  0.00  0.00    +0.149 HD
BRANCH  24  26
ATOM     26  C   UNL     1      -3.582  -0.076   5.567  0.00  0.00    +0.139 C 
BRANCH  26  27
ATOM     27  C   UNL     1      -2.944  -0.540   6.851  0.00  0.00    -0.030 A 
ATOM     28  C   UNL     1      -3.240  -1.792   7.356  0.00  0.00    +0.008 A 
ATOM     29  C   UNL     1      -2.651  -2.221   8.530  0.00  0.00    +0.038 A 
ATOM     30  C   UNL     1      -1.773  -1.391   9.207  0.00  0.00    +0.123 A 
ATOM     31  C   UNL     1      -1.482  -0.135   8.703  0.00  0.00    +0.038 A 
ATOM     32  C   UNL     1      -2.067   0.289   7.526  0.00  0.00    +0.008 A 
ATOM     33  F   UNL     1      -1.201  -1.807  10.358  0.00  0.00    -0.205 F 
ENDBRANCH  26  27
ENDBRANCH  24  26
ENDBRANCH  20  22
ENDBRANCH   9  20
BRANCH   8  34
ATOM     34  O   UNL     1      -1.971  -1.965  -0.471  0.00  0.00    -0.391 OA
ATOM     35  H   UNL     1      -2.891  -2.563  -0.542  0.00  0.00    +0.210 HD
ENDBRANCH   8  34
TORSDOF 7
