REMARK  Name = ZINC35770801
REMARK  11 active torsions:
REMARK  status: ('A' for Active; 'I' for Inactive)
REMARK    1  A    between atoms: C_1  and  C_2
REMARK    2  A    between atoms: C_2  and  C_3
REMARK    3  A    between atoms: C_2  and  C_4
REMARK    4  A    between atoms: C_2  and  C_5
REMARK    5  A    between atoms: C_8  and  C_11
REMARK    6  A    between atoms: C_21  and  C_23
REMARK    7  A    between atoms: C_23  and  N_24
REMARK    8  A    between atoms: N_24  and  C_25
REMARK    9  A    between atoms: C_25  and  C_26
REMARK   10  A    between atoms: C_28  and  C_30
REMARK   11  A    between atoms: C_33  and  N_36
REMARK                            x       y       z     vdW  Elec       q    Type
REMARK                         _______ _______ _______ _____ _____    ______ ____
ROOT
ATOM      1  C   UNL     1       4.881  -0.887  -4.980  0.00  0.00    +0.137 C 
ATOM      2  C   UNL     1       5.605   0.255  -5.690  0.00  0.00    -0.012 A 
ATOM      3  C   UNL     1       5.014   1.032  -6.685  0.00  0.00    +0.013 A 
ATOM      4  C   UNL     1       5.715   2.032  -7.268  0.00  0.00    +0.046 A 
ATOM      5  S   UNL     1       7.284   1.925  -6.421  0.00  0.00    -0.101 S 
ATOM      6  C   UNL     1       6.890   0.559  -5.360  0.00  0.00    -0.003 A 
ATOM      7  C   UNL     1       7.759  -0.109  -4.345  0.00  0.00    +0.062 C 
ATOM      8  C   UNL     1       6.873  -0.953  -3.416  0.00  0.00    +0.114 C 
ATOM      9  N   UNL     1       5.884  -1.665  -4.240  0.00  0.00    -0.289 N 
ATOM     10  C   UNL     1       5.899  -3.010  -4.317  0.00  0.00    +0.234 C 
ATOM     11  O   UNL     1       5.080  -3.588  -5.000  0.00  0.00    -0.274 OA
ENDROOT
BRANCH   1  15
ATOM     12  C   UNL     1       1.987   0.698  -2.268  0.00  0.00    -0.042 A 
ATOM     13  C   UNL     1       3.306   1.106  -2.188  0.00  0.00    +0.004 A 
ATOM     14  C   UNL     1       4.242   0.592  -3.065  0.00  0.00    +0.006 A 
ATOM     15  C   UNL     1       3.861  -0.329  -4.023  0.00  0.00    -0.023 A 
ATOM     16  C   UNL     1       2.542  -0.737  -4.102  0.00  0.00    +0.006 A 
ATOM     17  C   UNL     1       1.607  -0.227  -3.222  0.00  0.00    +0.004 A 
BRANCH  12  19
ATOM     18  C   UNL     1       0.352   0.118  -0.496  0.00  0.00    +0.015 C 
ATOM     19  C   UNL     1       0.967   1.258  -1.311  0.00  0.00    -0.013 C 
ATOM     20  C   UNL     1      -0.134   1.972  -2.099  0.00  0.00    +0.015 C 
ATOM     21  C   UNL     1       1.644   2.252  -0.366  0.00  0.00    +0.015 C 
ENDBRANCH  12  19
ENDBRANCH   1  15
BRANCH  10  22
ATOM     22  C   UNL     1       6.932  -3.798  -3.553  0.00  0.00    +0.204 C 
BRANCH  22  23
ATOM     23  N   UNL     1       6.737  -5.228  -3.800  0.00  0.00    -0.285 N 
ATOM     24  C   UNL     1       6.067  -5.981  -2.906  0.00  0.00    +0.247 C 
ATOM     25  O   UNL     1       5.805  -7.140  -3.162  0.00  0.00    -0.270 OA
BRANCH  24  26
ATOM     26  C   UNL     1       5.650  -5.398  -1.613  0.00  0.00    +0.037 A 
ATOM     27  C   UNL     1       5.376  -4.033  -1.516  0.00  0.00    +0.015 A 
ATOM     28  C   UNL     1       4.987  -3.494  -0.307  0.00  0.00    +0.033 A 
ATOM     29  C   UNL     1       4.868  -4.305   0.808  0.00  0.00    +0.126 A 
ATOM     30  C   UNL     1       5.139  -5.659   0.719  0.00  0.00    +0.033 A 
ATOM     31  C   UNL     1       5.523  -6.211  -0.485  0.00  0.00    +0.015 A 
BRANCH  29  32
ATOM     32  N   UNL     1       4.451  -3.720   2.103  0.00  0.00    +0.056 N 
ATOM     33  O   UNL     1       4.214  -2.538   2.184  0.00  0.00    -0.126 OA
ATOM     34  O   UNL     1       4.347  -4.426   3.079  0.00  0.00    -0.126 OA
ENDBRANCH  29  32
ENDBRANCH  24  26
BRANCH  23  35
ATOM     35  C   UNL     1       7.271  -5.841  -5.019  0.00  0.00    +0.135 C 
BRANCH  35  36
ATOM     36  C   UNL     1       8.624  -6.438  -4.730  0.00  0.00    -0.016 C 
ATOM     37  C   UNL     1       8.852  -7.701  -4.993  0.00  0.00    +0.005 C 
ENDBRANCH  35  36
ENDBRANCH  23  35
ENDBRANCH  22  23
ENDBRANCH  10  22
TORSDOF 8
