REMARK  Name = ZINC58156283
REMARK  10 active torsions:
REMARK  status: ('A' for Active; 'I' for Inactive)
REMARK    1  A    between atoms: C_1  and  C_2
REMARK    2  A    between atoms: C_5  and  O_25
REMARK    3  A    between atoms: C_6  and  C_8
REMARK    4  A    between atoms: C_8  and  C_9
REMARK    5  A    between atoms: C_9  and  N_10
REMARK    6  A    between atoms: N_13  and  C_14
REMARK    7  A    between atoms: C_19  and  S_20
REMARK    8  A    between atoms: S_20  and  C_21
REMARK    9  A    between atoms: C_21  and  C_22
REMARK   10  A    between atoms: O_25  and  C_26
REMARK                            x       y       z     vdW  Elec       q    Type
REMARK                         _______ _______ _______ _____ _____    ______ ____
ROOT
ATOM      1  N   UNL     1       1.514  -3.909   4.138  0.00  0.00    -0.299 N 
ATOM      2  C   UNL     1       2.684  -4.331   4.658  0.00  0.00    +0.304 C 
ATOM      3  O   UNL     1       3.727  -4.093   4.080  0.00  0.00    -0.253 OA
ATOM      4  N   UNL     1       2.697  -5.015   5.819  0.00  0.00    -0.268 N 
ATOM      5  H   UNL     1       0.682  -4.099   4.599  0.00  0.00    +0.150 HD
ATOM      6  H   UNL     1       1.873  -5.148   6.313  0.00  0.00    +0.156 HD
ENDROOT
BRANCH   4   7
ATOM      7  C   UNL     1       3.902  -5.534   6.313  0.00  0.00    +0.048 A 
ATOM      8  C   UNL     1       5.089  -4.843   6.117  0.00  0.00    +0.024 A 
ATOM      9  C   UNL     1       6.276  -5.357   6.605  0.00  0.00    +0.002 A 
ATOM     10  C   UNL     1       6.286  -6.560   7.287  0.00  0.00    +0.001 A 
ATOM     11  C   UNL     1       5.108  -7.255   7.487  0.00  0.00    +0.016 A 
ATOM     12  C   UNL     1       3.911  -6.744   7.007  0.00  0.00    +0.030 A 
BRANCH  12  13
ATOM     13  S   UNL     1       2.406  -7.624   7.266  0.00  0.00    -0.114 S 
BRANCH  13  14
ATOM     14  C   UNL     1       2.915  -9.099   8.192  0.00  0.00    +0.169 C 
BRANCH  14  15
ATOM     15  C   UNL     1       1.706  -9.950   8.484  0.00  0.00    +0.221 C 
ATOM     16  O   UNL     1       0.610  -9.598   8.104  0.00  0.00    -0.275 OA
ATOM     17  N   UNL     1       1.844 -11.104   9.166  0.00  0.00    -0.329 N 
ATOM     18  H   UNL     1       2.721 -11.386   9.470  0.00  0.00    +0.145 HD
ATOM     19  H   UNL     1       1.066 -11.653   9.354  0.00  0.00    +0.145 HD
ENDBRANCH  14  15
ENDBRANCH  13  14
ENDBRANCH  12  13
ENDBRANCH   4   7
BRANCH   1  20
ATOM     20  C   UNL     1       1.499  -3.166   2.875  0.00  0.00    +0.110 C 
BRANCH  20  21
ATOM     21  C   UNL     1       0.057  -2.809   2.510  0.00  0.00    +0.057 C 
BRANCH  21  27
ATOM     22  C   UNL     1       0.005   1.546   0.048  0.00  0.00    +0.044 C 
ATOM     23  C   UNL     1       0.017   0.039   0.033  0.00  0.00    -0.050 A 
ATOM     24  C   UNL     1       0.014  -0.639  -1.173  0.00  0.00    +0.007 A 
ATOM     25  C   UNL     1       0.024  -2.020  -1.189  0.00  0.00    +0.046 A 
ATOM     26  C   UNL     1       0.038  -2.727   0.004  0.00  0.00    +0.123 A 
ATOM     27  C   UNL     1       0.042  -2.045   1.212  0.00  0.00    -0.004 A 
ATOM     28  C   UNL     1       0.037  -0.663   1.223  0.00  0.00    +0.010 A 
BRANCH  26  29
ATOM     29  O   UNL     1       0.047  -4.086  -0.010  0.00  0.00    -0.495 OA
ATOM     30  C   UNL     1       0.042  -4.721  -1.290  0.00  0.00    +0.277 C 
ENDBRANCH  26  29
ENDBRANCH  21  27
ENDBRANCH  20  21
ENDBRANCH   1  20
TORSDOF 8
