REMARK  Name = ZINC40782393
REMARK  8 active torsions:
REMARK  status: ('A' for Active; 'I' for Inactive)
REMARK    1  A    between atoms: C_1  and  C_2
REMARK    2  A    between atoms: C_2  and  C_3
REMARK    3  A    between atoms: C_2  and  C_4
REMARK    4  A    between atoms: C_4  and  C_5
REMARK    5  A    between atoms: C_5  and  N_6
REMARK    6  A    between atoms: C_8  and  N_21
REMARK    7  A    between atoms: C_9  and  N_13
REMARK    8  A    between atoms: N_13  and  C_14
REMARK                            x       y       z     vdW  Elec       q    Type
REMARK                         _______ _______ _______ _____ _____    ______ ____
ROOT
ATOM      1  N   UNL     1      -3.386  -0.974  -1.489  0.00  0.00    -0.327 N 
ATOM      2  C   UNL     1      -4.289  -0.555  -2.458  0.00  0.00    +0.145 A 
ATOM      3  C   UNL     1      -5.597  -1.044  -2.467  0.00  0.00    +0.105 A 
ATOM      4  C   UNL     1      -6.463  -0.591  -3.463  0.00  0.00    +0.149 A 
ATOM      5  N   UNL     1      -6.013   0.283  -4.360  0.00  0.00    -0.219 NA
ATOM      6  C   UNL     1      -4.771   0.720  -4.317  0.00  0.00    +0.225 A 
ATOM      7  N   UNL     1      -3.922   0.321  -3.390  0.00  0.00    -0.219 NA
ATOM      8  H   UNL     1      -3.661  -1.613  -0.813  0.00  0.00    +0.148 HD
ENDROOT
BRANCH   3   9
ATOM      9  N   UNL     1      -6.029  -1.966  -1.500  0.00  0.00    -0.353 N 
ATOM     10  H   UNL     1      -5.415  -2.273  -0.814  0.00  0.00    +0.143 HD
ATOM     11  H   UNL     1      -6.940  -2.297  -1.519  0.00  0.00    +0.143 HD
ENDBRANCH   3   9
BRANCH   4  12
ATOM     12  N   UNL     1      -7.776  -1.046  -3.518  0.00  0.00    -0.298 N 
ATOM     13  H   UNL     1      -8.121  -1.617  -2.814  0.00  0.00    +0.154 HD
BRANCH  12  14
ATOM     14  C   UNL     1      -8.599  -0.680  -4.587  0.00  0.00    +0.032 A 
ATOM     15  C   UNL     1      -9.952  -0.449  -4.376  0.00  0.00    +0.024 A 
ATOM     16  C   UNL     1     -10.762  -0.087  -5.434  0.00  0.00    +0.016 A 
ATOM     17  C   UNL     1     -10.227   0.045  -6.703  0.00  0.00    +0.013 A 
ATOM     18  C   UNL     1      -8.880  -0.185  -6.916  0.00  0.00    +0.016 A 
ATOM     19  C   UNL     1      -8.063  -0.541  -5.861  0.00  0.00    +0.024 A 
ATOM     20  I   UNL     1     -11.460   0.593  -8.306  0.00  0.00    -0.044 I 
ENDBRANCH  12  14
ENDBRANCH   4  12
BRANCH   1  21
ATOM     21  C   UNL     1      -2.018  -0.449  -1.487  0.00  0.00    +0.103 C 
BRANCH  21  22
ATOM     22  C   UNL     1      -1.236  -1.066  -0.325  0.00  0.00    +0.021 C 
BRANCH  22  24
ATOM     23  C   UNL     1       0.162   0.984  -0.037  0.00  0.00    +0.007 C 
ATOM     24  C   UNL     1       0.192  -0.518  -0.323  0.00  0.00    -0.016 C 
ATOM     25  C   UNL     1       1.008  -1.227   0.759  0.00  0.00    +0.007 C 
ENDBRANCH  22  24
ENDBRANCH  21  22
ENDBRANCH   1  21
TORSDOF 6
