REMARK  Name = ZINC66813905
REMARK  3 active torsions:
REMARK  status: ('A' for Active; 'I' for Inactive)
REMARK    1  A    between atoms: C_6  and  C_7
REMARK    2  A    between atoms: N_10  and  C_14
REMARK    3  A    between atoms: C_18  and  N_19
REMARK                            x       y       z     vdW  Elec       q    Type
REMARK                         _______ _______ _______ _____ _____    ______ ____
ROOT
ATOM      1  C   UNL     1      -1.293  -0.775   0.010  0.00  0.00    +0.165 C 
ATOM      2  C   UNL     1      -1.654  -1.155   1.451  0.00  0.00    +0.141 C 
ATOM      3  N   UNL     1      -2.813  -2.060   1.416  0.00  0.00    -0.323 N 
ATOM      4  C   UNL     1      -2.752  -3.227   0.522  0.00  0.00    +0.133 C 
ATOM      5  C   UNL     1      -2.338  -2.746  -0.874  0.00  0.00    +0.179 C 
ATOM      6  O   UNL     1      -1.146  -1.964  -0.768  0.00  0.00    -0.369 OA
ENDROOT
BRANCH   1  12
ATOM      7  C   UNL     1      -0.017   1.378   0.010  0.00  0.00    +0.009 A 
ATOM      8  C   UNL     1       1.170   2.086   0.002  0.00  0.00    +0.040 A 
ATOM      9  C   UNL     1       2.379   1.412  -0.013  0.00  0.00    +0.142 A 
ATOM     10  C   UNL     1       2.397   0.026  -0.021  0.00  0.00    +0.076 A 
ATOM     11  C   UNL     1       1.208  -0.680  -0.013  0.00  0.00    +0.029 A 
ATOM     12  C   UNL     1       0.002  -0.004   0.002  0.00  0.00    -0.016 A 
ATOM     13 CL   UNL     1       3.911  -0.823  -0.040  0.00  0.00    -0.081 Cl
ATOM     14  F   UNL     1       3.539   2.103  -0.021  0.00  0.00    -0.204 F 
ENDBRANCH   1  12
BRANCH   3  15
ATOM     15  C   UNL     1      -3.947  -1.817   2.214  0.00  0.00    +0.068 A 
ATOM     16  C   UNL     1      -4.997  -1.052   1.733  0.00  0.00    +0.033 A 
ATOM     17  C   UNL     1      -6.073  -0.839   2.530  0.00  0.00    +0.049 A 
ATOM     18  S   UNL     1      -5.623  -1.730   4.009  0.00  0.00    -0.071 S 
ATOM     19  C   UNL     1      -4.033  -2.334   3.468  0.00  0.00    +0.184 A 
BRANCH  19  20
ATOM     20  N   UNL     1      -3.058  -3.178   4.197  0.00  0.00    +0.065 N 
ATOM     21  O   UNL     1      -2.017  -3.493   3.670  0.00  0.00    -0.126 OA
ATOM     22  O   UNL     1      -3.304  -3.551   5.321  0.00  0.00    -0.126 OA
ENDBRANCH  19  20
ENDBRANCH   3  15
TORSDOF 3
