REMARK  Name = ZINC42439743
REMARK  4 active torsions:
REMARK  status: ('A' for Active; 'I' for Inactive)
REMARK    1  A    between atoms: C_1  and  C_2
REMARK    2  A    between atoms: C_6  and  C_23
REMARK    3  A    between atoms: C_14  and  O_22
REMARK    4  A    between atoms: C_17  and  C_19
REMARK                            x       y       z     vdW  Elec       q    Type
REMARK                         _______ _______ _______ _____ _____    ______ ____
ROOT
ATOM      1  C   UNL     1      -0.575   1.336   0.495  0.00  0.00    +0.028 C 
ATOM      2  C   UNL     1      -0.069  -0.044   0.069  0.00  0.00    +0.074 C 
ATOM      3  C   UNL     1      -1.214  -1.058   0.150  0.00  0.00    +0.023 C 
ATOM      4  C   UNL     1      -0.670  -2.459  -0.143  0.00  0.00    +0.016 C 
ATOM      5  C   UNL     1       0.379  -2.830   0.907  0.00  0.00    +0.092 C 
ATOM      6  C   UNL     1       1.542  -1.835   0.835  0.00  0.00    +0.122 C 
ATOM      7  N   UNL     1       1.011  -0.472   0.969  0.00  0.00    -0.282 N 
ATOM      8  C   UNL     1       1.502   0.368   1.901  0.00  0.00    +0.306 C 
ATOM      9  O   UNL     1       1.210   1.548   1.869  0.00  0.00    -0.252 OA
ATOM     10  N   UNL     1       2.316  -0.099   2.868  0.00  0.00    -0.269 N 
ATOM     11  C   UNL     1       2.625  -1.519   3.118  0.00  0.00    +0.141 C 
ATOM     12  C   UNL     1       3.043  -1.576   4.609  0.00  0.00    +0.134 C 
ATOM     13  C   UNL     1       3.821  -0.243   4.766  0.00  0.00    +0.067 C 
ATOM     14  C   UNL     1       3.046   0.722   3.844  0.00  0.00    +0.193 C 
ENDROOT
BRANCH   5  15
ATOM     15  C   UNL     1       0.890  -4.222   0.637  0.00  0.00    +0.215 C 
ATOM     16  O   UNL     1       0.457  -4.856  -0.302  0.00  0.00    -0.276 OA
ATOM     17  N   UNL     1       1.827  -4.763   1.440  0.00  0.00    -0.329 N 
ATOM     18  H   UNL     1       2.173  -4.257   2.192  0.00  0.00    +0.145 HD
ATOM     19  H   UNL     1       2.156  -5.660   1.267  0.00  0.00    +0.145 HD
ENDBRANCH   5  15
BRANCH  14  20
ATOM     20  C   UNL     1       4.009   1.634   3.128  0.00  0.00    +0.376 C 
ATOM     21  O   UNL     1       4.578   2.522   3.740  0.00  0.00    -0.244 OA
ATOM     22  O   UNL     1       4.219   1.484   1.936  0.00  0.00    -0.244 OA
ENDBRANCH  14  20
BRANCH  12  23
ATOM     23  O   UNL     1       1.897  -1.605   5.461  0.00  0.00    -0.390 OA
ATOM     24  H   UNL     1       1.327  -2.375   5.328  0.00  0.00    +0.210 HD
ENDBRANCH  12  23
TORSDOF 3
