REMARK  Name = ZINC08708339
REMARK  7 active torsions:
REMARK  status: ('A' for Active; 'I' for Inactive)
REMARK    1  A    between atoms: C_3  and  C_6
REMARK    2  A    between atoms: N_9  and  C_11
REMARK    3  A    between atoms: C_11  and  C_12
REMARK    4  A    between atoms: N_14  and  C_15
REMARK    5  A    between atoms: C_18  and  S_21
REMARK    6  A    between atoms: S_21  and  N_24
REMARK    7  A    between atoms: N_24  and  C_25
REMARK                            x       y       z     vdW  Elec       q    Type
REMARK                         _______ _______ _______ _____ _____    ______ ____
ROOT
ATOM      1  C   UNL     1      -1.223   1.752   0.012  0.00  0.00    +0.034 A 
ATOM      2  C   UNL     1      -0.021   1.083  -0.176  0.00  0.00    +0.025 A 
ATOM      3  C   UNL     1       1.166   1.790  -0.188  0.00  0.00    +0.030 A 
ATOM      4  C   UNL     1       1.159   3.160  -0.008  0.00  0.00    +0.105 A 
ATOM      5  C   UNL     1      -0.036   3.829   0.185  0.00  0.00    +0.030 A 
ATOM      6  C   UNL     1      -1.227   3.129   0.198  0.00  0.00    +0.025 A 
ENDROOT
BRANCH   1   9
ATOM      7  C   UNL     1      -2.465  -0.216   0.506  0.00  0.00    +0.240 C 
ATOM      8  O   UNL     1      -1.479  -0.695   1.025  0.00  0.00    -0.273 OA
ATOM      9  N   UNL     1      -2.428   1.041   0.019  0.00  0.00    -0.284 N 
ATOM     10  H   UNL     1      -3.236   1.452  -0.326  0.00  0.00    +0.155 HD
BRANCH   7  11
ATOM     11  C   UNL     1      -3.732  -1.025   0.405  0.00  0.00    +0.264 C 
BRANCH  11  15
ATOM     12  C   UNL     1      -3.029  -4.382   1.237  0.00  0.00    +0.211 A 
ATOM     13  N   UNL     1      -3.429  -3.890   2.419  0.00  0.00    -0.107 NA
ATOM     14  N   UNL     1      -3.719  -2.646   2.237  0.00  0.00    -0.045 NA
ATOM     15  N   UNL     1      -3.517  -2.345   1.002  0.00  0.00    -0.154 N 
ATOM     16  N   UNL     1      -3.102  -3.389   0.371  0.00  0.00    -0.129 NA
BRANCH  12  19
ATOM     17  C   UNL     1      -2.074  -8.045   1.322  0.00  0.00    +0.008 A 
ATOM     18  C   UNL     1      -2.508  -6.833   1.814  0.00  0.00    +0.019 A 
ATOM     19  C   UNL     1      -2.596  -5.769   0.958  0.00  0.00    +0.060 A 
ATOM     20  S   UNL     1      -2.062  -6.492  -0.584  0.00  0.00    -0.093 S 
ATOM     21  C   UNL     1      -1.748  -8.147   0.008  0.00  0.00    +0.046 A 
ENDBRANCH  12  19
ENDBRANCH  11  15
ENDBRANCH   7  11
ENDBRANCH   1   9
BRANCH   4  22
ATOM     22  S   UNL     1       2.675   4.058  -0.023  0.00  0.00    +0.059 S 
ATOM     23  O   UNL     1       2.448   5.253   0.711  0.00  0.00    -0.153 OA
ATOM     24  O   UNL     1       3.697   3.133   0.323  0.00  0.00    -0.153 OA
BRANCH  22  25
ATOM     25  N   UNL     1       2.959   4.512  -1.590  0.00  0.00    -0.185 NA
ATOM     26  H   UNL     1       3.725   4.156  -2.067  0.00  0.00    +0.148 HD
BRANCH  25  27
ATOM     27  C   UNL     1       2.053   5.451  -2.256  0.00  0.00    +0.099 C 
ATOM     28  C   UNL     1       1.021   4.674  -3.090  0.00  0.00    +0.044 C 
ATOM     29  C   UNL     1       0.273   5.641  -4.039  0.00  0.00    +0.167 C 
ATOM     30  S   UNL     1       1.514   6.968  -4.323  0.00  0.00    -0.029 S 
ATOM     31  O   UNL     1       1.008   8.193  -3.810  0.00  0.00    -0.174 OA
ATOM     32  O   UNL     1       1.959   6.905  -5.671  0.00  0.00    -0.174 OA
ATOM     33  C   UNL     1       2.862   6.367  -3.219  0.00  0.00    +0.186 C 
ENDBRANCH  25  27
ENDBRANCH  22  25
ENDBRANCH   4  22
TORSDOF 7
