REMARK  Name = ZINC06864894
REMARK  4 active torsions:
REMARK  status: ('A' for Active; 'I' for Inactive)
REMARK    1  A    between atoms: C_3  and  C_19
REMARK    2  A    between atoms: C_5  and  S_7
REMARK    3  A    between atoms: S_7  and  N_10
REMARK    4  A    between atoms: N_10  and  C_11
REMARK                            x       y       z     vdW  Elec       q    Type
REMARK                         _______ _______ _______ _____ _____    ______ ____
ROOT
ATOM      1  S   UNL     1      -0.112   5.706   0.058  0.00  0.00    +0.072 S 
ATOM      2  O   UNL     1      -1.350   6.181   0.568  0.00  0.00    -0.150 OA
ATOM      3  O   UNL     1       1.139   6.101   0.603  0.00  0.00    -0.150 OA
ENDROOT
BRANCH   1   8
ATOM      4  C   UNL     1       0.969   1.839   0.280  0.00  0.00    +0.003 A 
ATOM      5  C   UNL     1      -0.242   1.178   0.300  0.00  0.00    +0.019 A 
ATOM      6  C   UNL     1      -1.432   1.905   0.240  0.00  0.00    +0.054 A 
ATOM      7  C   UNL     1      -1.388   3.299   0.172  0.00  0.00    +0.047 A 
ATOM      8  C   UNL     1      -0.170   3.948   0.152  0.00  0.00    +0.110 A 
ATOM      9  C   UNL     1       1.006   3.220   0.206  0.00  0.00    +0.029 A 
BRANCH   6  10
ATOM     10  C   UNL     1      -2.692   1.225   0.254  0.00  0.00    +0.099 C 
ATOM     11  N   UNL     1      -3.692   0.686   0.265  0.00  0.00    -0.191 NA
ENDBRANCH   6  10
ENDBRANCH   1   8
BRANCH   1  12
ATOM     12  N   UNL     1      -0.077   6.109  -1.548  0.00  0.00    -0.213 N 
ATOM     13  H   UNL     1       0.676   6.605  -1.907  0.00  0.00    +0.174 HD
BRANCH  12  14
ATOM     14  C   UNL     1      -1.132   5.736  -2.387  0.00  0.00    +0.083 A 
ATOM     15  C   UNL     1      -2.434   5.724  -1.904  0.00  0.00    +0.028 A 
ATOM     16  C   UNL     1      -3.474   5.355  -2.734  0.00  0.00    +0.017 A 
ATOM     17  C   UNL     1      -3.221   4.996  -4.046  0.00  0.00    +0.021 A 
ATOM     18  C   UNL     1      -1.926   5.005  -4.532  0.00  0.00    +0.055 A 
ATOM     19  C   UNL     1      -0.880   5.380  -3.708  0.00  0.00    +0.147 A 
ATOM     20  F   UNL     1       0.384   5.395  -4.183  0.00  0.00    -0.203 F 
ATOM     21 BR   UNL     1      -4.649   4.490  -5.178  0.00  0.00    -0.050 Br
ENDBRANCH  12  14
ENDBRANCH   1  12
TORSDOF 4
