REMARK  Name = ZINC13639902
REMARK  9 active torsions:
REMARK  status: ('A' for Active; 'I' for Inactive)
REMARK    1  A    between atoms: C_1  and  C_2
REMARK    2  A    between atoms: C_2  and  C_3
REMARK    3  A    between atoms: C_2  and  C_4
REMARK    4  A    between atoms: C_2  and  N_5
REMARK    5  A    between atoms: N_5  and  S_6
REMARK    6  A    between atoms: S_6  and  C_9
REMARK    7  A    between atoms: C_22  and  C_25
REMARK    8  A    between atoms: C_28  and  O_32
REMARK    9  A    between atoms: C_30  and  O_31
REMARK                            x       y       z     vdW  Elec       q    Type
REMARK                         _______ _______ _______ _____ _____    ______ ____
ROOT
ATOM      1  C   UNL     1      -0.170   6.848   1.689  0.00  0.00    +0.106 A 
ATOM      2  C   UNL     1       0.342   7.191   0.451  0.00  0.00    +0.030 A 
ATOM      3  C   UNL     1       0.023   6.442  -0.662  0.00  0.00    +0.025 A 
ATOM      4  C   UNL     1      -0.815   5.338  -0.549  0.00  0.00    +0.031 A 
ATOM      5  C   UNL     1      -1.319   4.990   0.709  0.00  0.00    -0.018 A 
ATOM      6  C   UNL     1      -0.998   5.748   1.814  0.00  0.00    +0.034 A 
ATOM      7  C   UNL     1      -2.188   3.796   0.790  0.00  0.00    +0.049 C 
ATOM      8  C   UNL     1      -3.217   3.609   1.857  0.00  0.00    -0.023 C 
ATOM      9  C   UNL     1      -4.242   2.928   1.360  0.00  0.00    -0.030 C 
ATOM     10  C   UNL     1      -3.989   2.602  -0.114  0.00  0.00    +0.033 C 
ATOM     11  C   UNL     1      -3.032   3.731  -0.519  0.00  0.00    +0.029 C 
ATOM     12  C   UNL     1      -2.038   3.431  -1.627  0.00  0.00    +0.108 C 
ATOM     13  N   UNL     1      -1.153   4.614  -1.702  0.00  0.00    -0.336 N 
ATOM     14  H   UNL     1      -0.803   4.893  -2.563  0.00  0.00    +0.147 HD
ENDROOT
BRANCH  12  15
ATOM     15  C   UNL     1      -1.235   2.202  -1.288  0.00  0.00    +0.015 A 
ATOM     16  C   UNL     1      -0.017   2.327  -0.648  0.00  0.00    +0.012 A 
ATOM     17  C   UNL     1       0.724   1.202  -0.341  0.00  0.00    +0.046 A 
ATOM     18  C   UNL     1       0.246  -0.057  -0.675  0.00  0.00    +0.120 A 
ATOM     19  C   UNL     1      -0.976  -0.186  -1.317  0.00  0.00    +0.091 A 
ATOM     20  C   UNL     1      -1.717   0.945  -1.624  0.00  0.00    +0.125 A 
BRANCH  20  21
ATOM     21  O   UNL     1      -2.916   0.822  -2.252  0.00  0.00    -0.506 OA
ATOM     22  H   UNL     1      -2.857   0.840  -3.217  0.00  0.00    +0.292 HD
ENDBRANCH  20  21
BRANCH  18  23
ATOM     23  O   UNL     1       0.975  -1.164  -0.372  0.00  0.00    -0.507 OA
ATOM     24  H   UNL     1       1.592  -1.431  -1.068  0.00  0.00    +0.292 HD
ENDBRANCH  18  23
ENDBRANCH  12  15
BRANCH   1  25
ATOM     25  S   UNL     1       0.234   7.813   3.107  0.00  0.00    +0.059 S 
ATOM     26  O   UNL     1       0.381   6.903   4.189  0.00  0.00    -0.153 OA
ATOM     27  O   UNL     1       1.271   8.701   2.713  0.00  0.00    -0.153 OA
BRANCH  25  28
ATOM     28  N   UNL     1      -1.086   8.751   3.454  0.00  0.00    -0.185 NA
ATOM     29  H   UNL     1      -1.587   8.599   4.270  0.00  0.00    +0.149 HD
BRANCH  28  31
ATOM     30  C   UNL     1      -1.774   9.202   1.151  0.00  0.00    +0.029 C 
ATOM     31  C   UNL     1      -1.496   9.809   2.527  0.00  0.00    +0.032 C 
ATOM     32  C   UNL     1      -2.765  10.483   3.053  0.00  0.00    +0.029 C 
ATOM     33  C   UNL     1      -0.378  10.847   2.411  0.00  0.00    +0.029 C 
ENDBRANCH  28  31
ENDBRANCH  25  28
ENDBRANCH   1  25
TORSDOF 6
