REMARK  Name = ZINC06492409
REMARK  6 active torsions:
REMARK  status: ('A' for Active; 'I' for Inactive)
REMARK    1  A    between atoms: C_1  and  C_2
REMARK    2  A    between atoms: C_2  and  C_3
REMARK    3  A    between atoms: C_3  and  C_18
REMARK    4  A    between atoms: N_8  and  N_14
REMARK    5  A    between atoms: C_9  and  N_10
REMARK    6  A    between atoms: C_11  and  C_12
REMARK                            x       y       z     vdW  Elec       q    Type
REMARK                         _______ _______ _______ _____ _____    ______ ____
ROOT
ATOM      1  C   UNL     1       0.718  -0.497  -1.257  0.00  0.00    +0.071 C 
ATOM      2  C   UNL     1       0.657  -2.025  -1.319  0.00  0.00    +0.071 C 
ATOM      3  C   UNL     1       1.588  -2.529  -2.390  0.00  0.00    -0.016 A 
ATOM      4  C   UNL     1       2.574  -1.750  -2.904  0.00  0.00    +0.015 A 
ATOM      5  C   UNL     1       3.425  -2.272  -3.895  0.00  0.00    +0.112 A 
ATOM      6  N   UNL     1       3.273  -3.528  -4.348  0.00  0.00    -0.246 N 
ATOM      7  C   UNL     1       2.291  -4.330  -3.858  0.00  0.00    +0.132 A 
ATOM      8  C   UNL     1       1.428  -3.850  -2.870  0.00  0.00    +0.095 A 
ATOM      9  S   UNL     1       4.674  -1.291  -4.535  0.00  0.00    -0.030 S 
ATOM     10  C   UNL     1       2.780  -0.331  -2.446  0.00  0.00    +0.198 C 
ATOM     11  O   UNL     1       2.094  -0.102  -1.215  0.00  0.00    -0.369 OA
ATOM     12  C   UNL     1       0.049   0.097  -2.497  0.00  0.00    +0.042 C 
ENDROOT
BRANCH   7  13
ATOM     13  N   UNL     1       2.147  -5.606  -4.332  0.00  0.00    -0.342 N 
ATOM     14  H   UNL     1       2.747  -5.938  -5.019  0.00  0.00    +0.144 HD
ATOM     15  H   UNL     1       1.446  -6.177  -3.982  0.00  0.00    +0.144 HD
ENDBRANCH   7  13
BRANCH   6  16
ATOM     16  N   UNL     1       4.115  -4.004  -5.312  0.00  0.00    -0.296 N 
ATOM     17  H   UNL     1       4.791  -3.304  -5.580  0.00  0.00    +0.163 HD
ATOM     18  H   UNL     1       4.573  -4.850  -5.007  0.00  0.00    +0.163 HD
ENDBRANCH   6  16
BRANCH   1  20
ATOM     19  C   UNL     1      -0.019   1.526   0.010  0.00  0.00    +0.007 C 
ATOM     20  C   UNL     1       0.002  -0.004   0.002  0.00  0.00    +0.032 C 
ENDBRANCH   1  20
BRANCH   8  21
ATOM     21  C   UNL     1       0.392  -4.688  -2.347  0.00  0.00    +0.103 C 
ATOM     22  N   UNL     1      -0.431  -5.353  -1.932  0.00  0.00    -0.191 NA
ENDBRANCH   8  21
TORSDOF 4
