REMARK  Name = ZINC04727949
REMARK  1 active torsions:
REMARK  status: ('A' for Active; 'I' for Inactive)
REMARK    1  A    between atoms: C_3  and  C_11
REMARK                            x       y       z     vdW  Elec       q    Type
REMARK                         _______ _______ _______ _____ _____    ______ ____
ROOT
ATOM      1  C   UNL     1      -0.602   3.108   1.352  0.00  0.00    +0.003 C 
ATOM      2  C   UNL     1      -0.708   1.584   1.279  0.00  0.00    +0.020 C 
ATOM      3  C   UNL     1      -0.013   1.086   0.008  0.00  0.00    +0.142 C 
ATOM      4  C   UNL     1       1.405   1.613  -0.003  0.00  0.00    +0.158 C 
ATOM      5  O   UNL     1       2.341   0.870  -0.176  0.00  0.00    -0.295 OA
ATOM      6  C   UNL     1       1.621   3.095   0.210  0.00  0.00    +0.123 C 
ATOM      7  C   UNL     1       0.866   3.521   1.474  0.00  0.00    +0.022 C 
ATOM      8 BR   UNL     1       3.540   3.459   0.427  0.00  0.00    -0.080 Br
ENDROOT
BRANCH   3   9
ATOM      9  C   UNL     1      -0.749   1.589  -1.207  0.00  0.00    +0.221 C 
ATOM     10  O   UNL     1      -1.742   2.273  -1.074  0.00  0.00    -0.275 OA
ATOM     11  N   UNL     1      -0.304   1.278  -2.441  0.00  0.00    -0.329 N 
ATOM     12  H   UNL     1       0.489   0.731  -2.547  0.00  0.00    +0.145 HD
ATOM     13  H   UNL     1      -0.778   1.602  -3.223  0.00  0.00    +0.145 HD
ENDBRANCH   3   9
TORSDOF 1
