REMARK  Name = ZINC09724907
REMARK  7 active torsions:
REMARK  status: ('A' for Active; 'I' for Inactive)
REMARK    1  A    between atoms: C_1  and  C_2
REMARK    2  A    between atoms: C_5  and  N_8
REMARK    3  A    between atoms: C_11  and  C_25
REMARK    4  A    between atoms: N_15  and  C_16
REMARK    5  A    between atoms: C_16  and  C_17
REMARK    6  A    between atoms: C_22  and  C_23
REMARK    7  A    between atoms: C_26  and  C_28
REMARK                            x       y       z     vdW  Elec       q    Type
REMARK                         _______ _______ _______ _____ _____    ______ ____
ROOT
ATOM      1  N   UNL     1      -1.887   0.874   0.692  0.00  0.00    -0.215 N 
ATOM      2  C   UNL     1      -3.064   1.086   1.337  0.00  0.00    +0.148 A 
ATOM      3  C   UNL     1      -3.777  -0.114   1.284  0.00  0.00    +0.043 A 
ATOM      4  C   UNL     1      -5.057  -0.191   1.879  0.00  0.00    -0.033 A 
ATOM      5  C   UNL     1      -5.571   0.911   2.488  0.00  0.00    +0.074 A 
ATOM      6  C   UNL     1      -4.830   2.107   2.520  0.00  0.00    +0.253 A 
ATOM      7  O   UNL     1      -5.298   3.091   3.068  0.00  0.00    -0.268 OA
ATOM      8  N   UNL     1      -3.611   2.179   1.953  0.00  0.00    -0.288 N 
ATOM      9  C   UNL     1      -5.841  -1.477   1.839  0.00  0.00    +0.045 C 
ATOM     10  C   UNL     1      -2.971  -1.046   0.590  0.00  0.00    +0.070 A 
ATOM     11  N   UNL     1      -1.862  -0.453   0.246  0.00  0.00    -0.169 NA
ATOM     12  C   UNL     1      -3.332  -2.480   0.297  0.00  0.00    +0.068 C 
ENDROOT
BRANCH   1  17
ATOM     13  C   UNL     1       2.231   4.710  -0.037  0.00  0.00    +0.044 C 
ATOM     14  C   UNL     1       1.138   3.690   0.153  0.00  0.00    -0.050 A 
ATOM     15  C   UNL     1      -0.132   3.941  -0.331  0.00  0.00    +0.005 A 
ATOM     16  C   UNL     1      -1.136   3.008  -0.158  0.00  0.00    +0.028 A 
ATOM     17  C   UNL     1      -0.869   1.820   0.509  0.00  0.00    +0.068 A 
ATOM     18  C   UNL     1       0.409   1.568   0.990  0.00  0.00    +0.028 A 
ATOM     19  C   UNL     1       1.408   2.505   0.812  0.00  0.00    +0.005 A 
ENDBRANCH   1  17
BRANCH   8  20
ATOM     20  C   UNL     1      -2.861   3.436   2.001  0.00  0.00    +0.163 C 
BRANCH  20  21
ATOM     21  C   UNL     1      -2.724   3.885   3.433  0.00  0.00    -0.010 A 
ATOM     22  C   UNL     1      -3.438   4.975   3.887  0.00  0.00    +0.006 A 
ATOM     23  C   UNL     1      -3.313   5.389   5.201  0.00  0.00    +0.000 A 
ATOM     24  C   UNL     1      -2.473   4.714   6.069  0.00  0.00    +0.001 A 
ATOM     25  C   UNL     1      -1.754   3.623   5.629  0.00  0.00    +0.019 A 
ATOM     26  C   UNL     1      -1.879   3.196   4.305  0.00  0.00    +0.057 A 
BRANCH  26  27
ATOM     27  C   UNL     1      -1.140   2.061   3.842  0.00  0.00    +0.099 C 
ATOM     28  N   UNL     1      -0.553   1.160   3.475  0.00  0.00    -0.191 NA
ENDBRANCH  26  27
ENDBRANCH  20  21
ENDBRANCH   8  20
TORSDOF 4
