REMARK  Name = ZINC05343294
REMARK  4 active torsions:
REMARK  status: ('A' for Active; 'I' for Inactive)
REMARK    1  A    between atoms: C_1  and  C_2
REMARK    2  A    between atoms: C_13  and  C_24
REMARK    3  A    between atoms: C_19  and  N_23
REMARK    4  A    between atoms: C_20  and  C_21
REMARK                            x       y       z     vdW  Elec       q    Type
REMARK                         _______ _______ _______ _____ _____    ______ ____
ROOT
ATOM      1  C   UNL     1      -0.018   1.503   0.010  0.00  0.00    +0.045 C 
ATOM      2  C   UNL     1       0.002  -0.004   0.002  0.00  0.00    -0.029 A 
ATOM      3  C   UNL     1       0.006  -0.720  -1.186  0.00  0.00    +0.005 A 
ATOM      4  C   UNL     1       0.026  -2.099  -1.207  0.00  0.00    +0.001 A 
ATOM      5  C   UNL     1       0.043  -2.842  -0.031  0.00  0.00    +0.007 A 
ATOM      6  C   UNL     1       0.037  -2.138   1.153  0.00  0.00    -0.001 A 
ATOM      7  C   UNL     1       0.023  -0.737   1.189  0.00  0.00    +0.041 A 
ATOM      8  N   UNL     1       0.030  -0.289   2.498  0.00  0.00    -0.284 N 
ATOM      9  C   UNL     1       0.050  -1.310   3.382  0.00  0.00    +0.238 C 
ATOM     10  O   UNL     1       0.058  -1.217   4.591  0.00  0.00    -0.274 OA
ATOM     11  C   UNL     1       0.047  -2.591   2.578  0.00  0.00    +0.144 C 
ATOM     12  C   UNL     1       1.280  -3.391   2.891  0.00  0.00    +0.061 A 
ATOM     13  C   UNL     1       2.563  -3.008   2.964  0.00  0.00    +0.042 A 
ATOM     14  N   UNL     1       3.300  -4.098   3.280  0.00  0.00    -0.278 N 
ATOM     15  H   UNL     1       4.263  -4.119   3.400  0.00  0.00    +0.189 HD
ATOM     16  N   UNL     1       2.430  -5.192   3.403  0.00  0.00    -0.135 NA
ATOM     17  C   UNL     1       1.220  -4.776   3.171  0.00  0.00    +0.245 A 
ATOM     18  O   UNL     1       0.043  -5.459   3.173  0.00  0.00    -0.421 OA
ATOM     19  C   UNL     1      -1.098  -4.742   3.160  0.00  0.00    +0.201 C 
ATOM     20  C   UNL     1      -1.167  -3.419   2.895  0.00  0.00    +0.110 C 
ATOM     21  C   UNL     1       3.089  -1.615   2.736  0.00  0.00    +0.065 C 
ATOM     22  H   UNL     1       0.022   0.647   2.751  0.00  0.00    +0.155 HD
ENDROOT
BRANCH  19  23
ATOM     23  N   UNL     1      -2.271  -5.402   3.434  0.00  0.00    -0.328 N 
ATOM     24  H   UNL     1      -2.259  -6.352   3.629  0.00  0.00    +0.145 HD
ATOM     25  H   UNL     1      -3.111  -4.918   3.434  0.00  0.00    +0.145 HD
ENDBRANCH  19  23
BRANCH  20  26
ATOM     26  C   UNL     1      -2.448  -2.780   2.918  0.00  0.00    +0.102 C 
ATOM     27  N   UNL     1      -3.464  -2.272   2.936  0.00  0.00    -0.191 NA
ENDBRANCH  20  26
TORSDOF 2
