REMARK  Name = ZINC42334858
REMARK  4 active torsions:
REMARK  status: ('A' for Active; 'I' for Inactive)
REMARK    1  A    between atoms: C_3  and  S_9
REMARK    2  A    between atoms: C_6  and  N_7
REMARK    3  A    between atoms: S_9  and  C_10
REMARK    4  A    between atoms: C_10  and  C_18
REMARK                            x       y       z     vdW  Elec       q    Type
REMARK                         _______ _______ _______ _____ _____    ______ ____
ROOT
ATOM      1  S   UNL     1       3.963   2.344   0.010  0.00  0.00    -0.104 S 
ENDROOT
BRANCH   1   2
ATOM      2  C   UNL     1       3.372   4.050  -0.163  0.00  0.00    +0.125 C 
ATOM      3  C   UNL     1       2.434   4.138  -1.363  0.00  0.00    +0.052 C 
ATOM      4  C   UNL     1       1.717   5.490  -1.369  0.00  0.00    +0.168 C 
ATOM      5  S   UNL     1       2.952   6.809  -1.565  0.00  0.00    -0.031 S 
ATOM      6  O   UNL     1       2.329   8.056  -1.291  0.00  0.00    -0.174 OA
ATOM      7  O   UNL     1       3.617   6.624  -2.808  0.00  0.00    -0.174 OA
ATOM      8  C   UNL     1       4.118   6.439  -0.222  0.00  0.00    +0.168 C 
ATOM      9  C   UNL     1       4.568   4.980  -0.344  0.00  0.00    +0.052 C 
BRANCH   2  10
ATOM     10  C   UNL     1       2.621   4.443   1.083  0.00  0.00    +0.372 C 
ATOM     11  O   UNL     1       2.534   3.662   2.015  0.00  0.00    -0.245 OA
ATOM     12  O   UNL     1       2.099   5.543   1.159  0.00  0.00    -0.245 OA
ENDBRANCH   2  10
ENDBRANCH   1   2
BRANCH   1  15
ATOM     13  C   UNL     1       0.106   1.300   0.468  0.00  0.00    +0.024 A 
ATOM     14  C   UNL     1       1.263   2.040   0.318  0.00  0.00    +0.019 A 
ATOM     15  C   UNL     1       2.488   1.399   0.201  0.00  0.00    +0.044 A 
ATOM     16  C   UNL     1       2.551   0.009   0.234  0.00  0.00    +0.138 A 
ATOM     17  C   UNL     1       1.393  -0.731   0.383  0.00  0.00    +0.062 A 
ATOM     18  C   UNL     1       0.168  -0.087   0.500  0.00  0.00    +0.027 A 
ATOM     19  F   UNL     1       3.743  -0.616   0.119  0.00  0.00    -0.204 F 
BRANCH  18  20
ATOM     20  N   UNL     1      -1.004  -0.837   0.651  0.00  0.00    -0.358 N 
ATOM     21  H   UNL     1      -1.860  -0.387   0.734  0.00  0.00    +0.142 HD
ATOM     22  H   UNL     1      -0.961  -1.805   0.674  0.00  0.00    +0.142 HD
ENDBRANCH  18  20
ENDBRANCH   1  15
TORSDOF 4
