REMARK  Name = ZINC01437633
REMARK  10 active torsions:
REMARK  status: ('A' for Active; 'I' for Inactive)
REMARK    1  A    between atoms: C_1  and  O_2
REMARK    2  A    between atoms: O_2  and  C_3
REMARK    3  A    between atoms: C_6  and  O_10
REMARK    4  A    between atoms: O_10  and  C_11
REMARK    5  A    between atoms: C_11  and  C_12
REMARK    6  A    between atoms: N_14  and  N_15
REMARK    7  A    between atoms: C_16  and  C_17
REMARK    8  A    between atoms: C_20  and  O_25
REMARK    9  A    between atoms: C_21  and  O_24
REMARK   10  A    between atoms: C_22  and  O_23
REMARK                            x       y       z     vdW  Elec       q    Type
REMARK                         _______ _______ _______ _____ _____    ______ ____
ROOT
ATOM      1  C   UNL     1       3.314   2.440   5.959  0.00  0.00    +0.270 C 
ATOM      2  O   UNL     1       2.213   1.931   5.975  0.00  0.00    -0.270 OA
ATOM      3  N   UNL     1       3.908   2.726   4.784  0.00  0.00    -0.204 N 
ATOM      4  H   UNL     1       4.788   3.134   4.771  0.00  0.00    +0.177 HD
ENDROOT
BRANCH   3   5
ATOM      5  N   UNL     1       3.254   2.436   3.579  0.00  0.00    -0.188 NA
ATOM      6  C   UNL     1       3.826   2.711   2.447  0.00  0.00    +0.142 C 
BRANCH   6   7
ATOM      7  C   UNL     1       3.138   2.405   1.181  0.00  0.00    +0.041 A 
ATOM      8  C   UNL     1       3.752   2.701  -0.040  0.00  0.00    +0.032 A 
ATOM      9  C   UNL     1       3.106   2.414  -1.224  0.00  0.00    +0.064 A 
ATOM     10  C   UNL     1       1.844   1.831  -1.210  0.00  0.00    +0.176 A 
ATOM     11  C   UNL     1       1.225   1.533  -0.001  0.00  0.00    +0.202 A 
ATOM     12  C   UNL     1       1.864   1.823   1.196  0.00  0.00    +0.171 A 
ATOM     13 BR   UNL     1       3.939   2.816  -2.873  0.00  0.00    -0.046 Br
BRANCH  12  14
ATOM     14  O   UNL     1       1.258   1.538   2.379  0.00  0.00    -0.503 OA
ATOM     15  H   UNL     1       1.453   0.653   2.717  0.00  0.00    +0.292 HD
ENDBRANCH  12  14
BRANCH  11  16
ATOM     16  O   UNL     1      -0.011   0.963   0.007  0.00  0.00    -0.501 OA
ATOM     17  H   UNL     1       0.002  -0.004   0.002  0.00  0.00    +0.292 HD
ENDBRANCH  11  16
BRANCH  10  18
ATOM     18  O   UNL     1       1.214   1.551  -2.381  0.00  0.00    -0.502 OA
ATOM     19  H   UNL     1       0.661   2.272  -2.713  0.00  0.00    +0.292 HD
ENDBRANCH  10  18
ENDBRANCH   6   7
ENDBRANCH   3   5
BRANCH   1  20
ATOM     20  C   UNL     1       4.018   2.753   7.255  0.00  0.00    +0.326 C 
BRANCH  20  21
ATOM     21  O   UNL     1       3.192   2.360   8.352  0.00  0.00    -0.482 OA
BRANCH  21  25
ATOM     22  C   UNL     1       4.683   3.013  12.147  0.00  0.00    +0.121 A 
ATOM     23  C   UNL     1       5.432   3.370  11.036  0.00  0.00    +0.049 A 
ATOM     24  C   UNL     1       4.934   3.152   9.767  0.00  0.00    +0.050 A 
ATOM     25  C   UNL     1       3.683   2.575   9.602  0.00  0.00    +0.135 A 
ATOM     26  C   UNL     1       2.930   2.223  10.713  0.00  0.00    +0.063 A 
ATOM     27  C   UNL     1       3.432   2.437  11.984  0.00  0.00    +0.064 A 
ATOM     28 BR   UNL     1       1.222   1.444  10.490  0.00  0.00    -0.046 Br
BRANCH  22  30
ATOM     29  C   UNL     1       4.348   2.836  14.495  0.00  0.00    +0.277 C 
ATOM     30  O   UNL     1       5.174   3.228  13.397  0.00  0.00    -0.495 OA
ENDBRANCH  22  30
ENDBRANCH  21  25
ENDBRANCH  20  21
ENDBRANCH   1  20
TORSDOF 9
