REMARK  Name = ZINC30731246
REMARK  9 active torsions:
REMARK  status: ('A' for Active; 'I' for Inactive)
REMARK    1  A    between atoms: C_1  and  C_2
REMARK    2  A    between atoms: C_3  and  C_23
REMARK    3  A    between atoms: C_4  and  N_22
REMARK    4  A    between atoms: C_6  and  C_7
REMARK    5  A    between atoms: N_9  and  N_10
REMARK    6  A    between atoms: C_11  and  C_12
REMARK    7  A    between atoms: C_14  and  O_20
REMARK    8  A    between atoms: C_15  and  O_19
REMARK    9  A    between atoms: O_20  and  C_21
REMARK                            x       y       z     vdW  Elec       q    Type
REMARK                         _______ _______ _______ _____ _____    ______ ____
ROOT
ATOM      1  C   UNL     1      -3.579   1.920   0.349  0.00  0.00    +0.270 C 
ATOM      2  O   UNL     1      -4.605   1.291   0.539  0.00  0.00    -0.268 OA
ATOM      3  N   UNL     1      -2.420   1.268   0.131  0.00  0.00    -0.203 N 
ATOM      4  H   UNL     1      -1.493   1.836  -0.040  0.00  0.00    +0.178 HD
ENDROOT
BRANCH   1  10
ATOM      5  C   UNL     1      -6.054   3.670   0.814  0.00  0.00    +0.046 C 
ATOM      6  C   UNL     1      -4.673   4.217   0.558  0.00  0.00    -0.012 A 
ATOM      7  C   UNL     1      -4.438   5.582   0.517  0.00  0.00    +0.083 A 
ATOM      8  C   UNL     1      -3.128   6.011   0.274  0.00  0.00    +0.081 A 
ATOM      9  S   UNL     1      -2.256   4.521   0.116  0.00  0.00    -0.068 S 
ATOM     10  C   UNL     1      -3.606   3.382   0.357  0.00  0.00    +0.081 A 
BRANCH   8  11
ATOM     11  N   UNL     1      -2.650   7.299   0.188  0.00  0.00    -0.352 N 
ATOM     12  H   UNL     1      -1.583   7.477  -0.011  0.00  0.00    +0.143 HD
ATOM     13  H   UNL     1      -3.334   8.150   0.318  0.00  0.00    +0.143 HD
ENDBRANCH   8  11
BRANCH   7  14
ATOM     14  C   UNL     1      -5.500   6.522   0.717  0.00  0.00    +0.102 C 
ATOM     15  N   UNL     1      -6.342   7.268   0.875  0.00  0.00    -0.191 NA
ENDBRANCH   7  14
ENDBRANCH   1  10
BRANCH   3  16
ATOM     16  N   UNL     1      -2.394  -0.132   0.123  0.00  0.00    -0.187 NA
ATOM     17  C   UNL     1      -1.261  -0.760   0.042  0.00  0.00    +0.138 C 
BRANCH  17  18
ATOM     18  C   UNL     1      -0.025  -0.117   0.524  0.00  0.00    -0.001 A 
ATOM     19  C   UNL     1       1.222  -0.634   0.160  0.00  0.00    +0.059 A 
ATOM     20  C   UNL     1       2.377  -0.027   0.615  0.00  0.00    +0.163 A 
ATOM     21  C   UNL     1       2.298   1.098   1.433  0.00  0.00    +0.173 A 
ATOM     22  C   UNL     1       1.061   1.612   1.795  0.00  0.00    +0.063 A 
ATOM     23  C   UNL     1      -0.097   1.011   1.345  0.00  0.00    +0.028 A 
ATOM     24 BR   UNL     1       0.961   3.139   2.906  0.00  0.00    -0.046 Br
BRANCH  21  25
ATOM     25  O   UNL     1       3.436   1.694   1.879  0.00  0.00    -0.503 OA
ATOM     26  H   UNL     1       3.375   2.582   2.525  0.00  0.00    +0.292 HD
ENDBRANCH  21  25
BRANCH  20  27
ATOM     27  O   UNL     1       3.592  -0.527   0.263  0.00  0.00    -0.491 OA
ATOM     28  C   UNL     1       3.598  -1.682  -0.578  0.00  0.00    +0.277 C 
ENDBRANCH  20  27
ENDBRANCH  17  18
ENDBRANCH   3  16
TORSDOF 7
