REMARK  Name = ZINC36570398
REMARK  19 active torsions:
REMARK  status: ('A' for Active; 'I' for Inactive)
REMARK    1  A    between atoms: C_1  and  C_2
REMARK    2  A    between atoms: C_2  and  C_3
REMARK    3  A    between atoms: C_3  and  N_4
REMARK    4  A    between atoms: N_4  and  C_5
REMARK    5  A    between atoms: C_5  and  C_7
REMARK    6  A    between atoms: C_5  and  C_16
REMARK    7  A    between atoms: C_8  and  O_15
REMARK    8  A    between atoms: C_10  and  O_14
REMARK    9  A    between atoms: C_12  and  O_13
REMARK   10  A    between atoms: N_18  and  C_19
REMARK   11  A    between atoms: C_19  and  C_20
REMARK   12  A    between atoms: C_19  and  C_21
REMARK   13  A    between atoms: C_19  and  C_22
REMARK   14  A    between atoms: C_22  and  C_23
REMARK   15  A    between atoms: C_23  and  C_24
REMARK   16  A    between atoms: C_23  and  C_25
REMARK   17  A    between atoms: C_23  and  C_26
REMARK   18  A    between atoms: C_27  and  C_29
REMARK   19  A    between atoms: C_30  and  C_31
REMARK                            x       y       z     vdW  Elec       q    Type
REMARK                         _______ _______ _______ _____ _____    ______ ____
ROOT
ATOM      1  C   UNL     1      -0.515  -1.728  -2.484  0.00  0.00    +0.200 C 
ENDROOT
BRANCH   1   2
ATOM      2  C   UNL     1      -1.782  -1.052  -2.025  0.00  0.00    +0.065 A 
ATOM      3  C   UNL     1      -3.007  -1.672  -2.217  0.00  0.00    +0.129 A 
ATOM      4  C   UNL     1      -4.173  -1.051  -1.794  0.00  0.00    +0.091 A 
ATOM      5  C   UNL     1      -4.112   0.190  -1.178  0.00  0.00    +0.124 A 
ATOM      6  C   UNL     1      -2.887   0.809  -0.984  0.00  0.00    +0.091 A 
ATOM      7  C   UNL     1      -1.721   0.186  -1.403  0.00  0.00    +0.129 A 
BRANCH   7   8
ATOM      8  O   UNL     1      -0.520   0.791  -1.209  0.00  0.00    -0.506 OA
ATOM      9  H   UNL     1      -0.340   1.514  -1.825  0.00  0.00    +0.292 HD
ENDBRANCH   7   8
BRANCH   5  10
ATOM     10  O   UNL     1      -5.255   0.799  -0.764  0.00  0.00    -0.507 OA
ATOM     11  H   UNL     1      -5.511   0.581   0.143  0.00  0.00    +0.292 HD
ENDBRANCH   5  10
BRANCH   3  12
ATOM     12  O   UNL     1      -3.066  -2.888  -2.821  0.00  0.00    -0.506 OA
ATOM     13  H   UNL     1      -3.085  -3.633  -2.205  0.00  0.00    +0.292 HD
ENDBRANCH   3  12
ENDBRANCH   1   2
BRANCH   1  14
ATOM     14  C   UNL     1      -0.039  -1.085  -3.761  0.00  0.00    +0.239 C 
ATOM     15  O   UNL     1       1.149  -1.009  -3.996  0.00  0.00    -0.273 OA
ATOM     16  N   UNL     1      -0.932  -0.595  -4.643  0.00  0.00    -0.308 N 
ATOM     17  H   UNL     1      -1.871  -0.540  -4.404  0.00  0.00    +0.149 HD
BRANCH  16  18
ATOM     18  C   UNL     1      -0.486  -0.143  -5.964  0.00  0.00    +0.030 C 
ATOM     19  C   UNL     1       0.376   1.112  -5.809  0.00  0.00    +0.031 C 
ATOM     20  C   UNL     1       0.336  -1.248  -6.630  0.00  0.00    +0.031 C 
BRANCH  18  21
ATOM     21  C   UNL     1      -1.705   0.179  -6.831  0.00  0.00    +0.031 C 
BRANCH  21  22
ATOM     22  C   UNL     1      -2.503  -1.102  -7.085  0.00  0.00    -0.036 C 
ATOM     23  C   UNL     1      -2.703  -1.848  -5.764  0.00  0.00    +0.010 C 
ATOM     24  C   UNL     1      -3.866  -0.744  -7.680  0.00  0.00    +0.010 C 
ATOM     25  C   UNL     1      -1.737  -1.994  -8.064  0.00  0.00    +0.010 C 
ENDBRANCH  21  22
ENDBRANCH  18  21
ENDBRANCH  16  18
ENDBRANCH   1  14
BRANCH   1  26
ATOM     26  N   UNL     1       0.515  -1.587  -1.453  0.00  0.00    -0.275 N 
ATOM     27  C   UNL     1       1.308  -0.497  -1.436  0.00  0.00    +0.292 C 
ATOM     28  O   UNL     1       1.191   0.353  -2.299  0.00  0.00    -0.260 OA
BRANCH  27  29
ATOM     29  C   UNL     1       2.287  -0.339  -0.403  0.00  0.00    -0.003 C 
ATOM     30  C   UNL     1       3.089  -0.210   0.444  0.00  0.00    -0.057 C 
BRANCH  30  31
ATOM     31  C   UNL     1       4.068  -0.052   1.477  0.00  0.00    +0.025 A 
ATOM     32  C   UNL     1       4.209  -1.030   2.467  0.00  0.00    +0.017 A 
ATOM     33  C   UNL     1       5.154  -0.871   3.458  0.00  0.00    +0.001 A 
ATOM     34  C   UNL     1       5.963   0.253   3.475  0.00  0.00    +0.000 A 
ATOM     35  C   UNL     1       5.829   1.225   2.499  0.00  0.00    +0.001 A 
ATOM     36  C   UNL     1       4.893   1.077   1.498  0.00  0.00    +0.017 A 
ENDBRANCH  30  31
ENDBRANCH  27  29
BRANCH  26  37
ATOM     37  C   UNL     1       0.684  -2.631  -0.439  0.00  0.00    +0.109 C 
BRANCH  37  39
ATOM     38  C   UNL     1       2.040  -4.622   0.225  0.00  0.00    +0.005 C 
ATOM     39  C   UNL     1       1.777  -3.604  -0.887  0.00  0.00    +0.016 C 
ENDBRANCH  37  39
ENDBRANCH  26  37
ENDBRANCH   1  26
TORSDOF 13
