REMARK  Name = ZINC40548643
REMARK  4 active torsions:
REMARK  status: ('A' for Active; 'I' for Inactive)
REMARK    1  A    between atoms: C_3  and  O_21
REMARK    2  A    between atoms: C_6  and  N_7
REMARK    3  A    between atoms: C_12  and  O_20
REMARK    4  A    between atoms: C_15  and  C_17
REMARK                            x       y       z     vdW  Elec       q    Type
REMARK                         _______ _______ _______ _____ _____    ______ ____
ROOT
ATOM      1  N   UNL     1      -1.372  -0.511   0.012  0.00  0.00    -0.296 N 
ATOM      2  C   UNL     1      -1.634  -1.740   0.502  0.00  0.00    +0.303 C 
ATOM      3  O   UNL     1      -0.729  -2.427   0.934  0.00  0.00    -0.253 OA
ATOM      4  N   UNL     1      -2.898  -2.206   0.511  0.00  0.00    -0.269 N 
ATOM      5  C   UNL     1      -4.084  -1.485   0.014  0.00  0.00    +0.141 C 
ATOM      6  C   UNL     1      -5.278  -2.110   0.778  0.00  0.00    +0.134 C 
ATOM      7  C   UNL     1      -4.855  -3.602   0.849  0.00  0.00    +0.067 C 
ATOM      8  C   UNL     1      -3.322  -3.521   1.013  0.00  0.00    +0.193 C 
ATOM      9  H   UNL     1      -2.094   0.037  -0.333  0.00  0.00    +0.151 HD
ENDROOT
BRANCH   1  15
ATOM     10  C   UNL     1      -0.019   1.526   0.010  0.00  0.00    +0.025 C 
ATOM     11  C   UNL     1       1.417   2.055  -0.000  0.00  0.00    +0.033 C 
ATOM     12  C   UNL     1       2.133   1.562  -1.259  0.00  0.00    +0.115 C 
ATOM     13  C   UNL     1       2.154   0.032  -1.268  0.00  0.00    +0.033 C 
ATOM     14  C   UNL     1       0.718  -0.497  -1.257  0.00  0.00    +0.025 C 
ATOM     15  C   UNL     1       0.002  -0.004   0.002  0.00  0.00    +0.075 C 
BRANCH  12  16
ATOM     16  O   UNL     1       3.474   2.057  -1.269  0.00  0.00    -0.392 OA
ATOM     17  H   UNL     1       3.988   1.782  -2.041  0.00  0.00    +0.210 HD
ENDBRANCH  12  16
ENDBRANCH   1  15
BRANCH   8  18
ATOM     18  C   UNL     1      -2.660  -4.613   0.213  0.00  0.00    +0.376 C 
ATOM     19  O   UNL     1      -1.880  -4.327  -0.679  0.00  0.00    -0.244 OA
ATOM     20  O   UNL     1      -2.905  -5.782   0.458  0.00  0.00    -0.244 OA
ENDBRANCH   8  18
BRANCH   6  21
ATOM     21  O   UNL     1      -6.493  -1.956   0.043  0.00  0.00    -0.390 OA
ATOM     22  H   UNL     1      -6.746  -1.036  -0.111  0.00  0.00    +0.210 HD
ENDBRANCH   6  21
TORSDOF 4
