REMARK  Name = ZINC31167079
REMARK  12 active torsions:
REMARK  status: ('A' for Active; 'I' for Inactive)
REMARK    1  A    between atoms: C_1  and  C_2
REMARK    2  A    between atoms: C_2  and  C_3
REMARK    3  A    between atoms: C_2  and  C_4
REMARK    4  A    between atoms: C_2  and  O_29
REMARK    5  A    between atoms: C_4  and  C_5
REMARK    6  A    between atoms: C_5  and  C_6
REMARK    7  A    between atoms: C_7  and  O_28
REMARK    8  A    between atoms: C_10  and  C_14
REMARK    9  A    between atoms: C_11  and  O_12
REMARK   10  A    between atoms: O_12  and  C_13
REMARK   11  A    between atoms: C_20  and  O_27
REMARK   12  A    between atoms: C_22  and  O_26
REMARK                            x       y       z     vdW  Elec       q    Type
REMARK                         _______ _______ _______ _____ _____    ______ ____
ROOT
ATOM      1  C   UNL     1       0.002   3.878  -0.128  0.00  0.00    +0.036 A 
ATOM      2  C   UNL     1       1.198   3.188   0.000  0.00  0.00    +0.124 A 
ATOM      3  C   UNL     1       1.189   1.811   0.168  0.00  0.00    +0.046 A 
ATOM      4  C   UNL     1      -0.011   1.126   0.208  0.00  0.00    +0.011 A 
ATOM      5  C   UNL     1      -1.203   1.810   0.075  0.00  0.00    +0.009 A 
ATOM      6  C   UNL     1      -1.200   3.189  -0.088  0.00  0.00    +0.131 A 
ENDROOT
BRANCH   5   7
ATOM      7  C   UNL     1      -2.510   1.060   0.112  0.00  0.00    +0.131 C 
ATOM      8  C   UNL     1      -2.656   0.331   1.456  0.00  0.00    +0.245 C 
ATOM      9  O   UNL     1      -1.586  -0.602   1.606  0.00  0.00    -0.490 OA
ATOM     10  C   UNL     1      -1.360  -1.495   0.614  0.00  0.00    +0.138 A 
ATOM     11  C   UNL     1      -0.687  -2.673   0.885  0.00  0.00    +0.092 A 
ATOM     12  C   UNL     1      -0.446  -3.590  -0.130  0.00  0.00    +0.124 A 
ATOM     13  C   UNL     1      -0.874  -3.339  -1.428  0.00  0.00    +0.091 A 
ATOM     14  C   UNL     1      -1.550  -2.168  -1.721  0.00  0.00    +0.134 A 
ATOM     15  C   UNL     1      -1.801  -1.241  -0.698  0.00  0.00    +0.101 A 
ATOM     16  C   UNL     1      -2.530   0.002  -0.976  0.00  0.00    +0.181 C 
ATOM     17  O   UNL     1      -3.119   0.175  -2.023  0.00  0.00    -0.291 OA
BRANCH  14  18
ATOM     18  O   UNL     1      -1.966  -1.919  -2.987  0.00  0.00    -0.506 OA
ATOM     19  H   UNL     1      -2.503  -0.986  -3.216  0.00  0.00    +0.292 HD
ENDBRANCH  14  18
BRANCH  12  20
ATOM     20  O   UNL     1       0.214  -4.742   0.149  0.00  0.00    -0.507 OA
ATOM     21  H   UNL     1       0.407  -5.473  -0.650  0.00  0.00    +0.292 HD
ENDBRANCH  12  20
ENDBRANCH   5   7
BRANCH   6  22
ATOM     22  O   UNL     1      -2.374   3.861  -0.214  0.00  0.00    -0.494 OA
ATOM     23  C   UNL     1      -3.004   4.299   0.992  0.00  0.00    +0.277 C 
ENDBRANCH   6  22
BRANCH   2  24
ATOM     24  O   UNL     1       2.378   3.861  -0.038  0.00  0.00    -0.506 OA
ATOM     25  H   UNL     1       3.327   3.314   0.064  0.00  0.00    +0.292 HD
ENDBRANCH   2  24
BRANCH   1  26
ATOM     26  C   UNL     1       0.009   5.374  -0.310  0.00  0.00    +0.045 C 
BRANCH  26  27
ATOM     27  C   UNL     1       0.046   5.706  -1.803  0.00  0.00    +0.039 C 
BRANCH  27  29
ATOM     28  C   UNL     1       1.095   7.913  -1.286  0.00  0.00    +0.041 C 
ATOM     29  C   UNL     1      -0.071   7.219  -1.992  0.00  0.00    +0.061 C 
ATOM     30  C   UNL     1      -0.034   7.551  -3.485  0.00  0.00    +0.041 C 
BRANCH  29  31
ATOM     31  O   UNL     1      -1.305   7.675  -1.433  0.00  0.00    -0.389 OA
ATOM     32  H   UNL     1      -2.260   7.285  -1.816  0.00  0.00    +0.210 HD
ENDBRANCH  29  31
ENDBRANCH  27  29
ENDBRANCH  26  27
ENDBRANCH   1  26
TORSDOF 9
