REMARK  Name = ZINC61916758
REMARK  5 active torsions:
REMARK  status: ('A' for Active; 'I' for Inactive)
REMARK    1  A    between atoms: C_1  and  C_2
REMARK    2  A    between atoms: N_5  and  C_10
REMARK    3  A    between atoms: C_13  and  S_17
REMARK    4  A    between atoms: C_15  and  N_16
REMARK    5  A    between atoms: S_17  and  N_20
REMARK                            x       y       z     vdW  Elec       q    Type
REMARK                         _______ _______ _______ _____ _____    ______ ____
ROOT
ATOM      1  C   UNL     1      -1.519  -2.481  -1.486  0.00  0.00    +0.051 A 
ATOM      2  C   UNL     1      -0.362  -2.716  -2.214  0.00  0.00    +0.027 A 
ATOM      3  C   UNL     1      -0.444  -3.213  -3.501  0.00  0.00    +0.030 A 
ATOM      4  C   UNL     1      -1.677  -3.478  -4.067  0.00  0.00    +0.107 A 
ATOM      5  C   UNL     1      -2.836  -3.247  -3.349  0.00  0.00    +0.053 A 
ATOM      6  C   UNL     1      -2.763  -2.753  -2.056  0.00  0.00    +0.048 A 
ENDROOT
BRANCH   1  10
ATOM      7  C   UNL     1      -0.019   1.526   0.010  0.00  0.00    +0.039 C 
ATOM      8  C   UNL     1       0.002  -0.004   0.002  0.00  0.00    +0.132 C 
ATOM      9  C   UNL     1      -1.450  -0.540   0.013  0.00  0.00    +0.136 C 
ATOM     10  N   UNL     1      -1.439  -1.978  -0.182  0.00  0.00    -0.326 N 
ATOM     11  C   UNL     1      -1.346  -2.929   0.941  0.00  0.00    +0.107 C 
ATOM     12  C   UNL     1      -0.329  -2.450   1.987  0.00  0.00    +0.047 C 
ATOM     13  C   UNL     1       0.878  -1.857   1.287  0.00  0.00    +0.162 C 
ATOM     14  O   UNL     1       0.670  -0.461   1.120  0.00  0.00    -0.375 OA
ENDBRANCH   1  10
BRANCH   6  15
ATOM     15  N   UNL     1      -3.935  -2.524  -1.325  0.00  0.00    -0.356 N 
ATOM     16  H   UNL     1      -3.882  -2.175  -0.421  0.00  0.00    +0.142 HD
ATOM     17  H   UNL     1      -4.799  -2.714  -1.722  0.00  0.00    +0.142 HD
ENDBRANCH   6  15
BRANCH   4  18
ATOM     18  S   UNL     1      -1.772  -4.112  -5.709  0.00  0.00    +0.056 S 
ATOM     19  O   UNL     1      -3.056  -3.761  -6.205  0.00  0.00    -0.153 OA
ATOM     20  O   UNL     1      -0.571  -3.726  -6.363  0.00  0.00    -0.153 OA
BRANCH  18  21
ATOM     21  N   UNL     1      -1.741  -5.764  -5.599  0.00  0.00    -0.204 NA
ATOM     22  H   UNL     1      -1.680  -6.191  -4.730  0.00  0.00    +0.144 HD
ATOM     23  H   UNL     1      -1.784  -6.304  -6.403  0.00  0.00    +0.144 HD
ENDBRANCH  18  21
ENDBRANCH   4  18
TORSDOF 4
