REMARK  Name = ZINC55197430
REMARK  6 active torsions:
REMARK  status: ('A' for Active; 'I' for Inactive)
REMARK    1  A    between atoms: C_1  and  C_2
REMARK    2  A    between atoms: C_3  and  S_9
REMARK    3  A    between atoms: C_4  and  C_8
REMARK    4  A    between atoms: S_9  and  C_10
REMARK    5  A    between atoms: C_15  and  N_16
REMARK    6  A    between atoms: C_17  and  C_19
REMARK                            x       y       z     vdW  Elec       q    Type
REMARK                         _______ _______ _______ _____ _____    ______ ____
ROOT
ATOM      1  C   UNL     1       1.707  -0.088  -3.184  0.00  0.00    +0.034 A 
ATOM      2  C   UNL     1       2.684  -0.377  -2.243  0.00  0.00    +0.017 A 
ATOM      3  C   UNL     1       4.020  -0.247  -2.571  0.00  0.00    +0.001 A 
ATOM      4  C   UNL     1       4.388   0.172  -3.837  0.00  0.00    +0.002 A 
ATOM      5  C   UNL     1       3.421   0.462  -4.782  0.00  0.00    +0.024 A 
ATOM      6  C   UNL     1       2.078   0.329  -4.463  0.00  0.00    +0.047 A 
ENDROOT
BRANCH   6   7
ATOM      7  N   UNL     1       1.097   0.618  -5.420  0.00  0.00    -0.280 N 
ATOM      8  C   UNL     1       1.391   0.535  -6.733  0.00  0.00    +0.250 C 
ATOM      9  O   UNL     1       2.475   0.113  -7.088  0.00  0.00    -0.270 OA
ATOM     10  H   UNL     1       0.206   0.878  -5.138  0.00  0.00    +0.155 HD
BRANCH   8  11
ATOM     11  C   UNL     1       0.398   0.956  -7.739  0.00  0.00    +0.055 A 
ATOM     12  C   UNL     1      -0.863   1.454  -7.331  0.00  0.00    +0.040 A 
ATOM     13  C   UNL     1      -1.760   1.835  -8.281  0.00  0.00    +0.106 A 
ATOM     14  C   UNL     1      -1.415   1.727  -9.643  0.00  0.00    +0.267 A 
ATOM     15  O   UNL     1      -2.215   2.068 -10.498  0.00  0.00    -0.266 OA
ATOM     16  N   UNL     1      -0.211   1.252 -10.006  0.00  0.00    -0.327 N 
ATOM     17  H   UNL     1       0.011   1.184 -10.948  0.00  0.00    +0.168 HD
ATOM     18  C   UNL     1       0.694   0.873  -9.084  0.00  0.00    +0.099 A 
ATOM     19 CL   UNL     1      -3.316   2.449  -7.818  0.00  0.00    -0.078 Cl
ENDBRANCH   8  11
ENDBRANCH   6   7
BRANCH   1  20
ATOM     20  S   UNL     1       0.002  -0.253  -2.768  0.00  0.00    -0.084 S 
BRANCH  20  23
ATOM     21  C   UNL     1      -0.018   1.517   0.008  0.00  0.00    +0.066 C 
ATOM     22  C   UNL     1       0.013   0.011   0.006  0.00  0.00    +0.047 A 
ATOM     23  C   UNL     1       0.023  -0.790  -1.091  0.00  0.00    +0.056 A 
ATOM     24  C   UNL     1       0.053  -2.122  -0.650  0.00  0.00    +0.074 A 
ATOM     25  N   UNL     1       0.061  -2.123   0.658  0.00  0.00    -0.178 NA
ATOM     26  N   UNL     1       0.042  -0.794   1.101  0.00  0.00    -0.281 N 
ATOM     27  H   UNL     1       0.046  -0.500   2.025  0.00  0.00    +0.189 HD
ATOM     28  C   UNL     1       0.073  -3.343  -1.533  0.00  0.00    +0.068 C 
ENDBRANCH  20  23
ENDBRANCH   1  20
TORSDOF 4
