REMARK  Name = ZINC08856913
REMARK  12 active torsions:
REMARK  status: ('A' for Active; 'I' for Inactive)
REMARK    1  A    between atoms: C_1  and  C_2
REMARK    2  A    between atoms: C_3  and  C_32
REMARK    3  A    between atoms: C_4  and  C_20
REMARK    4  A    between atoms: C_10  and  C_15
REMARK    5  A    between atoms: C_23  and  O_30
REMARK    6  A    between atoms: C_24  and  O_28
REMARK    7  A    between atoms: C_25  and  O_26
REMARK    8  A    between atoms: O_26  and  C_27
REMARK    9  A    between atoms: O_28  and  C_29
REMARK   10  A    between atoms: O_30  and  C_31
REMARK   11  A    between atoms: C_32  and  O_34
REMARK   12  A    between atoms: O_34  and  C_35
REMARK                            x       y       z     vdW  Elec       q    Type
REMARK                         _______ _______ _______ _____ _____    ______ ____
ROOT
ATOM      1  C   UNL     1      -6.025   7.092  -4.241  0.00  0.00    +0.061 C 
ATOM      2  C   UNL     1      -5.065   7.082  -3.079  0.00  0.00    +0.031 C 
ATOM      3  C   UNL     1      -5.412   7.673  -1.923  0.00  0.00    +0.154 C 
ATOM      4  C   UNL     1      -4.480   7.689  -0.747  0.00  0.00    +0.077 C 
ATOM      5  C   UNL     1      -3.404   6.643  -0.896  0.00  0.00    +0.025 C 
ATOM      6  C   UNL     1      -3.135   6.098  -2.101  0.00  0.00    +0.049 C 
ATOM      7  N   UNL     1      -3.849   6.472  -3.208  0.00  0.00    -0.260 NA
ATOM      8  C   UNL     1      -2.047   5.066  -2.264  0.00  0.00    +0.065 C 
ATOM      9  C   UNL     1      -1.919   4.250  -0.974  0.00  0.00    +0.039 C 
ATOM     10  C   UNL     1      -1.611   5.209   0.181  0.00  0.00    +0.088 C 
ATOM     11  C   UNL     1      -2.691   6.254   0.251  0.00  0.00    +0.162 C 
ATOM     12  O   UNL     1      -2.951   6.771   1.319  0.00  0.00    -0.292 OA
ENDROOT
BRANCH   4  13
ATOM     13  C   UNL     1      -3.838   9.048  -0.643  0.00  0.00    +0.007 A 
ATOM     14  C   UNL     1      -2.873   9.427  -1.557  0.00  0.00    +0.011 A 
ATOM     15  C   UNL     1      -2.281  10.673  -1.467  0.00  0.00    +0.050 A 
ATOM     16  C   UNL     1      -2.654  11.548  -0.458  0.00  0.00    +0.165 A 
ATOM     17  C   UNL     1      -3.624  11.171   0.463  0.00  0.00    +0.204 A 
ATOM     18  C   UNL     1      -4.220   9.919   0.366  0.00  0.00    +0.169 A 
BRANCH  18  19
ATOM     19  O   UNL     1      -5.174   9.548   1.261  0.00  0.00    -0.491 OA
ATOM     20  C   UNL     1      -4.722   9.006   2.503  0.00  0.00    +0.277 C 
ENDBRANCH  18  19
BRANCH  17  21
ATOM     21  O   UNL     1      -3.993  12.027   1.455  0.00  0.00    -0.488 OA
ATOM     22  C   UNL     1      -5.073  12.919   1.174  0.00  0.00    +0.277 C 
ENDBRANCH  17  21
BRANCH  16  23
ATOM     23  O   UNL     1      -2.071  12.774  -0.369  0.00  0.00    -0.491 OA
ATOM     24  C   UNL     1      -1.082  13.094  -1.349  0.00  0.00    +0.277 C 
ENDBRANCH  16  23
ENDBRANCH   4  13
BRANCH   9  25
ATOM     25  C   UNL     1      -0.798   3.252  -1.115  0.00  0.00    -0.006 A 
ATOM     26  C   UNL     1      -0.844   1.900  -1.032  0.00  0.00    +0.011 A 
ATOM     27  C   UNL     1       0.324   1.179  -1.192  0.00  0.00    +0.008 A 
ATOM     28  C   UNL     1       1.479   1.844  -1.439  0.00  0.00    +0.045 A 
ATOM     29  S   UNL     1       0.932   3.544  -1.442  0.00  0.00    -0.101 S 
ENDBRANCH   9  25
BRANCH   3  30
ATOM     30  C   UNL     1      -6.678   8.293  -1.812  0.00  0.00    +0.317 C 
ATOM     31  O   UNL     1      -7.597   7.709  -1.269  0.00  0.00    -0.250 OA
BRANCH  30  32
ATOM     32  O   UNL     1      -6.869   9.533  -2.310  0.00  0.00    -0.461 OA
BRANCH  32  33
ATOM     33  C   UNL     1      -8.173  10.098  -2.164  0.00  0.00    +0.176 C 
ATOM     34  C   UNL     1      -9.023   9.796  -3.415  0.00  0.00    +0.044 C 
ATOM     35  C   UNL     1      -9.865  11.080  -3.621  0.00  0.00    +0.004 C 
ATOM     36  C   UNL     1      -8.869  12.206  -3.249  0.00  0.00    +0.004 C 
ATOM     37  C   UNL     1      -8.075  11.630  -2.058  0.00  0.00    +0.044 C 
ENDBRANCH  32  33
ENDBRANCH  30  32
ENDBRANCH   3  30
TORSDOF 8
