REMARK  Name = ZINC58157152
REMARK  8 active torsions:
REMARK  status: ('A' for Active; 'I' for Inactive)
REMARK    1  A    between atoms: C_4  and  C_14
REMARK    2  A    between atoms: C_5  and  C_7
REMARK    3  A    between atoms: C_7  and  N_8
REMARK    4  A    between atoms: N_15  and  O_16
REMARK    5  A    between atoms: O_16  and  C_17
REMARK    6  A    between atoms: C_17  and  C_18
REMARK    7  A    between atoms: N_20  and  C_21
REMARK    8  A    between atoms: C_25  and  N_27
REMARK                            x       y       z     vdW  Elec       q    Type
REMARK                         _______ _______ _______ _____ _____    ______ ____
ROOT
ATOM      1  C   UNL     1       3.525  -0.099   0.151  0.00  0.00    +0.163 C 
ATOM      2  N   UNL     1       4.324   0.478   1.000  0.00  0.00    -0.069 NA
ATOM      3  N   UNL     1       4.012  -1.069  -0.709  0.00  0.00    -0.340 N 
ATOM      4  H   UNL     1       3.416  -1.499  -1.342  0.00  0.00    +0.144 HD
ATOM      5  H   UNL     1       4.949  -1.318  -0.678  0.00  0.00    +0.144 HD
ENDROOT
BRANCH   1   9
ATOM      6  C   UNL     1      -0.580   0.992   0.015  0.00  0.00    +0.000 A 
ATOM      7  C   UNL     1       0.396   1.957  -0.165  0.00  0.00    +0.001 A 
ATOM      8  C   UNL     1       1.730   1.609  -0.121  0.00  0.00    +0.011 A 
ATOM      9  C   UNL     1       2.095   0.281   0.104  0.00  0.00    +0.019 A 
ATOM     10  C   UNL     1       1.107  -0.686   0.285  0.00  0.00    -0.053 A 
ATOM     11  C   UNL     1      -0.224  -0.326   0.239  0.00  0.00    +0.002 A 
BRANCH  10  12
ATOM     12  C   UNL     1       1.492  -2.123   0.528  0.00  0.00    -0.042 C 
BRANCH  12  13
ATOM     13  N   UNL     1       1.849  -2.301   1.942  0.00  0.00    +0.382 N 
ATOM     14  C   UNL     1       0.665  -2.066   2.777  0.00  0.00    -0.078 C 
ATOM     15  C   UNL     1       1.050  -2.171   4.255  0.00  0.00    -0.019 C 
ATOM     16  C   UNL     1       1.604  -3.571   4.534  0.00  0.00    -0.004 C 
ATOM     17  C   UNL     1       2.793  -3.833   3.605  0.00  0.00    -0.019 C 
ATOM     18  C   UNL     1       2.344  -3.667   2.152  0.00  0.00    -0.078 C 
ATOM     19  H   UNL     1       2.570  -1.641   2.192  0.00  0.00    -0.081 HD
ENDBRANCH  12  13
ENDBRANCH  10  12
ENDBRANCH   1   9
BRANCH   2  20
ATOM     20  O   UNL     1       3.850   1.540   1.808  0.00  0.00    -0.383 OA
BRANCH  20  21
ATOM     21  C   UNL     1       4.861   2.153   2.611  0.00  0.00    +0.358 C 
BRANCH  21  22
ATOM     22  C   UNL     1       4.228   3.180   3.516  0.00  0.00    +0.258 C 
ATOM     23  O   UNL     1       3.022   3.304   3.543  0.00  0.00    -0.272 OA
ATOM     24  N   UNL     1       5.003   3.960   4.295  0.00  0.00    -0.283 N 
ATOM     25  H   UNL     1       5.969   3.908   4.225  0.00  0.00    +0.155 HD
BRANCH  24  26
ATOM     26  C   UNL     1       4.414   4.845   5.205  0.00  0.00    +0.036 A 
ATOM     27  C   UNL     1       5.010   6.072   5.468  0.00  0.00    +0.025 A 
ATOM     28  C   UNL     1       4.426   6.943   6.366  0.00  0.00    +0.024 A 
ATOM     29  C   UNL     1       3.249   6.595   7.005  0.00  0.00    +0.071 A 
ATOM     30  C   UNL     1       2.654   5.373   6.745  0.00  0.00    +0.146 A 
ATOM     31  C   UNL     1       3.230   4.500   5.843  0.00  0.00    +0.057 A 
ATOM     32 CL   UNL     1       2.519   7.692   8.135  0.00  0.00    -0.081 Cl
BRANCH  30  33
ATOM     33  N   UNL     1       1.395   5.004   7.431  0.00  0.00    +0.058 N 
ATOM     34  O   UNL     1       0.874   3.936   7.204  0.00  0.00    -0.126 OA
ATOM     35  O   UNL     1       0.887   5.769   8.217  0.00  0.00    -0.126 OA
ENDBRANCH  30  33
ENDBRANCH  24  26
ENDBRANCH  21  22
ENDBRANCH  20  21
ENDBRANCH   2  20
TORSDOF 8
