REMARK  Name = ZINC12292004
REMARK  7 active torsions:
REMARK  status: ('A' for Active; 'I' for Inactive)
REMARK    1  A    between atoms: C_8  and  C_10
REMARK    2  A    between atoms: N_12  and  C_13
REMARK    3  A    between atoms: C_13  and  N_15
REMARK    4  A    between atoms: N_15  and  N_16
REMARK    5  A    between atoms: C_17  and  C_19
REMARK    6  A    between atoms: C_19  and  N_20
REMARK    7  A    between atoms: C_21  and  C_23
REMARK                            x       y       z     vdW  Elec       q    Type
REMARK                         _______ _______ _______ _____ _____    ______ ____
ROOT
ATOM      1  N   UNL     1       3.325   9.996   0.023  0.00  0.00    -0.245 N 
ATOM      2  H   UNL     1       3.998  10.695   0.020  0.00  0.00    +0.172 HD
ENDROOT
BRANCH   1   3
ATOM      3  N   UNL     1       1.965  10.332   0.038  0.00  0.00    -0.234 N 
ATOM      4  C   UNL     1       1.591  11.627   0.049  0.00  0.00    +0.246 C 
ATOM      5  O   UNL     1       2.432  12.501   0.045  0.00  0.00    -0.273 OA
ATOM      6  H   UNL     1       1.293   9.633   0.041  0.00  0.00    +0.173 HD
BRANCH   4   7
ATOM      7  C   UNL     1       0.129  11.989   0.065  0.00  0.00    +0.201 C 
BRANCH   7   8
ATOM      8  N   UNL     1      -0.014  13.447   0.074  0.00  0.00    -0.306 N 
ATOM      9  C   UNL     1      -1.241  14.004   0.090  0.00  0.00    +0.217 C 
ATOM     10  O   UNL     1      -2.227  13.298   0.096  0.00  0.00    -0.276 OA
ATOM     11  H   UNL     1       0.775  14.011   0.070  0.00  0.00    +0.149 HD
BRANCH   9  12
ATOM     12  C   UNL     1      -1.388  15.504   0.099  0.00  0.00    +0.075 C 
ATOM     13  C   UNL     1      -0.707  16.075   1.345  0.00  0.00    +0.013 C 
ATOM     14  C   UNL     1      -0.856  17.598   1.354  0.00  0.00    +0.001 C 
ATOM     15  C   UNL     1      -2.341  17.965   1.371  0.00  0.00    +0.000 C 
ATOM     16  C   UNL     1      -3.022  17.394   0.125  0.00  0.00    +0.001 C 
ATOM     17  C   UNL     1      -2.873  15.871   0.116  0.00  0.00    +0.013 C 
ENDBRANCH   9  12
ENDBRANCH   7   8
ENDBRANCH   4   7
ENDBRANCH   1   3
BRANCH   1  18
ATOM     18  C   UNL     1       3.699   8.701   0.012  0.00  0.00    +0.153 C 
ATOM     19  S   UNL     1       5.361   8.290  -0.007  0.00  0.00    -0.017 S 
BRANCH  18  22
ATOM     20  C   UNL     1       3.139   6.435   0.006  0.00  0.00    +0.258 C 
ATOM     21  O   UNL     1       4.320   6.143  -0.008  0.00  0.00    -0.269 OA
ATOM     22  N   UNL     1       2.765   7.730   0.016  0.00  0.00    -0.262 N 
ATOM     23  H   UNL     1       1.823   7.963   0.027  0.00  0.00    +0.157 HD
BRANCH  20  31
ATOM     24  C   UNL     1      -0.013   1.076   0.008  0.00  0.00    +0.001 A 
ATOM     25  C   UNL     1      -1.235   1.737   0.017  0.00  0.00    +0.001 A 
ATOM     26  C   UNL     1      -1.261   3.117   0.030  0.00  0.00    +0.016 A 
ATOM     27  C   UNL     1      -0.075   3.819   0.023  0.00  0.00    +0.021 A 
ATOM     28  C   UNL     1       1.183   3.173   0.007  0.00  0.00    +0.008 A 
ATOM     29  C   UNL     1       1.164   1.754   0.000  0.00  0.00    +0.010 A 
ATOM     30  C   UNL     1       2.301   4.028   0.001  0.00  0.00    +0.068 A 
ATOM     31  C   UNL     1       2.122   5.378   0.010  0.00  0.00    +0.094 A 
ATOM     32  S   UNL     1       0.345   5.544   0.028  0.00  0.00    -0.082 S 
ATOM     33 CL   UNL     1       3.905   3.364  -0.018  0.00  0.00    -0.082 Cl
ENDBRANCH  20  31
ENDBRANCH  18  22
ENDBRANCH   1  18
TORSDOF 7
