REMARK  Name = ZINC03258794
REMARK  9 active torsions:
REMARK  status: ('A' for Active; 'I' for Inactive)
REMARK    1  A    between atoms: C_1  and  C_2
REMARK    2  A    between atoms: C_5  and  S_8
REMARK    3  A    between atoms: S_8  and  N_11
REMARK    4  A    between atoms: N_14  and  C_15
REMARK    5  A    between atoms: C_18  and  C_35
REMARK    6  A    between atoms: C_19  and  N_21
REMARK    7  A    between atoms: N_24  and  S_25
REMARK    8  A    between atoms: S_25  and  C_28
REMARK    9  A    between atoms: C_31  and  C_34
REMARK                            x       y       z     vdW  Elec       q    Type
REMARK                         _______ _______ _______ _____ _____    ______ ____
ROOT
ATOM      1  C   UNL     1       3.352  -2.683  -4.496  0.00  0.00    +0.037 A 
ATOM      2  C   UNL     1       4.366  -1.899  -3.962  0.00  0.00    +0.024 A 
ATOM      3  C   UNL     1       5.380  -1.431  -4.774  0.00  0.00    +0.007 A 
ATOM      4  C   UNL     1       5.384  -1.731  -6.123  0.00  0.00    -0.029 A 
ATOM      5  C   UNL     1       4.369  -2.510  -6.665  0.00  0.00    +0.039 A 
ATOM      6  C   UNL     1       3.352  -2.987  -5.850  0.00  0.00    +0.047 A 
ATOM      7  C   UNL     1       6.489  -1.214  -7.007  0.00  0.00    +0.045 C 
ENDROOT
BRANCH   1  11
ATOM      8  N   UNL     1       1.585  -3.838  -1.564  0.00  0.00    -0.169 N 
ATOM      9  C   UNL     1       2.590  -3.480  -2.388  0.00  0.00    +0.323 C 
ATOM     10  O   UNL     1       3.732  -3.445  -1.974  0.00  0.00    -0.251 OA
ATOM     11  N   UNL     1       2.328  -3.162  -3.671  0.00  0.00    -0.268 N 
ATOM     12  H   UNL     1       0.673  -3.867  -1.895  0.00  0.00    +0.178 HD
ATOM     13  H   UNL     1       1.430  -3.264  -4.023  0.00  0.00    +0.156 HD
BRANCH   8  14
ATOM     14  S   UNL     1       1.906  -4.230   0.012  0.00  0.00    +0.076 S 
ATOM     15  O   UNL     1       2.986  -5.154  -0.011  0.00  0.00    -0.150 OA
ATOM     16  O   UNL     1       0.657  -4.532   0.619  0.00  0.00    -0.150 OA
BRANCH  14  21
ATOM     17  C   UNL     1       3.968   0.760   2.706  0.00  0.00    +0.044 C 
ATOM     18  C   UNL     1       3.453  -0.486   2.033  0.00  0.00    -0.050 A 
ATOM     19  C   UNL     1       2.098  -0.758   2.027  0.00  0.00    +0.005 A 
ATOM     20  C   UNL     1       1.626  -1.901   1.409  0.00  0.00    +0.029 A 
ATOM     21  C   UNL     1       2.509  -2.772   0.798  0.00  0.00    +0.109 A 
ATOM     22  C   UNL     1       3.864  -2.500   0.805  0.00  0.00    +0.029 A 
ATOM     23  C   UNL     1       4.336  -1.356   1.421  0.00  0.00    +0.005 A 
ENDBRANCH  14  21
ENDBRANCH   8  14
ENDBRANCH   1  11
BRANCH   5  24
ATOM     24  N   UNL     1       4.373  -2.814  -8.031  0.00  0.00    -0.268 N 
ATOM     25  C   UNL     1       3.667  -3.867  -8.489  0.00  0.00    +0.323 C 
ATOM     26  O   UNL     1       3.109  -4.612  -7.706  0.00  0.00    -0.251 OA
ATOM     27  N   UNL     1       3.580  -4.094  -9.815  0.00  0.00    -0.169 N 
ATOM     28  H   UNL     1       4.883  -2.267  -8.648  0.00  0.00    +0.156 HD
ATOM     29  H   UNL     1       4.025  -3.500 -10.439  0.00  0.00    +0.178 HD
BRANCH  27  30
ATOM     30  S   UNL     1       2.712  -5.388 -10.377  0.00  0.00    +0.076 S 
ATOM     31  O   UNL     1       2.787  -5.341 -11.796  0.00  0.00    -0.150 OA
ATOM     32  O   UNL     1       3.138  -6.519  -9.629  0.00  0.00    -0.150 OA
BRANCH  30  33
ATOM     33  C   UNL     1       1.025  -5.109  -9.952  0.00  0.00    +0.109 A 
ATOM     34  C   UNL     1       0.531  -5.571  -8.747  0.00  0.00    +0.029 A 
ATOM     35  C   UNL     1      -0.792  -5.348  -8.412  0.00  0.00    +0.005 A 
ATOM     36  C   UNL     1      -1.622  -4.672  -9.286  0.00  0.00    -0.050 A 
ATOM     37  C   UNL     1      -1.129  -4.215 -10.494  0.00  0.00    +0.005 A 
ATOM     38  C   UNL     1       0.195  -4.434 -10.827  0.00  0.00    +0.029 A 
ATOM     39  C   UNL     1      -3.065  -4.433  -8.923  0.00  0.00    +0.044 C 
ENDBRANCH  30  33
ENDBRANCH  27  30
ENDBRANCH   5  24
TORSDOF 6
