REMARK  Name = ZINC27029690
REMARK  3 active torsions:
REMARK  status: ('A' for Active; 'I' for Inactive)
REMARK    1  A    between atoms: C_9  and  C_13
REMARK    2  A    between atoms: C_13  and  S_14
REMARK    3  A    between atoms: S_14  and  C_15
REMARK                            x       y       z     vdW  Elec       q    Type
REMARK                         _______ _______ _______ _____ _____    ______ ____
ROOT
ATOM      1  C   UNL     1      -1.216   1.761   0.017  0.00  0.00    +0.002 A 
ATOM      2  C   UNL     1      -0.013   1.076   0.008  0.00  0.00    +0.001 A 
ATOM      3  C   UNL     1       1.171   1.792   0.001  0.00  0.00    +0.017 A 
ATOM      4  C   UNL     1       1.131   3.167   0.008  0.00  0.00    +0.039 A 
ATOM      5  C   UNL     1      -0.069   3.887   0.023  0.00  0.00    +0.062 A 
ATOM      6  C   UNL     1      -1.255   3.135   0.030  0.00  0.00    +0.027 A 
ATOM      7  N   UNL     1       0.035   5.284   0.028  0.00  0.00    -0.293 N 
ATOM      8  C   UNL     1      -0.845   6.365   0.042  0.00  0.00    +0.118 A 
ATOM      9  C   UNL     1      -0.108   7.487   0.041  0.00  0.00    +0.071 A 
ATOM     10  N   UNL     1       1.190   7.141   0.026  0.00  0.00    -0.225 NA
ATOM     11  C   UNL     1       1.279   5.842   0.019  0.00  0.00    +0.179 A 
ATOM     12  S   UNL     1       2.371   4.439   0.003  0.00  0.00    -0.049 S 
ENDROOT
BRANCH   9  13
ATOM     13  C   UNL     1      -0.645   8.895   0.052  0.00  0.00    +0.133 C 
BRANCH  13  14
ATOM     14  S   UNL     1      -0.877   9.468  -1.653  0.00  0.00    -0.091 S 
BRANCH  14  15
ATOM     15  C   UNL     1      -1.501  11.105  -1.472  0.00  0.00    +0.160 A 
ATOM     16  N   UNL     1      -1.752  11.787  -0.371  0.00  0.00    -0.133 NA
ATOM     17  N   UNL     1      -2.242  13.070  -0.457  0.00  0.00    -0.125 NA
ATOM     18  C   UNL     1      -2.458  13.612  -1.640  0.00  0.00    +0.180 A 
ATOM     19  S   UNL     1      -1.955  12.290  -2.730  0.00  0.00    -0.025 S 
ATOM     20  N   UNL     1      -2.942  14.877  -1.954  0.00  0.00    -0.336 N 
ATOM     21  H   UNL     1      -3.064  15.174  -3.006  0.00  0.00    +0.144 HD
ATOM     22  H   UNL     1      -3.204  15.580  -1.150  0.00  0.00    +0.144 HD
ENDBRANCH  14  15
ENDBRANCH  13  14
ENDBRANCH   9  13
TORSDOF 3
