REMARK  Name = ZINC21141396
REMARK  9 active torsions:
REMARK  status: ('A' for Active; 'I' for Inactive)
REMARK    1  A    between atoms: C_1  and  C_2
REMARK    2  A    between atoms: C_2  and  C_4
REMARK    3  A    between atoms: C_2  and  S_17
REMARK    4  A    between atoms: N_6  and  C_7
REMARK    5  A    between atoms: S_17  and  C_18
REMARK    6  A    between atoms: C_21  and  C_24
REMARK    7  A    between atoms: N_22  and  N_23
REMARK    8  A    between atoms: C_27  and  O_30
REMARK    9  A    between atoms: O_30  and  C_31
REMARK                            x       y       z     vdW  Elec       q    Type
REMARK                         _______ _______ _______ _____ _____    ______ ____
ROOT
ATOM      1  C   UNL     1      -4.998   9.801   0.305  0.00  0.00    +0.209 A 
ATOM      2  N   UNL     1      -3.836  10.349   0.032  0.00  0.00    -0.121 NA
ATOM      3  N   UNL     1      -3.913  11.627   0.141  0.00  0.00    -0.127 NA
ATOM      4  C   UNL     1      -5.128  11.974   0.498  0.00  0.00    +0.182 A 
ATOM      5  N   UNL     1      -5.860  10.815   0.615  0.00  0.00    -0.224 N 
ENDROOT
BRANCH   4   6
ATOM      6  C   UNL     1      -5.615  13.349   0.732  0.00  0.00    +0.021 A 
ATOM      7  C   UNL     1      -4.885  14.441   0.259  0.00  0.00    +0.015 A 
ATOM      8  C   UNL     1      -5.346  15.722   0.474  0.00  0.00    +0.046 A 
ATOM      9  C   UNL     1      -6.530  15.928   1.171  0.00  0.00    +0.127 A 
ATOM     10  C   UNL     1      -7.256  14.845   1.647  0.00  0.00    +0.046 A 
ATOM     11  C   UNL     1      -6.805  13.561   1.431  0.00  0.00    +0.015 A 
BRANCH   9  12
ATOM     12  O   UNL     1      -6.978  17.192   1.386  0.00  0.00    -0.434 OA
BRANCH  12  13
ATOM     13  C   UNL     1      -6.181  18.260   0.868  0.00  0.00    +0.541 C 
ATOM     14  F   UNL     1      -4.906  18.210   1.441  0.00  0.00    -0.166 F 
ATOM     15  F   UNL     1      -6.074  18.131  -0.521  0.00  0.00    -0.166 F 
ENDBRANCH  12  13
ENDBRANCH   9  12
ENDBRANCH   4   6
BRANCH   5  16
ATOM     16  N   UNL     1      -7.175  10.702   0.967  0.00  0.00    -0.295 N 
ATOM     17  H   UNL     1      -7.764  11.604   1.193  0.00  0.00    +0.163 HD
ATOM     18  H   UNL     1      -7.646   9.710   1.024  0.00  0.00    +0.163 HD
ENDBRANCH   5  16
BRANCH   1  19
ATOM     19  S   UNL     1      -5.374   8.080   0.285  0.00  0.00    -0.072 S 
BRANCH  19  21
ATOM     20  C   UNL     1      -3.428   7.880  -1.622  0.00  0.00    +0.029 C 
ATOM     21  C   UNL     1      -3.764   7.413  -0.205  0.00  0.00    +0.137 C 
BRANCH  21  22
ATOM     22  C   UNL     1      -3.813   5.907  -0.171  0.00  0.00    +0.230 C 
ATOM     23  O   UNL     1      -4.873   5.332  -0.301  0.00  0.00    -0.274 OA
ATOM     24  N   UNL     1      -2.679   5.200   0.003  0.00  0.00    -0.284 N 
ATOM     25  H   UNL     1      -1.733   5.720   0.210  0.00  0.00    +0.155 HD
BRANCH  24  26
ATOM     26  C   UNL     1      -2.706   3.806  -0.079  0.00  0.00    +0.041 A 
ATOM     27  C   UNL     1      -3.691   3.171  -0.805  0.00  0.00    +0.024 A 
ATOM     28  C   UNL     1      -3.727   1.783  -0.893  0.00  0.00    +0.002 A 
ATOM     29  C   UNL     1      -2.793   1.015  -0.267  0.00  0.00    +0.008 A 
ATOM     30  C   UNL     1      -1.769   1.623   0.478  0.00  0.00    -0.016 A 
ATOM     31  C   UNL     1      -1.726   3.035   0.581  0.00  0.00    +0.003 A 
ATOM     32  C   UNL     1      -0.705   3.641   1.331  0.00  0.00    +0.010 A 
ATOM     33  C   UNL     1       0.224   2.866   1.954  0.00  0.00    +0.001 A 
ATOM     34  C   UNL     1       0.179   1.476   1.858  0.00  0.00    +0.001 A 
ATOM     35  C   UNL     1      -0.795   0.855   1.139  0.00  0.00    +0.008 A 
ENDBRANCH  24  26
ENDBRANCH  21  22
ENDBRANCH  19  21
ENDBRANCH   1  19
TORSDOF 8
