REMARK  Name = ZINC03408386
REMARK  7 active torsions:
REMARK  status: ('A' for Active; 'I' for Inactive)
REMARK    1  A    between atoms: C_3  and  N_26
REMARK    2  A    between atoms: C_6  and  C_7
REMARK    3  A    between atoms: C_7  and  O_9
REMARK    4  A    between atoms: O_9  and  C_10
REMARK    5  A    between atoms: C_10  and  C_11
REMARK    6  A    between atoms: N_13  and  C_14
REMARK    7  A    between atoms: C_15  and  C_24
REMARK                            x       y       z     vdW  Elec       q    Type
REMARK                         _______ _______ _______ _____ _____    ______ ____
ROOT
ATOM      1  C   UNL     1       2.362   1.101   0.116  0.00  0.00    +0.328 C 
ENDROOT
BRANCH   1   2
ATOM      2  C   UNL     1       3.540   2.018   0.318  0.00  0.00    +0.255 C 
ATOM      3  O   UNL     1       3.364   3.208   0.475  0.00  0.00    -0.272 OA
ATOM      4  N   UNL     1       4.791   1.516   0.324  0.00  0.00    -0.276 N 
ATOM      5  H   UNL     1       4.952   0.437   0.182  0.00  0.00    +0.155 HD
BRANCH   4   6
ATOM      6  C   UNL     1       5.877   2.361   0.510  0.00  0.00    +0.090 A 
ATOM      7  C   UNL     1       7.223   2.036   0.553  0.00  0.00    +0.084 A 
ATOM      8  C   UNL     1       8.175   3.118   0.756  0.00  0.00    -0.018 A 
ATOM      9  C   UNL     1       7.623   4.343   0.899  0.00  0.00    -0.004 A 
ATOM     10  S   UNL     1       5.878   4.075   0.752  0.00  0.00    -0.077 S 
ATOM     11  C   UNL     1       8.327   5.641   1.144  0.00  0.00    +0.043 C 
ATOM     12  C   UNL     1       9.483   5.787   0.145  0.00  0.00    +0.005 C 
ATOM     13  C   UNL     1      10.732   5.162   0.758  0.00  0.00    +0.001 C 
ATOM     14  C   UNL     1      10.348   3.974   1.638  0.00  0.00    +0.005 C 
ATOM     15  C   UNL     1       9.681   2.887   0.802  0.00  0.00    +0.037 C 
BRANCH   7  16
ATOM     16  C   UNL     1       7.663   0.682   0.400  0.00  0.00    +0.102 C 
ATOM     17  N   UNL     1       8.012  -0.392   0.278  0.00  0.00    -0.191 NA
ENDBRANCH   7  16
ENDBRANCH   4   6
ENDBRANCH   1   2
BRANCH   1  18
ATOM     18  O   UNL     1       1.134   1.876   0.150  0.00  0.00    -0.452 OA
BRANCH  18  19
ATOM     19  C   UNL     1      -0.020   1.201  -0.016  0.00  0.00    +0.340 C 
ATOM     20  O   UNL     1      -0.002  -0.002  -0.185  0.00  0.00    -0.245 OA
BRANCH  19  26
ATOM     21  C   UNL     1      -1.329   3.307   0.200  0.00  0.00    +0.017 A 
ATOM     22  C   UNL     1      -2.530   3.979   0.209  0.00  0.00    +0.024 A 
ATOM     23  C   UNL     1      -3.721   3.281   0.032  0.00  0.00    +0.035 A 
ATOM     24  C   UNL     1      -3.702   1.903  -0.161  0.00  0.00    +0.024 A 
ATOM     25  C   UNL     1      -2.504   1.226  -0.178  0.00  0.00    +0.017 A 
ATOM     26  C   UNL     1      -1.306   1.923   0.000  0.00  0.00    +0.059 A 
BRANCH  23  27
ATOM     27  N   UNL     1      -4.936   3.964   0.048  0.00  0.00    -0.270 N 
ATOM     28  C   UNL     1      -6.038   3.367   0.543  0.00  0.00    +0.301 C 
ATOM     29  O   UNL     1      -5.955   2.272   1.064  0.00  0.00    -0.253 OA
ATOM     30  N   UNL     1      -7.234   3.984   0.461  0.00  0.00    -0.313 N 
ATOM     31  H   UNL     1      -4.996   4.990  -0.344  0.00  0.00    +0.156 HD
ATOM     32  H   UNL     1      -8.133   3.497   0.865  0.00  0.00    +0.146 HD
ATOM     33  H   UNL     1      -7.310   4.975  -0.011  0.00  0.00    +0.146 HD
ENDBRANCH  23  27
ENDBRANCH  19  26
ENDBRANCH  18  19
ENDBRANCH   1  18
TORSDOF 7
