REMARK  Name = ZINC39096252
REMARK  5 active torsions:
REMARK  status: ('A' for Active; 'I' for Inactive)
REMARK    1  A    between atoms: C_3  and  O_15
REMARK    2  A    between atoms: C_4  and  O_14
REMARK    3  A    between atoms: C_6  and  C_7
REMARK    4  A    between atoms: C_7  and  C_9
REMARK    5  A    between atoms: C_7  and  O_12
REMARK                            x       y       z     vdW  Elec       q    Type
REMARK                         _______ _______ _______ _____ _____    ______ ____
ROOT
ATOM      1  C   UNL     1      -0.017   1.378   0.010  0.00  0.00    +0.013 A 
ATOM      2  C   UNL     1       1.169   2.089   0.002  0.00  0.00    +0.050 A 
ATOM      3  C   UNL     1       2.381   1.417  -0.013  0.00  0.00    +0.161 A 
ATOM      4  C   UNL     1       2.402   0.026  -0.021  0.00  0.00    +0.195 A 
ATOM      5  C   UNL     1       1.209  -0.682  -0.013  0.00  0.00    +0.174 A 
ATOM      6  C   UNL     1       0.002  -0.004   0.002  0.00  0.00    +0.031 A 
ATOM      7  F   UNL     1       1.225  -2.033  -0.021  0.00  0.00    -0.201 F 
ENDROOT
BRANCH   4   8
ATOM      8  O   UNL     1       3.589  -0.638  -0.036  0.00  0.00    -0.501 OA
ATOM      9  H   UNL     1       3.941  -0.835   0.843  0.00  0.00    +0.292 HD
ENDBRANCH   4   8
BRANCH   3  10
ATOM     10  O   UNL     1       3.548   2.115  -0.021  0.00  0.00    -0.503 OA
ATOM     11  H   UNL     1       3.894   2.313   0.860  0.00  0.00    +0.292 HD
ENDBRANCH   3  10
BRANCH   6  12
ATOM     12  C   UNL     1      -1.293  -0.774   0.011  0.00  0.00    +0.260 C 
BRANCH  12  13
ATOM     13  C   UNL     1      -1.648  -1.145   1.428  0.00  0.00    +0.388 C 
ATOM     14  O   UNL     1      -2.647  -0.678   1.948  0.00  0.00    -0.243 OA
ATOM     15  O   UNL     1      -0.936  -1.911   2.054  0.00  0.00    -0.243 OA
ENDBRANCH  12  13
BRANCH  12  16
ATOM     16  O   UNL     1      -2.332   0.035  -0.544  0.00  0.00    -0.376 OA
ATOM     17  H   UNL     1      -2.487   0.860  -0.064  0.00  0.00    +0.211 HD
ENDBRANCH  12  16
ENDBRANCH   6  12
TORSDOF 5
