REMARK  Name = ZINC67029287
REMARK  8 active torsions:
REMARK  status: ('A' for Active; 'I' for Inactive)
REMARK    1  A    between atoms: C_1  and  C_2
REMARK    2  A    between atoms: C_3  and  C_21
REMARK    3  A    between atoms: C_4  and  C_10
REMARK    4  A    between atoms: C_12  and  N_18
REMARK    5  A    between atoms: C_21  and  O_23
REMARK    6  A    between atoms: O_23  and  C_24
REMARK    7  A    between atoms: C_24  and  C_25
REMARK    8  A    between atoms: C_24  and  C_26
REMARK                            x       y       z     vdW  Elec       q    Type
REMARK                         _______ _______ _______ _____ _____    ______ ____
ROOT
ATOM      1  C   UNL     1       0.506   1.288   0.221  0.00  0.00    +0.061 C 
ATOM      2  C   UNL     1       0.312  -0.202   0.100  0.00  0.00    +0.019 C 
ATOM      3  C   UNL     1      -0.925  -0.694  -0.131  0.00  0.00    +0.078 C 
ATOM      4  C   UNL     1      -1.075  -2.198  -0.246  0.00  0.00    +0.144 C 
ATOM      5  N   UNL     1       0.148  -3.004  -0.096  0.00  0.00    -0.315 N 
ATOM      6  C   UNL     1       1.313  -2.365   0.132  0.00  0.00    +0.135 C 
ATOM      7  S   UNL     1       2.743  -3.289   0.309  0.00  0.00    -0.019 S 
ATOM      8  N   UNL     1       1.389  -1.031   0.220  0.00  0.00    -0.300 N 
ATOM      9  H   UNL     1       0.116  -3.971  -0.159  0.00  0.00    +0.149 HD
ATOM     10  H   UNL     1       2.258  -0.632   0.381  0.00  0.00    +0.154 HD
ENDROOT
BRANCH   4  11
ATOM     11  C   UNL     1      -1.669  -2.503  -1.597  0.00  0.00    +0.015 A 
ATOM     12  C   UNL     1      -2.991  -2.894  -1.699  0.00  0.00    +0.044 A 
ATOM     13  C   UNL     1      -3.536  -3.174  -2.937  0.00  0.00    +0.162 A 
ATOM     14  C   UNL     1      -2.759  -3.065  -4.078  0.00  0.00    +0.156 A 
ATOM     15  C   UNL     1      -1.435  -2.674  -3.978  0.00  0.00    +0.079 A 
ATOM     16  C   UNL     1      -0.891  -2.388  -2.737  0.00  0.00    +0.132 A 
ATOM     17  F   UNL     1       0.400  -2.000  -2.638  0.00  0.00    -0.205 F 
ATOM     18  F   UNL     1      -3.292  -3.340  -5.288  0.00  0.00    -0.203 F 
BRANCH  13  19
ATOM     19  N   UNL     1      -4.952  -3.592  -3.045  0.00  0.00    +0.059 N 
ATOM     20  O   UNL     1      -5.631  -3.688  -2.049  0.00  0.00    -0.126 OA
ATOM     21  O   UNL     1      -5.430  -3.837  -4.128  0.00  0.00    -0.126 OA
ENDBRANCH  13  19
ENDBRANCH   4  11
BRANCH   3  22
ATOM     22  C   UNL     1      -2.041   0.164  -0.261  0.00  0.00    +0.339 C 
ATOM     23  O   UNL     1      -1.883   1.371  -0.269  0.00  0.00    -0.245 OA
BRANCH  22  24
ATOM     24  O   UNL     1      -3.282  -0.355  -0.376  0.00  0.00    -0.459 OA
BRANCH  24  25
ATOM     25  C   UNL     1      -4.363   0.571  -0.503  0.00  0.00    +0.171 C 
ATOM     26  C   UNL     1      -5.484  -0.064  -1.329  0.00  0.00    +0.052 C 
ATOM     27  C   UNL     1      -4.894   0.929   0.886  0.00  0.00    +0.052 C 
ENDBRANCH  24  25
ENDBRANCH  22  24
ENDBRANCH   3  22
TORSDOF 5
