REMARK  Name = ZINC38741957
REMARK  3 active torsions:
REMARK  status: ('A' for Active; 'I' for Inactive)
REMARK    1  A    between atoms: C_1  and  C_2
REMARK    2  A    between atoms: C_4  and  C_8
REMARK    3  A    between atoms: C_16  and  C_18
REMARK                            x       y       z     vdW  Elec       q    Type
REMARK                         _______ _______ _______ _____ _____    ______ ____
ROOT
ATOM      1  C   UNL     1      -0.964  -2.951   1.248  0.00  0.00    +0.206 C 
ATOM      2  N   UNL     1      -2.440  -3.082   1.284  0.00  0.00    -0.231 NA
ATOM      3  N   UNL     1      -2.731  -4.523   1.378  0.00  0.00    -0.224 NA
ATOM      4  C   UNL     1      -1.499  -5.071   1.981  0.00  0.00    +0.240 C 
ATOM      5  N   UNL     1      -0.441  -4.335   1.213  0.00  0.00    -0.206 N 
ATOM      6  N   UNL     1       0.541  -5.155   0.701  0.00  0.00    -0.173 NA
ATOM      7  C   UNL     1       0.406  -6.446   0.605  0.00  0.00    +0.125 C 
ATOM      8  S   UNL     1      -1.183  -6.786   1.423  0.00  0.00    -0.063 S 
ATOM      9  H   UNL     1      -2.859  -2.682   0.458  0.00  0.00    +0.143 HD
ATOM     10  H   UNL     1      -2.893  -4.919   0.464  0.00  0.00    +0.144 HD
ENDROOT
BRANCH   7  11
ATOM     11  C   UNL     1       1.334  -7.415  -0.017  0.00  0.00    +0.009 A 
ATOM     12  C   UNL     1       1.019  -8.775  -0.034  0.00  0.00    +0.010 A 
ATOM     13  C   UNL     1       1.887  -9.674  -0.616  0.00  0.00    +0.002 A 
ATOM     14  C   UNL     1       3.070  -9.232  -1.183  0.00  0.00    +0.015 A 
ATOM     15  C   UNL     1       3.389  -7.885  -1.169  0.00  0.00    +0.019 A 
ATOM     16  C   UNL     1       2.525  -6.973  -0.595  0.00  0.00    +0.026 A 
ATOM     17 BR   UNL     1       5.007  -7.291  -1.946  0.00  0.00    -0.050 Br
ENDBRANCH   7  11
BRANCH   1  21
ATOM     18  C   UNL     1      -0.018   1.503   0.010  0.00  0.00    +0.067 C 
ATOM     19  C   UNL     1       0.002  -0.004   0.002  0.00  0.00    +0.058 C 
ATOM     20  C   UNL     1      -1.086  -0.777   0.003  0.00  0.00    +0.029 C 
ATOM     21  C   UNL     1      -0.531  -2.190  -0.007  0.00  0.00    +0.190 C 
ATOM     22  N   UNL     1       0.926  -1.973  -0.013  0.00  0.00    -0.177 NA
ATOM     23  N   UNL     1       1.125  -0.756  -0.013  0.00  0.00    -0.159 NA
ENDBRANCH   1  21
TORSDOF 2
