REMARK  Name = ZINC08831322
REMARK  8 active torsions:
REMARK  status: ('A' for Active; 'I' for Inactive)
REMARK    1  A    between atoms: C_4  and  N_28
REMARK    2  A    between atoms: C_5  and  C_7
REMARK    3  A    between atoms: C_10  and  C_12
REMARK    4  A    between atoms: N_14  and  C_15
REMARK    5  A    between atoms: C_15  and  N_17
REMARK    6  A    between atoms: N_17  and  C_18
REMARK    7  A    between atoms: C_21  and  S_24
REMARK    8  A    between atoms: S_24  and  N_27
REMARK                            x       y       z     vdW  Elec       q    Type
REMARK                         _______ _______ _______ _____ _____    ______ ____
ROOT
ATOM      1  C   UNL     1       1.641   6.798   1.842  0.00  0.00    +0.285 C 
ATOM      2  O   UNL     1       1.124   7.897   1.771  0.00  0.00    -0.266 OA
ATOM      3  N   UNL     1       2.770   6.629   2.558  0.00  0.00    -0.261 N 
ATOM      4  H   UNL     1       3.182   5.753   2.615  0.00  0.00    +0.157 HD
ENDROOT
BRANCH   1   8
ATOM      5  C   UNL     1       0.693   3.618   0.409  0.00  0.00    +0.138 A 
ATOM      6  C   UNL     1      -0.323   4.390  -0.080  0.00  0.00    +0.051 A 
ATOM      7  C   UNL     1      -0.112   5.691   0.388  0.00  0.00    +0.055 A 
ATOM      8  C   UNL     1       1.036   5.658   1.151  0.00  0.00    +0.190 A 
ATOM      9  O   UNL     1       1.502   4.391   1.152  0.00  0.00    -0.450 OA
BRANCH   5  14
ATOM     10  C   UNL     1      -0.025  -0.057   0.138  0.00  0.00    +0.001 A 
ATOM     11  C   UNL     1       1.199  -0.539  -0.293  0.00  0.00    +0.002 A 
ATOM     12  C   UNL     1       2.258   0.327  -0.496  0.00  0.00    +0.033 A 
ATOM     13  C   UNL     1       2.101   1.679  -0.270  0.00  0.00    +0.137 A 
ATOM     14  C   UNL     1       0.869   2.172   0.165  0.00  0.00    +0.047 A 
ATOM     15  C   UNL     1      -0.196   1.292   0.368  0.00  0.00    +0.014 A 
BRANCH  13  16
ATOM     16  N   UNL     1       3.235   2.605  -0.487  0.00  0.00    +0.057 N 
ATOM     17  O   UNL     1       4.309   2.173  -0.866  0.00  0.00    -0.126 OA
ATOM     18  O   UNL     1       3.095   3.798  -0.287  0.00  0.00    -0.126 OA
ENDBRANCH  13  16
ENDBRANCH   5  14
ENDBRANCH   1   8
BRANCH   3  19
ATOM     19  C   UNL     1       3.327   7.678   3.195  0.00  0.00    +0.141 C 
ATOM     20  S   UNL     1       2.600   9.225   3.095  0.00  0.00    -0.018 S 
BRANCH  19  21
ATOM     21  N   UNL     1       4.457   7.509   3.911  0.00  0.00    -0.297 N 
ATOM     22  H   UNL     1       4.835   6.623   4.019  0.00  0.00    +0.154 HD
BRANCH  21  23
ATOM     23  C   UNL     1       5.083   8.613   4.499  0.00  0.00    +0.033 A 
ATOM     24  C   UNL     1       6.460   8.766   4.399  0.00  0.00    +0.025 A 
ATOM     25  C   UNL     1       7.075   9.861   4.975  0.00  0.00    +0.030 A 
ATOM     26  C   UNL     1       6.323  10.797   5.661  0.00  0.00    +0.105 A 
ATOM     27  C   UNL     1       4.953  10.644   5.767  0.00  0.00    +0.030 A 
ATOM     28  C   UNL     1       4.331   9.555   5.188  0.00  0.00    +0.025 A 
BRANCH  26  29
ATOM     29  S   UNL     1       7.113  12.188   6.400  0.00  0.00    +0.056 S 
ATOM     30  O   UNL     1       8.329  12.387   5.693  0.00  0.00    -0.153 OA
ATOM     31  O   UNL     1       6.124  13.202   6.516  0.00  0.00    -0.153 OA
BRANCH  29  32
ATOM     32  N   UNL     1       7.528  11.752   7.943  0.00  0.00    -0.204 NA
ATOM     33  H   UNL     1       8.306  12.148   8.366  0.00  0.00    +0.144 HD
ATOM     34  H   UNL     1       6.993  11.102   8.424  0.00  0.00    +0.144 HD
ENDBRANCH  29  32
ENDBRANCH  26  29
ENDBRANCH  21  23
ENDBRANCH  19  21
ENDBRANCH   3  19
TORSDOF 8
