REMARK  Name = ZINC39945216
REMARK  9 active torsions:
REMARK  status: ('A' for Active; 'I' for Inactive)
REMARK    1  A    between atoms: C_1  and  C_2
REMARK    2  A    between atoms: C_7  and  C_8
REMARK    3  A    between atoms: C_7  and  C_9
REMARK    4  A    between atoms: C_11  and  O_13
REMARK    5  A    between atoms: O_13  and  C_14
REMARK    6  A    between atoms: C_16  and  O_30
REMARK    7  A    between atoms: C_18  and  O_29
REMARK    8  A    between atoms: C_20  and  O_28
REMARK    9  A    between atoms: C_22  and  C_25
REMARK                            x       y       z     vdW  Elec       q    Type
REMARK                         _______ _______ _______ _____ _____    ______ ____
ROOT
ATOM      1  C   UNL     1      -3.634  -0.114   0.659  0.00  0.00    +0.283 C 
ATOM      2  C   UNL     1      -4.461   0.528   1.776  0.00  0.00    +0.201 C 
ATOM      3  C   UNL     1      -4.094   2.011   1.885  0.00  0.00    +0.179 C 
ATOM      4  C   UNL     1      -4.327   2.685   0.530  0.00  0.00    +0.185 C 
ATOM      5  C   UNL     1      -3.505   1.960  -0.539  0.00  0.00    +0.265 C 
ATOM      6  O   UNL     1      -3.874   0.579  -0.568  0.00  0.00    -0.331 OA
ENDROOT
BRANCH   5   7
ATOM      7  C   UNL     1      -3.774   2.580  -1.886  0.00  0.00    +0.387 C 
ATOM      8  O   UNL     1      -3.444   3.733  -2.103  0.00  0.00    -0.243 OA
ATOM      9  O   UNL     1      -4.322   1.928  -2.759  0.00  0.00    -0.243 OA
ENDBRANCH   5   7
BRANCH   4  10
ATOM     10  O   UNL     1      -5.715   2.616   0.195  0.00  0.00    -0.386 OA
ATOM     11  H   UNL     1      -5.935   3.025  -0.654  0.00  0.00    +0.210 HD
ENDBRANCH   4  10
BRANCH   3  12
ATOM     12  O   UNL     1      -4.912   2.634   2.878  0.00  0.00    -0.386 OA
ATOM     13  H   UNL     1      -4.733   3.577   3.000  0.00  0.00    +0.210 HD
ENDBRANCH   3  12
BRANCH   2  14
ATOM     14  O   UNL     1      -5.852   0.400   1.474  0.00  0.00    -0.384 OA
ATOM     15  H   UNL     1      -6.437   0.786   2.141  0.00  0.00    +0.210 HD
ENDBRANCH   2  14
BRANCH   1  16
ATOM     16  O   UNL     1      -2.246  -0.034   0.988  0.00  0.00    -0.345 OA
BRANCH  16  26
ATOM     17  C   UNL     1      -0.019   1.526   0.010  0.00  0.00    +0.014 C 
ATOM     18  C   UNL     1       0.002  -0.004   0.002  0.00  0.00    -0.000 C 
ATOM     19  C   UNL     1       0.744  -0.669  -1.197  0.00  0.00    +0.010 C 
ATOM     20  C   UNL     1       1.062  -2.103  -0.714  0.00  0.00    +0.005 C 
ATOM     21  C   UNL     1       0.481  -2.169   0.732  0.00  0.00    -0.002 C 
ATOM     22  C   UNL     1       0.727  -0.695   1.211  0.00  0.00    -0.024 C 
ATOM     23  C   UNL     1       0.031  -0.400   2.541  0.00  0.00    +0.012 C 
ATOM     24  C   UNL     1       2.216  -0.348   1.260  0.00  0.00    +0.012 C 
ATOM     25  C   UNL     1      -1.065  -2.175   0.532  0.00  0.00    +0.036 C 
ATOM     26  C   UNL     1      -1.389  -0.705   0.062  0.00  0.00    +0.128 C 
ENDBRANCH  16  26
ENDBRANCH   1  16
TORSDOF 6
