REMARK  Name = ZINC36635899
REMARK  5 active torsions:
REMARK  status: ('A' for Active; 'I' for Inactive)
REMARK    1  A    between atoms: C_1  and  C_2
REMARK    2  A    between atoms: C_6  and  C_25
REMARK    3  A    between atoms: C_7  and  N_8
REMARK    4  A    between atoms: N_8  and  C_9
REMARK    5  A    between atoms: N_14  and  C_17
REMARK                            x       y       z     vdW  Elec       q    Type
REMARK                         _______ _______ _______ _____ _____    ______ ____
ROOT
ATOM      1  C   UNL     1      -0.699  -0.077   2.767  0.00  0.00    +0.166 C 
ATOM      2  C   UNL     1      -1.552   1.206   2.703  0.00  0.00    +0.128 C 
ATOM      3  C   UNL     1      -0.649   2.262   3.303  0.00  0.00    +0.228 C 
ATOM      4  O   UNL     1      -0.935   3.431   3.446  0.00  0.00    -0.275 OA
ATOM      5  N   UNL     1       0.514   1.700   3.653  0.00  0.00    -0.209 N 
ATOM      6  C   UNL     1       0.597   0.384   3.398  0.00  0.00    +0.247 C 
ATOM      7  O   UNL     1       1.554  -0.322   3.634  0.00  0.00    -0.273 OA
ENDROOT
BRANCH   5   8
ATOM      8  C   UNL     1       1.562   2.425   4.239  0.00  0.00    +0.045 A 
ATOM      9  C   UNL     1       1.636   2.545   5.620  0.00  0.00    +0.025 A 
ATOM     10  C   UNL     1       2.669   3.259   6.196  0.00  0.00    +0.023 A 
ATOM     11  C   UNL     1       3.629   3.855   5.398  0.00  0.00    +0.059 A 
ATOM     12  C   UNL     1       3.557   3.737   4.020  0.00  0.00    +0.061 A 
ATOM     13  C   UNL     1       2.528   3.019   3.440  0.00  0.00    +0.045 A 
ATOM     14 CL   UNL     1       4.763   4.487   3.021  0.00  0.00    -0.082 Cl
ATOM     15 CL   UNL     1       4.925   4.753   6.125  0.00  0.00    -0.082 Cl
ENDBRANCH   5   8
BRANCH   1  16
ATOM     16  N   UNL     1      -0.458  -0.604   1.421  0.00  0.00    -0.332 N 
ATOM     17  H   UNL     1       0.386  -0.428   0.975  0.00  0.00    +0.147 HD
BRANCH  16  24
ATOM     18  C   UNL     1      -1.763   0.534  -0.837  0.00  0.00    +0.045 C 
ATOM     19  C   UNL     1      -2.105  -0.842  -0.327  0.00  0.00    -0.029 A 
ATOM     20  C   UNL     1      -3.075  -1.593  -0.962  0.00  0.00    +0.005 A 
ATOM     21  C   UNL     1      -3.389  -2.856  -0.494  0.00  0.00    +0.001 A 
ATOM     22  C   UNL     1      -2.735  -3.371   0.610  0.00  0.00    +0.005 A 
ATOM     23  C   UNL     1      -1.765  -2.625   1.249  0.00  0.00    -0.029 A 
ATOM     24  C   UNL     1      -1.442  -1.359   0.779  0.00  0.00    +0.034 A 
ATOM     25  C   UNL     1      -1.052  -3.187   2.453  0.00  0.00    +0.045 C 
ENDBRANCH  16  24
ENDBRANCH   1  16
TORSDOF 3
