REMARK  Name = ZINC04257538
REMARK  11 active torsions:
REMARK  status: ('A' for Active; 'I' for Inactive)
REMARK    1  A    between atoms: C_1  and  C_2
REMARK    2  A    between atoms: C_2  and  C_3
REMARK    3  A    between atoms: C_8  and  O_9
REMARK    4  A    between atoms: O_9  and  C_10
REMARK    5  A    between atoms: C_12  and  O_25
REMARK    6  A    between atoms: C_14  and  O_24
REMARK    7  A    between atoms: C_16  and  O_23
REMARK    8  A    between atoms: C_18  and  C_21
REMARK    9  A    between atoms: C_21  and  O_22
REMARK   10  A    between atoms: C_27  and  C_40
REMARK   11  A    between atoms: C_28  and  C_31
REMARK                            x       y       z     vdW  Elec       q    Type
REMARK                         _______ _______ _______ _____ _____    ______ ____
ROOT
ATOM      1  C   UNL     1       6.984   5.184   1.948  0.00  0.00    -0.005 A 
ATOM      2  C   UNL     1       5.787   4.538   2.071  0.00  0.00    +0.022 A 
ATOM      3  C   UNL     1       5.333   3.719   1.036  0.00  0.00    +0.065 A 
ATOM      4  C   UNL     1       6.100   3.557  -0.131  0.00  0.00    +0.142 A 
ATOM      5  C   UNL     1       7.314   4.222  -0.240  0.00  0.00    +0.093 A 
ATOM      6  C   UNL     1       7.751   5.031   0.796  0.00  0.00    +0.131 A 
ATOM      7  O   UNL     1       5.660   2.766  -1.130  0.00  0.00    -0.459 OA
ATOM      8  C   UNL     1       4.502   2.102  -1.083  0.00  0.00    +0.114 A 
ATOM      9  C   UNL     1       3.664   2.169  -0.017  0.00  0.00    +0.067 A 
ATOM     10  C   UNL     1       4.044   3.010   1.131  0.00  0.00    +0.200 A 
ATOM     11  O   UNL     1       3.330   3.112   2.113  0.00  0.00    -0.286 OA
ATOM     12  C   UNL     1       4.110   1.246  -2.260  0.00  0.00    +0.087 C 
ENDROOT
BRANCH   9  13
ATOM     13  C   UNL     1       2.387   1.414  -0.010  0.00  0.00    -0.007 A 
ATOM     14  C   UNL     1       2.400   0.020  -0.018  0.00  0.00    +0.012 A 
ATOM     15  C   UNL     1       1.212  -0.682  -0.012  0.00  0.00    +0.050 A 
ATOM     16  C   UNL     1       0.002  -0.004   0.002  0.00  0.00    +0.166 A 
ATOM     17  C   UNL     1      -0.017   1.389   0.010  0.00  0.00    +0.167 A 
ATOM     18  C   UNL     1       1.172   2.096   0.002  0.00  0.00    +0.058 A 
ATOM     19  O   UNL     1      -1.316   1.808   0.019  0.00  0.00    -0.453 OA
ATOM     20  C   UNL     1      -2.092   0.667  -0.388  0.00  0.00    +0.466 C 
ATOM     21  O   UNL     1      -1.286  -0.457   0.011  0.00  0.00    -0.453 OA
ENDBRANCH   9  13
BRANCH   1  23
ATOM     22  C   UNL     1       7.077   7.519   2.780  0.00  0.00    +0.009 C 
ATOM     23  C   UNL     1       7.476   6.069   3.064  0.00  0.00    +0.035 C 
ENDBRANCH   1  23
BRANCH   6  24
ATOM     24  O   UNL     1       8.938   5.680   0.687  0.00  0.00    -0.460 OA
BRANCH  24  25
ATOM     25  C   UNL     1       9.678   5.481  -0.519  0.00  0.00    +0.339 C 
ATOM     26  C   UNL     1      11.079   6.078  -0.363  0.00  0.00    +0.214 C 
ATOM     27  C   UNL     1      11.845   5.915  -1.680  0.00  0.00    +0.180 C 
ATOM     28  C   UNL     1      11.050   6.584  -2.806  0.00  0.00    +0.177 C 
ATOM     29  C   UNL     1       9.650   5.968  -2.868  0.00  0.00    +0.179 C 
ATOM     30  O   UNL     1       9.005   6.126  -1.603  0.00  0.00    -0.331 OA
BRANCH  28  31
ATOM     31  O   UNL     1      10.945   7.986  -2.549  0.00  0.00    -0.386 OA
ATOM     32  H   UNL     1      11.797   8.440  -2.493  0.00  0.00    +0.210 HD
ENDBRANCH  28  31
BRANCH  27  33
ATOM     33  O   UNL     1      13.127   6.535  -1.567  0.00  0.00    -0.386 OA
ATOM     34  H   UNL     1      13.683   6.165  -0.867  0.00  0.00    +0.210 HD
ENDBRANCH  27  33
BRANCH  26  35
ATOM     35  O   UNL     1      11.775   5.396   0.682  0.00  0.00    -0.383 OA
ATOM     36  H   UNL     1      11.343   5.453   1.545  0.00  0.00    +0.210 HD
ENDBRANCH  26  35
BRANCH  29  37
ATOM     37  C   UNL     1       8.830   6.671  -3.951  0.00  0.00    +0.190 C 
BRANCH  37  38
ATOM     38  O   UNL     1       7.565   6.021  -4.089  0.00  0.00    -0.392 OA
ATOM     39  H   UNL     1       6.992   6.415  -4.760  0.00  0.00    +0.210 HD
ENDBRANCH  37  38
ENDBRANCH  29  37
ENDBRANCH  24  25
ENDBRANCH   6  24
TORSDOF 9
