REMARK  Name = ZINC46588122
REMARK  6 active torsions:
REMARK  status: ('A' for Active; 'I' for Inactive)
REMARK    1  A    between atoms: C_1  and  C_2
REMARK    2  A    between atoms: N_4  and  C_5
REMARK    3  A    between atoms: C_9  and  N_11
REMARK    4  A    between atoms: C_15  and  S_17
REMARK    5  A    between atoms: S_17  and  C_18
REMARK    6  A    between atoms: C_18  and  C_19
REMARK                            x       y       z     vdW  Elec       q    Type
REMARK                         _______ _______ _______ _____ _____    ______ ____
ROOT
ATOM      1  S   UNL     1      -0.717 -10.208  -4.868  0.00  0.00    -0.089 S 
ENDROOT
BRANCH   1   6
ATOM      2  N   UNL     1       0.111  -4.595  -3.678  0.00  0.00    -0.292 N 
ATOM      3  C   UNL     1      -0.085  -5.971  -3.720  0.00  0.00    +0.187 A 
ATOM      4  N   UNL     1      -0.180  -6.832  -2.727  0.00  0.00    -0.125 NA
ATOM      5  N   UNL     1      -0.377  -8.167  -2.994  0.00  0.00    -0.133 NA
ATOM      6  C   UNL     1      -0.470  -8.579  -4.245  0.00  0.00    +0.160 A 
ATOM      7  S   UNL     1      -0.284  -7.042  -5.136  0.00  0.00    -0.024 S 
ATOM      8  H   UNL     1       0.224  -4.095  -4.501  0.00  0.00    +0.154 HD
BRANCH   2  13
ATOM      9  C   UNL     1       0.697  -3.907  -0.111  0.00  0.00    +0.035 A 
ATOM     10  C   UNL     1       0.210  -2.610  -0.013  0.00  0.00    +0.023 A 
ATOM     11  C   UNL     1      -0.307  -1.978  -1.128  0.00  0.00    +0.004 A 
ATOM     12  C   UNL     1      -0.340  -2.634  -2.344  0.00  0.00    +0.023 A 
ATOM     13  C   UNL     1       0.145  -3.932  -2.448  0.00  0.00    +0.035 A 
ATOM     14  C   UNL     1       0.670  -4.567  -1.331  0.00  0.00    +0.046 A 
BRANCH   9  18
ATOM     15  C   UNL     1       2.886  -6.004   2.122  0.00  0.00    +0.109 C 
ATOM     16  C   UNL     1       2.267  -5.385   0.895  0.00  0.00    +0.214 C 
ATOM     17  O   UNL     1       2.711  -5.642  -0.204  0.00  0.00    -0.276 OA
ATOM     18  N   UNL     1       1.219  -4.546   1.019  0.00  0.00    -0.286 N 
ATOM     19  H   UNL     1       0.828  -4.385   1.892  0.00  0.00    +0.155 HD
ENDBRANCH   9  18
ENDBRANCH   2  13
ENDBRANCH   1   6
BRANCH   1  20
ATOM     20  C   UNL     1      -0.822 -11.237  -3.378  0.00  0.00    +0.152 C 
BRANCH  20  21
ATOM     21  C   UNL     1      -1.036 -12.675  -3.774  0.00  0.00    +0.143 A 
ATOM     22  N   UNL     1      -2.269 -13.129  -3.919  0.00  0.00    -0.216 NA
ATOM     23  C   UNL     1      -2.523 -14.380  -4.265  0.00  0.00    +0.128 A 
ATOM     24  C   UNL     1      -1.436 -15.270  -4.490  0.00  0.00    +0.051 A 
ATOM     25  C   UNL     1      -1.479 -16.684  -4.878  0.00  0.00    -0.025 A 
ATOM     26  C   UNL     1      -0.293 -17.308  -5.024  0.00  0.00    -0.004 A 
ATOM     27  S   UNL     1       0.931 -16.072  -4.672  0.00  0.00    -0.073 S 
ATOM     28  C   UNL     1      -0.154 -14.715  -4.318  0.00  0.00    +0.114 A 
ATOM     29  N   UNL     1       0.011 -13.452  -3.975  0.00  0.00    -0.224 NA
ATOM     30  C   UNL     1      -0.046 -18.738  -5.391  0.00  0.00    +0.043 C 
ATOM     31  C   UNL     1      -0.885 -19.097  -6.625  0.00  0.00    +0.005 C 
ATOM     32  C   UNL     1      -2.242 -19.608  -6.153  0.00  0.00    +0.001 C 
ATOM     33  C   UNL     1      -2.650 -18.892  -4.866  0.00  0.00    +0.005 C 
ATOM     34  C   UNL     1      -2.808 -17.397  -5.113  0.00  0.00    +0.037 C 
ATOM     35  N   UNL     1      -3.828 -14.818  -4.405  0.00  0.00    -0.343 N 
ATOM     36  H   UNL     1      -4.028 -15.568  -4.987  0.00  0.00    +0.144 HD
ATOM     37  H   UNL     1      -4.543 -14.374  -3.922  0.00  0.00    +0.144 HD
ENDBRANCH  20  21
ENDBRANCH   1  20
TORSDOF 5
