REMARK  Name = ZINC26024348
REMARK  5 active torsions:
REMARK  status: ('A' for Active; 'I' for Inactive)
REMARK    1  A    between atoms: N_4  and  C_8
REMARK    2  A    between atoms: C_8  and  C_9
REMARK    3  A    between atoms: C_12  and  C_14
REMARK    4  A    between atoms: N_16  and  C_17
REMARK    5  A    between atoms: C_20  and  N_24
REMARK                            x       y       z     vdW  Elec       q    Type
REMARK                         _______ _______ _______ _____ _____    ______ ____
ROOT
ATOM      1  C   UNL     1      -3.601   1.690   0.130  0.00  0.00    +0.284 C 
ATOM      2  O   UNL     1      -3.622   2.907   0.137  0.00  0.00    -0.266 OA
ATOM      3  N   UNL     1      -2.428   1.037   0.019  0.00  0.00    -0.279 N 
ATOM      4  H   UNL     1      -2.415  -0.059  -0.074  0.00  0.00    +0.155 HD
ENDROOT
BRANCH   3   5
ATOM      5  C   UNL     1      -1.224   1.753   0.023  0.00  0.00    +0.037 A 
ATOM      6  C   UNL     1      -1.109   2.911   0.780  0.00  0.00    +0.045 A 
ATOM      7  C   UNL     1       0.080   3.615   0.789  0.00  0.00    +0.065 A 
ATOM      8  C   UNL     1       1.159   3.167   0.036  0.00  0.00    +0.062 A 
ATOM      9  C   UNL     1       1.041   2.011  -0.726  0.00  0.00    +0.065 A 
ATOM     10  C   UNL     1      -0.149   1.308  -0.734  0.00  0.00    +0.045 A 
ATOM     11 CL   UNL     1       2.387   1.451  -1.667  0.00  0.00    -0.082 Cl
ATOM     12 CL   UNL     1       0.227   5.060   1.741  0.00  0.00    -0.082 Cl
BRANCH   8  13
ATOM     13  N   UNL     1       2.364   3.881   0.044  0.00  0.00    -0.356 N 
ATOM     14  H   UNL     1       3.217   3.526  -0.552  0.00  0.00    +0.142 HD
ATOM     15  H   UNL     1       2.457   4.796   0.647  0.00  0.00    +0.142 HD
ENDBRANCH   8  13
ENDBRANCH   3   5
BRANCH   1  19
ATOM     16  C   UNL     1      -6.262  -0.742   0.365  0.00  0.00    +0.126 A 
ATOM     17  C   UNL     1      -6.998   0.389   0.438  0.00  0.00    +0.047 A 
ATOM     18  C   UNL     1      -6.104   1.468   0.360  0.00  0.00    +0.055 A 
ATOM     19  C   UNL     1      -4.853   0.935   0.242  0.00  0.00    +0.190 A 
ATOM     20  O   UNL     1      -4.971  -0.409   0.242  0.00  0.00    -0.453 OA
BRANCH  16  21
ATOM     21  C   UNL     1      -6.806  -2.147   0.409  0.00  0.00    +0.199 C 
BRANCH  21  25
ATOM     22  C   UNL     1      -7.671  -3.440  -3.505  0.00  0.00    +0.007 A 
ATOM     23  C   UNL     1      -6.407  -3.653  -2.938  0.00  0.00    +0.018 A 
ATOM     24  C   UNL     1      -6.152  -3.229  -1.678  0.00  0.00    +0.089 A 
ATOM     25  N   UNL     1      -7.108  -2.597  -0.952  0.00  0.00    -0.308 N 
ATOM     26  C   UNL     1      -8.334  -2.382  -1.467  0.00  0.00    +0.252 A 
ATOM     27  O   UNL     1      -9.185  -1.816  -0.800  0.00  0.00    -0.268 OA
ATOM     28  C   UNL     1      -8.632  -2.805  -2.774  0.00  0.00    +0.070 A 
ENDBRANCH  21  25
ENDBRANCH  16  21
ENDBRANCH   1  19
TORSDOF 5
