REMARK  Name = ZINC66056578
REMARK  8 active torsions:
REMARK  status: ('A' for Active; 'I' for Inactive)
REMARK    1  A    between atoms: C_1  and  C_2
REMARK    2  A    between atoms: C_4  and  C_24
REMARK    3  A    between atoms: C_6  and  N_8
REMARK    4  A    between atoms: C_9  and  C_11
REMARK    5  A    between atoms: C_11  and  O_12
REMARK    6  A    between atoms: O_12  and  C_13
REMARK    7  A    between atoms: C_16  and  C_20
REMARK    8  A    between atoms: N_22  and  N_23
REMARK                            x       y       z     vdW  Elec       q    Type
REMARK                         _______ _______ _______ _____ _____    ______ ____
ROOT
ATOM      1  O   UNL     1       0.367  -1.982   5.945  0.00  0.00    -0.482 OA
ENDROOT
BRANCH   1   2
ATOM      2  C   UNL     1       0.489  -2.512   7.188  0.00  0.00    +0.135 A 
ATOM      3  C   UNL     1       0.530  -3.892   7.353  0.00  0.00    +0.047 A 
ATOM      4  C   UNL     1       0.653  -4.434   8.612  0.00  0.00    +0.017 A 
ATOM      5  C   UNL     1       0.738  -3.596   9.727  0.00  0.00    +0.039 A 
ATOM      6  C   UNL     1       0.698  -2.209   9.559  0.00  0.00    +0.032 A 
ATOM      7  C   UNL     1       0.579  -1.674   8.294  0.00  0.00    +0.060 A 
ATOM      8 BR   UNL     1       0.532   0.202   8.063  0.00  0.00    -0.046 Br
BRANCH   5   9
ATOM      9  C   UNL     1       0.870  -4.173  11.079  0.00  0.00    +0.257 C 
ATOM     10  O   UNL     1       0.905  -5.380  11.224  0.00  0.00    -0.269 OA
ATOM     11  N   UNL     1       0.952  -3.363  12.153  0.00  0.00    -0.250 N 
ATOM     12  H   UNL     1       0.924  -2.400  12.037  0.00  0.00    +0.169 HD
BRANCH  11  13
ATOM     13  N   UNL     1       1.074  -3.897  13.404  0.00  0.00    -0.254 NA
ATOM     14  H   UNL     1       1.874  -4.509  13.460  0.00  0.00    +0.140 HD
ATOM     15  H   UNL     1       1.123  -3.172  14.104  0.00  0.00    +0.140 HD
ENDBRANCH  11  13
ENDBRANCH   5   9
ENDBRANCH   1   2
BRANCH   1  16
ATOM     16  C   UNL     1       0.280  -2.900   4.854  0.00  0.00    +0.324 C 
BRANCH  16  18
ATOM     17  N   UNL     1       0.052  -2.797   2.393  0.00  0.00    -0.283 N 
ATOM     18  C   UNL     1       0.150  -2.134   3.562  0.00  0.00    +0.255 C 
ATOM     19  O   UNL     1       0.134  -0.922   3.575  0.00  0.00    -0.272 OA
ATOM     20  H   UNL     1      -0.012  -3.765   2.388  0.00  0.00    +0.155 HD
BRANCH  17  26
ATOM     21  C   UNL     1      -1.512  -2.365  -2.248  0.00  0.00    +0.044 C 
ATOM     22  C   UNL     1      -0.707  -1.857  -1.080  0.00  0.00    -0.048 A 
ATOM     23  C   UNL     1       0.025  -0.690  -1.201  0.00  0.00    +0.006 A 
ATOM     24  C   UNL     1       0.765  -0.220  -0.131  0.00  0.00    -0.048 A 
ATOM     25  C   UNL     1       0.776  -0.917   1.061  0.00  0.00    +0.026 A 
ATOM     26  C   UNL     1       0.043  -2.089   1.186  0.00  0.00    +0.034 A 
ATOM     27  C   UNL     1      -0.704  -2.555   0.112  0.00  0.00    +0.026 A 
ATOM     28  C   UNL     1       1.561   1.052  -0.268  0.00  0.00    +0.044 C 
ENDBRANCH  17  26
ENDBRANCH  16  18
ENDBRANCH   1  16
TORSDOF 6
