REMARK  Name = ZINC09746196
REMARK  9 active torsions:
REMARK  status: ('A' for Active; 'I' for Inactive)
REMARK    1  A    between atoms: C_1  and  C_2
REMARK    2  A    between atoms: C_2  and  O_3
REMARK    3  A    between atoms: O_3  and  C_4
REMARK    4  A    between atoms: C_9  and  N_10
REMARK    5  A    between atoms: C_11  and  C_13
REMARK    6  A    between atoms: C_13  and  C_15
REMARK    7  A    between atoms: C_13  and  S_21
REMARK    8  A    between atoms: S_21  and  C_22
REMARK    9  A    between atoms: C_28  and  N_30
REMARK                            x       y       z     vdW  Elec       q    Type
REMARK                         _______ _______ _______ _____ _____    ______ ____
ROOT
ATOM      1  C   UNL     1      -0.778   4.023   0.045  0.00  0.00    +0.170 C 
ENDROOT
BRANCH   1   2
ATOM      2  C   UNL     1      -1.344   3.497   1.339  0.00  0.00    -0.025 A 
ATOM      3  C   UNL     1      -0.922   4.027   2.544  0.00  0.00    +0.005 A 
ATOM      4  C   UNL     1      -1.444   3.548   3.731  0.00  0.00    +0.000 A 
ATOM      5  C   UNL     1      -2.382   2.533   3.713  0.00  0.00    +0.000 A 
ATOM      6  C   UNL     1      -2.800   1.999   2.509  0.00  0.00    +0.000 A 
ATOM      7  C   UNL     1      -2.281   2.481   1.322  0.00  0.00    +0.005 A 
ENDBRANCH   1   2
BRANCH   1   9
ATOM      8  N   UNL     1      -2.312   5.889  -0.491  0.00  0.00    -0.281 N 
ATOM      9  C   UNL     1      -1.091   5.492  -0.080  0.00  0.00    +0.235 C 
ATOM     10  O   UNL     1      -0.244   6.317   0.190  0.00  0.00    -0.274 OA
ATOM     11  H   UNL     1      -2.962   5.231  -0.784  0.00  0.00    +0.155 HD
BRANCH   8  17
ATOM     12  C   UNL     1      -3.632   7.726  -1.352  0.00  0.00    +0.142 A 
ATOM     13  C   UNL     1      -3.954   9.074  -1.353  0.00  0.00    +0.047 A 
ATOM     14  C   UNL     1      -3.291   9.943  -0.507  0.00  0.00    +0.004 A 
ATOM     15  C   UNL     1      -2.307   9.472   0.342  0.00  0.00    +0.002 A 
ATOM     16  C   UNL     1      -1.985   8.128   0.354  0.00  0.00    +0.027 A 
ATOM     17  C   UNL     1      -2.641   7.251  -0.497  0.00  0.00    +0.076 A 
BRANCH  12  18
ATOM     18  O   UNL     1      -4.283   6.869  -2.184  0.00  0.00    -0.490 OA
BRANCH  18  20
ATOM     19  C   UNL     1      -5.904   6.320  -3.890  0.00  0.00    +0.048 C 
ATOM     20  C   UNL     1      -5.288   7.427  -3.033  0.00  0.00    +0.226 C 
ENDBRANCH  18  20
ENDBRANCH  12  18
ENDBRANCH   8  17
ENDBRANCH   1   9
BRANCH   1  21
ATOM     21  S   UNL     1       1.016   3.785   0.030  0.00  0.00    -0.070 S 
BRANCH  21  22
ATOM     22  C   UNL     1       1.091   2.025   0.034  0.00  0.00    +0.172 A 
ATOM     23  N   UNL     1       2.305   1.408   0.024  0.00  0.00    -0.302 N 
ATOM     24  H   UNL     1       3.117   1.939   0.016  0.00  0.00    +0.171 HD
ATOM     25  C   UNL     1       2.382   0.061   0.027  0.00  0.00    +0.254 A 
ATOM     26  O   UNL     1       3.466  -0.499   0.019  0.00  0.00    -0.268 OA
ATOM     27  C   UNL     1       1.198  -0.682   0.039  0.00  0.00    +0.113 A 
ATOM     28  C   UNL     1      -0.015  -0.007   0.048  0.00  0.00    +0.124 A 
ATOM     29  N   UNL     1      -0.029   1.331   0.045  0.00  0.00    -0.209 NA
BRANCH  28  30
ATOM     30  N   UNL     1      -1.201  -0.712   0.060  0.00  0.00    -0.343 N 
ATOM     31  H   UNL     1      -2.047  -0.238   0.066  0.00  0.00    +0.144 HD
ATOM     32  H   UNL     1      -1.189  -1.682   0.062  0.00  0.00    +0.144 HD
ENDBRANCH  28  30
ENDBRANCH  21  22
ENDBRANCH   1  21
TORSDOF 8
