REMARK  Name = ZINC10150111
REMARK  13 active torsions:
REMARK  status: ('A' for Active; 'I' for Inactive)
REMARK    1  A    between atoms: C_1  and  C_2
REMARK    2  A    between atoms: C_2  and  C_3
REMARK    3  A    between atoms: C_4  and  C_29
REMARK    4  A    between atoms: C_6  and  N_11
REMARK    5  A    between atoms: C_7  and  C_8
REMARK    6  A    between atoms: N_11  and  C_12
REMARK    7  A    between atoms: C_12  and  N_14
REMARK    8  A    between atoms: C_15  and  C_17
REMARK    9  A    between atoms: C_21  and  O_23
REMARK   10  A    between atoms: O_23  and  C_24
REMARK   11  A    between atoms: C_24  and  C_26
REMARK   12  A    between atoms: C_24  and  C_27
REMARK   13  A    between atoms: C_27  and  C_28
REMARK                            x       y       z     vdW  Elec       q    Type
REMARK                         _______ _______ _______ _____ _____    ______ ____
ROOT
ATOM      1  C   UNL     1       2.284   1.296  -0.687  0.00  0.00    +0.141 C 
ATOM      2  S   UNL     1       2.345  -0.396  -0.434  0.00  0.00    -0.018 S 
ENDROOT
BRANCH   1   3
ATOM      3  N   UNL     1       1.099   1.938  -0.665  0.00  0.00    -0.264 N 
ATOM      4  C   UNL     1      -0.038   1.248  -0.443  0.00  0.00    +0.250 C 
ATOM      5  O   UNL     1       0.006   0.047  -0.264  0.00  0.00    -0.270 OA
ATOM      6  H   UNL     1       1.064   2.897  -0.808  0.00  0.00    +0.157 HD
BRANCH   4   7
ATOM      7  C   UNL     1      -1.337   1.952  -0.425  0.00  0.00    +0.041 A 
ATOM      8  C   UNL     1      -1.390   3.333  -0.625  0.00  0.00    +0.013 A 
ATOM      9  C   UNL     1      -2.605   3.985  -0.613  0.00  0.00    +0.004 A 
ATOM     10  C   UNL     1      -3.772   3.277  -0.391  0.00  0.00    +0.046 A 
ATOM     11  C   UNL     1      -3.730   1.905  -0.185  0.00  0.00    +0.122 A 
ATOM     12  C   UNL     1      -2.516   1.239  -0.201  0.00  0.00    +0.058 A 
BRANCH  11  13
ATOM     13  O   UNL     1      -4.880   1.215   0.031  0.00  0.00    -0.489 OA
BRANCH  13  14
ATOM     14  C   UNL     1      -6.082   1.979   0.152  0.00  0.00    +0.170 C 
ATOM     15  C   UNL     1      -6.649   2.262  -1.241  0.00  0.00    +0.052 C 
BRANCH  14  16
ATOM     16  C   UNL     1      -7.108   1.190   0.969  0.00  0.00    +0.041 C 
ATOM     17  C   UNL     1      -6.594   1.015   2.400  0.00  0.00    +0.007 C 
ENDBRANCH  14  16
ENDBRANCH  13  14
ENDBRANCH  11  13
ENDBRANCH   4   7
ENDBRANCH   1   3
BRANCH   1  18
ATOM     18  N   UNL     1       3.420   1.986  -0.909  0.00  0.00    -0.291 N 
ATOM     19  H   UNL     1       3.385   2.944  -1.052  0.00  0.00    +0.154 HD
BRANCH  18  23
ATOM     20  C   UNL     1       7.011   0.930  -1.113  0.00  0.00    -0.024 A 
ATOM     21  C   UNL     1       6.722  -0.363  -0.885  0.00  0.00    -0.008 A 
ATOM     22  S   UNL     1       4.952  -0.361  -0.698  0.00  0.00    -0.078 S 
ATOM     23  C   UNL     1       4.638   1.325  -0.932  0.00  0.00    +0.084 A 
ATOM     24  C   UNL     1       5.905   1.857  -1.143  0.00  0.00    +0.068 A 
ATOM     25  C   UNL     1       7.670  -1.532  -0.802  0.00  0.00    +0.052 C 
BRANCH  24  26
ATOM     26  C   UNL     1       6.107   3.289  -1.383  0.00  0.00    +0.244 C 
ATOM     27  O   UNL     1       6.298   4.043  -0.447  0.00  0.00    -0.270 OA
ATOM     28  N   UNL     1       6.083   3.770  -2.642  0.00  0.00    -0.325 N 
ATOM     29  H   UNL     1       5.932   3.170  -3.388  0.00  0.00    +0.145 HD
ATOM     30  H   UNL     1       6.218   4.718  -2.801  0.00  0.00    +0.145 HD
ENDBRANCH  24  26
BRANCH  20  32
ATOM     31  C   UNL     1       9.054   1.767   0.017  0.00  0.00    +0.009 C 
ATOM     32  C   UNL     1       8.429   1.392  -1.329  0.00  0.00    +0.033 C 
ENDBRANCH  20  32
ENDBRANCH  18  23
ENDBRANCH   1  18
TORSDOF 9
