REMARK  Name = ZINC35828116
REMARK  11 active torsions:
REMARK  status: ('A' for Active; 'I' for Inactive)
REMARK    1  A    between atoms: C_1  and  C_2
REMARK    2  A    between atoms: C_4  and  C_39
REMARK    3  A    between atoms: C_9  and  C_23
REMARK    4  A    between atoms: C_12  and  C_15
REMARK    5  A    between atoms: C_15  and  C_16
REMARK    6  A    between atoms: C_19  and  O_22
REMARK    7  A    between atoms: N_25  and  C_26
REMARK    8  A    between atoms: C_28  and  O_34
REMARK    9  A    between atoms: C_31  and  O_32
REMARK   10  A    between atoms: O_32  and  C_33
REMARK   11  A    between atoms: O_34  and  C_35
REMARK                            x       y       z     vdW  Elec       q    Type
REMARK                         _______ _______ _______ _____ _____    ______ ____
ROOT
ATOM      1  C   UNL     1       0.074   1.571   0.072  0.00  0.00    +0.044 C 
ATOM      2  C   UNL     1       0.075   0.065   0.042  0.00  0.00    -0.050 A 
ATOM      3  C   UNL     1       0.080  -0.604  -1.169  0.00  0.00    +0.008 A 
ATOM      4  C   UNL     1       0.082  -1.983  -1.203  0.00  0.00    -0.029 A 
ATOM      5  C   UNL     1       0.079  -2.713  -0.016  0.00  0.00    +0.042 A 
ATOM      6  C   UNL     1       0.072  -2.030   1.195  0.00  0.00    +0.004 A 
ATOM      7  C   UNL     1       0.077  -0.653   1.225  0.00  0.00    +0.011 A 
ATOM      8  C   UNL     1       0.066  -3.086   2.268  0.00  0.00    +0.135 C 
ATOM      9  C   UNL     1       1.299  -2.962   3.170  0.00  0.00    +0.110 C 
ATOM     10  C   UNL     1       0.729  -2.744   4.593  0.00  0.00    +0.034 C 
ATOM     11  C   UNL     1      -0.697  -2.202   4.316  0.00  0.00    +0.060 C 
ATOM     12  N   UNL     1      -1.129  -2.971   3.119  0.00  0.00    -0.296 NA
ATOM     13  C   UNL     1       0.074  -4.394   1.519  0.00  0.00    +0.243 C 
ATOM     14  O   UNL     1       0.075  -5.505   2.006  0.00  0.00    -0.273 OA
ATOM     15  N   UNL     1       0.080  -4.091   0.208  0.00  0.00    -0.283 N 
ATOM     16  C   UNL     1       0.088  -2.702  -2.527  0.00  0.00    +0.045 C 
ATOM     17  H   UNL     1      -1.875  -2.494   2.633  0.00  0.00    +0.123 HD
ATOM     18  H   UNL     1       0.084  -4.755  -0.500  0.00  0.00    +0.155 HD
ENDROOT
BRANCH   9  19
ATOM     19  C   UNL     1       2.115  -4.228   3.119  0.00  0.00    +0.223 C 
ATOM     20  O   UNL     1       1.954  -5.088   3.959  0.00  0.00    -0.275 OA
ATOM     21  N   UNL     1       3.024  -4.404   2.139  0.00  0.00    -0.282 N 
ATOM     22  H   UNL     1       3.194  -3.693   1.502  0.00  0.00    +0.155 HD
BRANCH  21  23
ATOM     23  C   UNL     1       3.723  -5.615   2.041  0.00  0.00    +0.079 A 
ATOM     24  C   UNL     1       3.905  -6.404   3.167  0.00  0.00    +0.072 A 
ATOM     25  C   UNL     1       4.597  -7.601   3.067  0.00  0.00    +0.122 A 
ATOM     26  C   UNL     1       5.106  -8.010   1.842  0.00  0.00    +0.049 A 
ATOM     27  C   UNL     1       4.925  -7.224   0.719  0.00  0.00    +0.051 A 
ATOM     28  C   UNL     1       4.229  -6.030   0.812  0.00  0.00    +0.141 A 
BRANCH  28  29
ATOM     29  O   UNL     1       4.047  -5.261  -0.295  0.00  0.00    -0.493 OA
ATOM     30  C   UNL     1       4.594  -5.749  -1.522  0.00  0.00    +0.277 C 
ENDBRANCH  28  29
BRANCH  25  31
ATOM     31  O   UNL     1       4.777  -8.376   4.170  0.00  0.00    -0.495 OA
ATOM     32  C   UNL     1       5.499  -9.597   3.994  0.00  0.00    +0.277 C 
ENDBRANCH  25  31
ENDBRANCH  21  23
ENDBRANCH   9  19
BRANCH  11  33
ATOM     33  C   UNL     1      -1.620  -2.481   5.503  0.00  0.00    +0.053 C 
BRANCH  33  34
ATOM     34  C   UNL     1      -2.961  -1.838   5.260  0.00  0.00    -0.046 A 
ATOM     35  C   UNL     1      -3.190  -0.540   5.676  0.00  0.00    +0.007 A 
ATOM     36  C   UNL     1      -4.418   0.051   5.454  0.00  0.00    +0.045 A 
ATOM     37  C   UNL     1      -5.423  -0.658   4.812  0.00  0.00    +0.117 A 
ATOM     38  C   UNL     1      -5.190  -1.960   4.394  0.00  0.00    +0.045 A 
ATOM     39  C   UNL     1      -3.958  -2.546   4.614  0.00  0.00    +0.007 A 
BRANCH  37  40
ATOM     40  O   UNL     1      -6.632  -0.079   4.593  0.00  0.00    -0.507 OA
ATOM     41  H   UNL     1      -6.696   0.391   3.750  0.00  0.00    +0.292 HD
ENDBRANCH  37  40
ENDBRANCH  33  34
ENDBRANCH  11  33
TORSDOF 7
