REMARK  Name = ZINC58994688
REMARK  8 active torsions:
REMARK  status: ('A' for Active; 'I' for Inactive)
REMARK    1  A    between atoms: C_1  and  C_2
REMARK    2  A    between atoms: C_10  and  C_11
REMARK    3  A    between atoms: C_11  and  C_12
REMARK    4  A    between atoms: C_11  and  N_13
REMARK    5  A    between atoms: C_14  and  C_16
REMARK    6  A    between atoms: C_17  and  C_18
REMARK    7  A    between atoms: C_21  and  S_24
REMARK    8  A    between atoms: S_24  and  N_27
REMARK                            x       y       z     vdW  Elec       q    Type
REMARK                         _______ _______ _______ _____ _____    ______ ____
ROOT
ATOM      1  N   UNL     1      -0.928  -1.145   3.277  0.00  0.00    -0.302 N 
ATOM      2  C   UNL     1      -1.473  -0.636   4.399  0.00  0.00    +0.237 C 
ATOM      3  O   UNL     1      -1.169   0.482   4.771  0.00  0.00    -0.271 OA
ATOM      4  H   UNL     1      -1.171  -2.037   2.981  0.00  0.00    +0.150 HD
ENDROOT
BRANCH   1   5
ATOM      5  C   UNL     1       0.030  -0.352   2.503  0.00  0.00    +0.137 C 
ATOM      6  C   UNL     1       1.432  -0.532   3.090  0.00  0.00    +0.036 C 
BRANCH   5  16
ATOM      7  C   UNL     1      -0.018   1.503   0.010  0.00  0.00    +0.048 C 
ATOM      8  C   UNL     1       0.002  -0.004   0.002  0.00  0.00    +0.000 A 
ATOM      9  C   UNL     1       0.009  -0.879  -1.177  0.00  0.00    +0.023 A 
ATOM     10  C   UNL     1       0.000  -0.660  -2.553  0.00  0.00    +0.012 A 
ATOM     11  C   UNL     1       0.011  -1.726  -3.409  0.00  0.00    +0.001 A 
ATOM     12  C   UNL     1       0.031  -3.023  -2.916  0.00  0.00    +0.004 A 
ATOM     13  C   UNL     1       0.040  -3.259  -1.558  0.00  0.00    +0.047 A 
ATOM     14  C   UNL     1       0.029  -2.190  -0.671  0.00  0.00    +0.136 A 
ATOM     15  O   UNL     1       0.033  -2.100   0.674  0.00  0.00    -0.458 OA
ATOM     16  C   UNL     1       0.023  -0.814   1.069  0.00  0.00    +0.129 A 
ENDBRANCH   5  16
ENDBRANCH   1   5
BRANCH   2  17
ATOM     17  C   UNL     1      -2.432  -1.429   5.173  0.00  0.00    +0.068 C 
ATOM     18  C   UNL     1      -2.977  -0.920   6.295  0.00  0.00    +0.013 C 
BRANCH  18  19
ATOM     19  C   UNL     1      -3.940  -1.717   7.073  0.00  0.00    -0.025 A 
ATOM     20  C   UNL     1      -4.288  -3.004   6.652  0.00  0.00    +0.010 A 
ATOM     21  C   UNL     1      -5.191  -3.744   7.386  0.00  0.00    +0.029 A 
ATOM     22  C   UNL     1      -5.753  -3.216   8.535  0.00  0.00    +0.105 A 
ATOM     23  C   UNL     1      -5.414  -1.942   8.957  0.00  0.00    +0.029 A 
ATOM     24  C   UNL     1      -4.508  -1.192   8.238  0.00  0.00    +0.010 A 
BRANCH  22  25
ATOM     25  S   UNL     1      -6.906  -4.170   9.465  0.00  0.00    +0.056 S 
ATOM     26  O   UNL     1      -7.701  -3.246  10.196  0.00  0.00    -0.153 OA
ATOM     27  O   UNL     1      -7.470  -5.115   8.566  0.00  0.00    -0.153 OA
BRANCH  25  28
ATOM     28  N   UNL     1      -6.040  -5.035  10.580  0.00  0.00    -0.204 NA
ATOM     29  H   UNL     1      -6.442  -5.268  11.432  0.00  0.00    +0.144 HD
ATOM     30  H   UNL     1      -5.131  -5.309  10.381  0.00  0.00    +0.144 HD
ENDBRANCH  25  28
ENDBRANCH  22  25
ENDBRANCH  18  19
ENDBRANCH   2  17
TORSDOF 6
