REMARK  Name = ZINC05976497
REMARK  11 active torsions:
REMARK  status: ('A' for Active; 'I' for Inactive)
REMARK    1  A    between atoms: C_1  and  C_2
REMARK    2  A    between atoms: C_2  and  C_3
REMARK    3  A    between atoms: C_2  and  C_4
REMARK    4  A    between atoms: C_2  and  N_5
REMARK    5  A    between atoms: C_10  and  C_21
REMARK    6  A    between atoms: C_12  and  C_17
REMARK    7  A    between atoms: C_12  and  C_19
REMARK    8  A    between atoms: C_17  and  O_18
REMARK    9  A    between atoms: C_24  and  N_27
REMARK   10  A    between atoms: N_27  and  C_28
REMARK   11  A    between atoms: N_27  and  C_29
REMARK                            x       y       z     vdW  Elec       q    Type
REMARK                         _______ _______ _______ _____ _____    ______ ____
ROOT
ATOM      1  N   UNL     1       0.144   3.686  -0.287  0.00  0.00    -0.236 N 
ATOM      2  C   UNL     1       1.309   3.325   0.328  0.00  0.00    +0.225 C 
ATOM      3  O   UNL     1       2.030   4.033   0.998  0.00  0.00    -0.275 OA
ATOM      4  C   UNL     1       1.516   1.870   0.005  0.00  0.00    +0.077 C 
ATOM      5  C   UNL     1       1.937   0.914   1.127  0.00  0.00    -0.027 C 
ATOM      6  C   UNL     1       0.004   0.014  -0.016  0.00  0.00    +0.071 C 
ATOM      7  C   UNL     1      -0.015   1.481   0.009  0.00  0.00    +0.088 C 
ATOM      8  C   UNL     1      -0.613   2.606  -0.668  0.00  0.00    +0.225 C 
ATOM      9  O   UNL     1      -1.572   2.599  -1.409  0.00  0.00    -0.275 OA
ATOM     10  N   UNL     1       1.223  -0.344   0.767  0.00  0.00    +0.397 N 
ATOM     11  H   UNL     1       0.952  -0.846   1.620  0.00  0.00    -0.083 HD
ATOM     12  H   UNL     1       1.837  -0.941   0.199  0.00  0.00    -0.083 HD
ENDROOT
BRANCH   5  13
ATOM     13  C   UNL     1       3.430   0.709   1.126  0.00  0.00    -0.060 A 
ATOM     14  C   UNL     1       4.015  -0.098   0.168  0.00  0.00    +0.004 A 
ATOM     15  C   UNL     1       5.383  -0.284   0.161  0.00  0.00    +0.023 A 
ATOM     16  C   UNL     1       6.171   0.333   1.124  0.00  0.00    +0.029 A 
ATOM     17  C   UNL     1       5.580   1.138   2.089  0.00  0.00    +0.023 A 
ATOM     18  C   UNL     1       4.211   1.324   2.087  0.00  0.00    +0.004 A 
BRANCH  16  19
ATOM     19  N   UNL     1       7.555   0.143   1.123  0.00  0.00    -0.336 N 
ATOM     20  C   UNL     1       8.398   0.891   2.059  0.00  0.00    +0.129 C 
ATOM     21  C   UNL     1       8.164  -0.804   0.185  0.00  0.00    +0.129 C 
ENDBRANCH  16  19
ENDBRANCH   5  13
BRANCH   1  23
ATOM     22  C   UNL     1       0.823   6.013   0.034  0.00  0.00    +0.031 C 
ATOM     23  C   UNL     1      -0.254   5.077  -0.517  0.00  0.00    +0.036 C 
ATOM     24  C   UNL     1      -0.422   5.318  -2.018  0.00  0.00    +0.031 C 
ATOM     25  C   UNL     1      -1.581   5.351   0.195  0.00  0.00    +0.031 C 
ENDBRANCH   1  23
BRANCH   6  26
ATOM     26  C   UNL     1      -1.233  -0.540   0.642  0.00  0.00    +0.348 C 
ATOM     27  O   UNL     1      -2.241   0.124   0.688  0.00  0.00    -0.248 OA
ATOM     28  O   UNL     1      -1.215  -1.771   1.177  0.00  0.00    -0.248 OA
ENDBRANCH   6  26
BRANCH   6  29
ATOM     29  C   UNL     1       0.119  -0.494  -1.455  0.00  0.00    +0.155 C 
BRANCH  29  30
ATOM     30  O   UNL     1       0.136  -1.923  -1.455  0.00  0.00    -0.396 OA
ATOM     31  H   UNL     1       0.207  -2.315  -2.336  0.00  0.00    +0.209 HD
ENDBRANCH  29  30
ENDBRANCH   6  29
TORSDOF 6
