REMARK  Name = ZINC52011743
REMARK  4 active torsions:
REMARK  status: ('A' for Active; 'I' for Inactive)
REMARK    1  A    between atoms: C_4  and  C_7
REMARK    2  A    between atoms: C_4  and  N_10
REMARK    3  A    between atoms: N_13  and  C_14
REMARK    4  A    between atoms: C_20  and  O_22
REMARK                            x       y       z     vdW  Elec       q    Type
REMARK                         _______ _______ _______ _____ _____    ______ ____
ROOT
ATOM      1  N   UNL     1       2.862  -0.453  -0.081  0.00  0.00    -0.284 N 
ATOM      2  C   UNL     1       3.005  -1.778   0.124  0.00  0.00    +0.301 C 
ATOM      3  O   UNL     1       2.546  -2.570  -0.676  0.00  0.00    -0.253 OA
ATOM      4  N   UNL     1       3.657  -2.224   1.216  0.00  0.00    -0.294 N 
ATOM      5  H   UNL     1       3.228   0.179   0.558  0.00  0.00    +0.151 HD
ATOM      6  H   UNL     1       4.023  -1.592   1.854  0.00  0.00    +0.151 HD
ENDROOT
BRANCH   1  10
ATOM      7  C   UNL     1      -0.019   1.526   0.010  0.00  0.00    +0.000 C 
ATOM      8  C   UNL     1       1.417   2.055  -0.000  0.00  0.00    +0.003 C 
ATOM      9  C   UNL     1       2.133   1.562  -1.259  0.00  0.00    +0.037 C 
ATOM     10  C   UNL     1       2.154   0.032  -1.268  0.00  0.00    +0.137 C 
ATOM     11  C   UNL     1       0.718  -0.497  -1.257  0.00  0.00    +0.037 C 
ATOM     12  C   UNL     1       0.002  -0.004   0.002  0.00  0.00    +0.003 C 
BRANCH  10  13
ATOM     13  C   UNL     1       2.859  -0.454  -2.507  0.00  0.00    +0.379 C 
ATOM     14  O   UNL     1       3.861  -1.142  -2.409  0.00  0.00    -0.244 OA
ATOM     15  O   UNL     1       2.428  -0.159  -3.609  0.00  0.00    -0.244 OA
ENDBRANCH  10  13
ENDBRANCH   1  10
BRANCH   4  16
ATOM     16  C   UNL     1       3.813  -3.664   1.439  0.00  0.00    +0.103 C 
ATOM     17  C   UNL     1       2.567  -4.209   2.140  0.00  0.00    +0.025 C 
ATOM     18  C   UNL     1       2.729  -5.712   2.372  0.00  0.00    +0.002 C 
ATOM     19  C   UNL     1       3.958  -5.963   3.248  0.00  0.00    +0.003 C 
ATOM     20  C   UNL     1       5.204  -5.418   2.547  0.00  0.00    +0.033 C 
ATOM     21  C   UNL     1       5.042  -3.914   2.315  0.00  0.00    +0.135 C 
BRANCH  21  22
ATOM     22  O   UNL     1       6.205  -3.405   1.660  0.00  0.00    -0.390 OA
ATOM     23  H   UNL     1       7.024  -3.530   2.159  0.00  0.00    +0.210 HD
ENDBRANCH  21  22
ENDBRANCH   4  16
TORSDOF 4
