REMARK  Name = ZINC39121062
REMARK  2 active torsions:
REMARK  status: ('A' for Active; 'I' for Inactive)
REMARK    1  A    between atoms: C_8  and  O_9
REMARK    2  A    between atoms: C_10  and  C_11
REMARK                            x       y       z     vdW  Elec       q    Type
REMARK                         _______ _______ _______ _____ _____    ______ ____
ROOT
ATOM      1  C   UNL     1      -0.018   1.501   0.010  0.00  0.00    +0.147 C 
ATOM      2  C   UNL     1       1.404   2.019  -0.001  0.00  0.00    +0.025 C 
ATOM      3  N   UNL     1       2.301   1.336  -0.793  0.00  0.00    -0.303 N 
ATOM      4  C   UNL     1       2.311  -0.063  -0.626  0.00  0.00    +0.129 C 
ATOM      5  N   UNL     1       1.095  -0.701  -0.345  0.00  0.00    -0.271 N 
ATOM      6  C   UNL     1       0.002  -0.004   0.002  0.00  0.00    +0.224 C 
ATOM      7  O   UNL     1      -1.002  -0.607   0.319  0.00  0.00    -0.275 OA
ATOM      8  C   UNL     1       3.441  -0.758  -0.734  0.00  0.00    +0.222 C 
ATOM      9  C   UNL     1       1.776   3.097   0.730  0.00  0.00    +0.115 C 
ATOM     10  H   UNL     1       2.884   1.787  -1.423  0.00  0.00    +0.153 HD
ATOM     11  H   UNL     1       1.043  -1.668  -0.402  0.00  0.00    +0.156 HD
ENDROOT
BRANCH   9  12
ATOM     12  C   UNL     1       3.107   3.546   0.693  0.00  0.00    +0.381 C 
ATOM     13  O   UNL     1       4.004   2.911  -0.062  0.00  0.00    -0.241 OA
ATOM     14  O   UNL     1       3.473   4.607   1.412  0.00  0.00    -0.241 OA
ENDBRANCH   9  12
BRANCH   8  15
ATOM     15  O   UNL     1       3.427  -2.109  -0.568  0.00  0.00    -0.511 OA
ATOM     16  H   UNL     1       4.294  -2.526  -0.665  0.00  0.00    +0.291 HD
ENDBRANCH   8  15
TORSDOF 2
