REMARK  Name = ZINC20806956
REMARK  8 active torsions:
REMARK  status: ('A' for Active; 'I' for Inactive)
REMARK    1  A    between atoms: C_1  and  C_2
REMARK    2  A    between atoms: C_5  and  C_8
REMARK    3  A    between atoms: N_9  and  N_10
REMARK    4  A    between atoms: C_14  and  S_17
REMARK    5  A    between atoms: N_15  and  N_16
REMARK    6  A    between atoms: S_17  and  C_18
REMARK    7  A    between atoms: C_18  and  C_19
REMARK    8  A    between atoms: N_21  and  C_22
REMARK                            x       y       z     vdW  Elec       q    Type
REMARK                         _______ _______ _______ _____ _____    ______ ____
ROOT
ATOM      1  N   UNL     1      -0.014   1.383   0.066  0.00  0.00    -0.204 N 
ATOM      2  C   UNL     1       0.005  -0.004   0.050  0.00  0.00    +0.254 A 
ATOM      3  N   UNL     1      -1.045  -0.789   0.060  0.00  0.00    -0.109 NA
ATOM      4  N   UNL     1      -0.595  -2.115   0.034  0.00  0.00    -0.119 NA
ATOM      5  C   UNL     1       0.717  -2.098   0.017  0.00  0.00    +0.210 A 
ATOM      6  N   UNL     1       1.121  -0.793   0.026  0.00  0.00    -0.211 N 
ATOM      7  H   UNL     1       0.932   1.946   0.064  0.00  0.00    +0.177 HD
ENDROOT
BRANCH   6   8
ATOM      8  N   UNL     1       2.415  -0.353   0.013  0.00  0.00    -0.294 N 
ATOM      9  H   UNL     1       3.242  -1.079  -0.006  0.00  0.00    +0.163 HD
ATOM     10  H   UNL     1       2.629   0.725   0.022  0.00  0.00    +0.163 HD
ENDBRANCH   6   8
BRANCH   1  12
ATOM     11  C   UNL     1      -1.253   3.366   0.099  0.00  0.00    +0.138 C 
ATOM     12  N   UNL     1      -1.236   2.067   0.084  0.00  0.00    -0.188 NA
BRANCH  11  17
ATOM     13  C   UNL     1      -6.271   6.175   0.175  0.00  0.00    +0.044 C 
ATOM     14  C   UNL     1      -4.956   5.438   0.155  0.00  0.00    -0.050 A 
ATOM     15  C   UNL     1      -3.769   6.149   0.153  0.00  0.00    +0.004 A 
ATOM     16  C   UNL     1      -2.562   5.483   0.135  0.00  0.00    +0.010 A 
ATOM     17  C   UNL     1      -2.539   4.086   0.118  0.00  0.00    -0.005 A 
ATOM     18  C   UNL     1      -3.742   3.375   0.115  0.00  0.00    +0.010 A 
ATOM     19  C   UNL     1      -4.942   4.055   0.139  0.00  0.00    +0.004 A 
ENDBRANCH  11  17
ENDBRANCH   1  12
BRANCH   5  20
ATOM     20  S   UNL     1       1.771  -3.509  -0.013  0.00  0.00    -0.075 S 
BRANCH  20  21
ATOM     21  C   UNL     1       0.624  -4.914  -0.013  0.00  0.00    +0.173 C 
BRANCH  21  22
ATOM     22  C   UNL     1       1.407  -6.202  -0.038  0.00  0.00    +0.228 C 
ATOM     23  O   UNL     1       2.619  -6.174  -0.053  0.00  0.00    -0.275 OA
ATOM     24  N   UNL     1       0.759  -7.384  -0.042  0.00  0.00    -0.284 N 
ATOM     25  H   UNL     1      -0.337  -7.411   0.047  0.00  0.00    +0.155 HD
BRANCH  24  26
ATOM     26  C   UNL     1       1.480  -8.574  -0.160  0.00  0.00    +0.041 A 
ATOM     27  C   UNL     1       2.728  -8.690   0.412  0.00  0.00    +0.024 A 
ATOM     28  C   UNL     1       3.454  -9.872   0.301  0.00  0.00    +0.002 A 
ATOM     29  C   UNL     1       2.955 -10.943  -0.375  0.00  0.00    +0.008 A 
ATOM     30  C   UNL     1       1.685 -10.866  -0.973  0.00  0.00    -0.016 A 
ATOM     31  C   UNL     1       0.934  -9.669  -0.862  0.00  0.00    +0.003 A 
ATOM     32  C   UNL     1      -0.332  -9.592  -1.464  0.00  0.00    +0.010 A 
ATOM     33  C   UNL     1      -0.825 -10.667  -2.138  0.00  0.00    +0.001 A 
ATOM     34  C   UNL     1      -0.088 -11.846  -2.244  0.00  0.00    +0.001 A 
ATOM     35  C   UNL     1       1.144 -11.955  -1.677  0.00  0.00    +0.008 A 
ENDBRANCH  24  26
ENDBRANCH  21  22
ENDBRANCH  20  21
ENDBRANCH   5  20
TORSDOF 7
