REMARK  Name = ZINC04472326
REMARK  7 active torsions:
REMARK  status: ('A' for Active; 'I' for Inactive)
REMARK    1  A    between atoms: C_1  and  C_2
REMARK    2  A    between atoms: C_2  and  N_14
REMARK    3  A    between atoms: C_3  and  C_4
REMARK    4  A    between atoms: N_6  and  C_7
REMARK    5  A    between atoms: N_14  and  N_15
REMARK    6  A    between atoms: C_16  and  C_18
REMARK    7  A    between atoms: C_23  and  O_24
REMARK                            x       y       z     vdW  Elec       q    Type
REMARK                         _______ _______ _______ _____ _____    ______ ____
ROOT
ATOM      1  C   UNL     1       0.535  -0.020   7.336  0.00  0.00    +0.062 C 
ATOM      2  C   UNL     1       0.139  -0.759   6.083  0.00  0.00    +0.024 C 
ATOM      3  C   UNL     1       0.072  -2.106   6.088  0.00  0.00    +0.087 C 
ENDROOT
BRANCH   3   4
ATOM      4  C   UNL     1       0.217  -2.818   7.301  0.00  0.00    +0.243 C 
ATOM      5  O   UNL     1       0.264  -2.215   8.358  0.00  0.00    -0.270 OA
ATOM      6  N   UNL     1       0.301  -4.163   7.288  0.00  0.00    -0.282 N 
ATOM      7  H   UNL     1       0.200  -4.647   6.453  0.00  0.00    +0.155 HD
BRANCH   6   8
ATOM      8  C   UNL     1       0.535  -4.861   8.477  0.00  0.00    +0.034 A 
ATOM      9  C   UNL     1       1.311  -6.012   8.467  0.00  0.00    +0.024 A 
ATOM     10  C   UNL     1       1.545  -6.696   9.644  0.00  0.00    +0.017 A 
ATOM     11  C   UNL     1       0.997  -6.242  10.830  0.00  0.00    +0.018 A 
ATOM     12  C   UNL     1       0.218  -5.098  10.842  0.00  0.00    +0.017 A 
ATOM     13  C   UNL     1      -0.014  -4.407   9.669  0.00  0.00    +0.024 A 
ATOM     14 BR   UNL     1       1.313  -7.185  12.439  0.00  0.00    -0.050 Br
ENDBRANCH   6   8
ENDBRANCH   3   4
BRANCH   2  15
ATOM     15  N   UNL     1      -0.153  -0.063   4.944  0.00  0.00    -0.268 N 
ATOM     16  H   UNL     1      -0.105   0.905   4.941  0.00  0.00    +0.170 HD
BRANCH  15  17
ATOM     17  N   UNL     1      -0.522  -0.750   3.779  0.00  0.00    -0.233 N 
ATOM     18  C   UNL     1      -0.810  -0.064   2.655  0.00  0.00    +0.264 C 
ATOM     19  O   UNL     1      -0.750   1.150   2.652  0.00  0.00    -0.269 OA
ATOM     20  H   UNL     1      -0.570  -1.719   3.782  0.00  0.00    +0.173 HD
BRANCH  18  21
ATOM     21  C   UNL     1      -1.198  -0.787   1.429  0.00  0.00    +0.079 A 
ATOM     22  C   UNL     1      -1.269  -2.183   1.429  0.00  0.00    +0.017 A 
ATOM     23  C   UNL     1      -1.632  -2.852   0.281  0.00  0.00    +0.001 A 
ATOM     24  C   UNL     1      -1.929  -2.148  -0.875  0.00  0.00    +0.004 A 
ATOM     25  C   UNL     1      -1.868  -0.768  -0.887  0.00  0.00    +0.046 A 
ATOM     26  C   UNL     1      -1.498  -0.079   0.258  0.00  0.00    +0.129 A 
BRANCH  26  27
ATOM     27  O   UNL     1      -1.433   1.276   0.246  0.00  0.00    -0.506 OA
ATOM     28  H   UNL     1      -0.566   1.626  -0.001  0.00  0.00    +0.292 HD
ENDBRANCH  26  27
ENDBRANCH  18  21
ENDBRANCH  15  17
ENDBRANCH   2  15
TORSDOF 6
