REMARK  Name = ZINC55682452
REMARK  5 active torsions:
REMARK  status: ('A' for Active; 'I' for Inactive)
REMARK    1  A    between atoms: C_1  and  O_2
REMARK    2  A    between atoms: O_2  and  C_3
REMARK    3  A    between atoms: C_6  and  N_10
REMARK    4  A    between atoms: N_10  and  S_11
REMARK    5  A    between atoms: S_11  and  C_14
REMARK                            x       y       z     vdW  Elec       q    Type
REMARK                         _______ _______ _______ _____ _____    ______ ____
ROOT
ATOM      1  S   UNL     1      -5.635  -2.966  -1.394  0.00  0.00    +0.088 S 
ATOM      2  O   UNL     1      -5.979  -1.736  -2.017  0.00  0.00    -0.149 OA
ATOM      3  O   UNL     1      -4.817  -3.939  -2.029  0.00  0.00    -0.149 OA
ENDROOT
BRANCH   1   4
ATOM      4  C   UNL     1      -7.152  -3.768  -0.994  0.00  0.00    +0.089 C 
ATOM      5  C   UNL     1      -7.251  -5.080  -1.137  0.00  0.00    +0.032 C 
ATOM      6  C   UNL     1      -8.531  -5.755  -0.838  0.00  0.00    -0.020 A 
ATOM      7  C   UNL     1      -8.583  -7.134  -0.643  0.00  0.00    +0.008 A 
ATOM      8  C   UNL     1      -9.790  -7.737  -0.350  0.00  0.00    +0.001 A 
ATOM      9  C   UNL     1     -10.941  -6.976  -0.250  0.00  0.00    +0.000 A 
ATOM     10  C   UNL     1     -10.895  -5.607  -0.449  0.00  0.00    +0.004 A 
ATOM     11  C   UNL     1      -9.697  -4.995  -0.750  0.00  0.00    -0.040 A 
ATOM     12  C   UNL     1      -9.635  -3.512  -1.007  0.00  0.00    +0.042 C 
ATOM     13  C   UNL     1      -8.309  -2.950  -0.489  0.00  0.00    +0.061 C 
ENDBRANCH   1   4
BRANCH   1  14
ATOM     14  N   UNL     1      -4.892  -2.582   0.035  0.00  0.00    -0.098 NA
BRANCH  14  18
ATOM     15  C   UNL     1      -1.202  -0.638   0.010  0.00  0.00    +0.190 A 
ATOM     16  C   UNL     1      -1.807  -0.963   1.216  0.00  0.00    +0.170 A 
ATOM     17  C   UNL     1      -3.031  -1.608   1.225  0.00  0.00    +0.069 A 
ATOM     18  C   UNL     1      -3.655  -1.930   0.027  0.00  0.00    +0.080 A 
ATOM     19  C   UNL     1      -3.049  -1.605  -1.180  0.00  0.00    +0.069 A 
ATOM     20  C   UNL     1      -1.828  -0.955  -1.188  0.00  0.00    +0.170 A 
ATOM     21  F   UNL     1      -1.241  -0.634  -2.362  0.00  0.00    -0.201 F 
ATOM     22  F   UNL     1      -1.201  -0.650   2.382  0.00  0.00    -0.201 F 
BRANCH  15  24
ATOM     23  C   UNL     1      -0.017   1.425   0.010  0.00  0.00    +0.277 C 
ATOM     24  O   UNL     1       0.002  -0.004   0.002  0.00  0.00    -0.490 OA
ENDBRANCH  15  24
ENDBRANCH  14  18
ENDBRANCH   1  14
TORSDOF 4
