REMARK  Name = ZINC04322530
REMARK  6 active torsions:
REMARK  status: ('A' for Active; 'I' for Inactive)
REMARK    1  A    between atoms: C_4  and  O_28
REMARK    2  A    between atoms: C_5  and  C_7
REMARK    3  A    between atoms: N_8  and  N_9
REMARK    4  A    between atoms: N_9  and  C_10
REMARK    5  A    between atoms: C_10  and  N_12
REMARK    6  A    between atoms: N_12  and  C_13
REMARK                            x       y       z     vdW  Elec       q    Type
REMARK                         _______ _______ _______ _____ _____    ______ ____
ROOT
ATOM      1  C   UNL     1       3.591  -4.838  -0.063  0.00  0.00    +0.150 C 
ATOM      2  S   UNL     1       3.623  -6.549  -0.073  0.00  0.00    -0.017 S 
ENDROOT
BRANCH   1   3
ATOM      3  N   UNL     1       2.412  -4.186  -0.047  0.00  0.00    -0.218 N 
ATOM      4  H   UNL     1       1.581  -4.686  -0.041  0.00  0.00    +0.176 HD
BRANCH   3   6
ATOM      5  C   UNL     1       1.250  -2.157  -0.023  0.00  0.00    +0.141 C 
ATOM      6  N   UNL     1       2.385  -2.785  -0.038  0.00  0.00    -0.188 NA
BRANCH   5  11
ATOM      7  C   UNL     1      -0.017   1.375   0.010  0.00  0.00    +0.001 A 
ATOM      8  C   UNL     1       1.169   2.089   0.002  0.00  0.00    +0.004 A 
ATOM      9  C   UNL     1       2.383   1.428  -0.013  0.00  0.00    +0.046 A 
ATOM     10  C   UNL     1       2.420   0.043  -0.022  0.00  0.00    +0.125 A 
ATOM     11  C   UNL     1       1.222  -0.684  -0.014  0.00  0.00    +0.036 A 
ATOM     12  C   UNL     1       0.002  -0.004   0.002  0.00  0.00    +0.013 A 
BRANCH  10  13
ATOM     13  O   UNL     1       3.612  -0.607  -0.038  0.00  0.00    -0.506 OA
ATOM     14  H   UNL     1       3.967  -0.800   0.841  0.00  0.00    +0.292 HD
ENDBRANCH  10  13
ENDBRANCH   5  11
ENDBRANCH   3   6
ENDBRANCH   1   3
BRANCH   1  15
ATOM     15  N   UNL     1       4.745  -4.142  -0.071  0.00  0.00    -0.322 N 
ATOM     16  H   UNL     1       4.727  -3.172  -0.065  0.00  0.00    +0.148 HD
BRANCH  15  17
ATOM     17  C   UNL     1       6.028  -4.851  -0.088  0.00  0.00    +0.076 C 
ATOM     18  C   UNL     1       6.441  -5.165  -1.551  0.00  0.00    +0.026 C 
ATOM     19  C   UNL     1       7.950  -4.675  -1.581  0.00  0.00    -0.005 C 
ATOM     20  C   UNL     1       7.686  -3.298  -0.832  0.00  0.00    +0.009 C 
ATOM     21  C   UNL     1       7.133  -3.955   0.503  0.00  0.00    +0.017 C 
ATOM     22  C   UNL     1       8.395  -4.736   0.841  0.00  0.00    +0.020 C 
ATOM     23  C   UNL     1       8.510  -5.565  -0.528  0.00  0.00    +0.003 C 
ATOM     24  C   UNL     1       9.617  -6.476  -0.217  0.00  0.00    +0.031 C 
ATOM     25  C   UNL     1       9.184  -6.911   1.202  0.00  0.00    -0.030 C 
ATOM     26  C   UNL     1       8.437  -5.874   1.803  0.00  0.00    -0.027 C 
ENDBRANCH  15  17
ENDBRANCH   1  15
TORSDOF 6
