REMARK  Name = ZINC03978815
REMARK  16 active torsions:
REMARK  status: ('A' for Active; 'I' for Inactive)
REMARK    1  A    between atoms: C_1  and  C_2
REMARK    2  A    between atoms: C_2  and  C_3
REMARK    3  A    between atoms: C_3  and  C_5
REMARK    4  A    between atoms: C_3  and  C_6
REMARK    5  A    between atoms: C_6  and  C_8
REMARK    6  A    between atoms: C_9  and  O_33
REMARK    7  A    between atoms: C_10  and  C_32
REMARK    8  A    between atoms: C_13  and  O_14
REMARK    9  A    between atoms: C_16  and  O_31
REMARK   10  A    between atoms: C_17  and  C_24
REMARK   11  A    between atoms: C_18  and  O_23
REMARK   12  A    between atoms: C_19  and  C_22
REMARK   13  A    between atoms: C_24  and  C_26
REMARK   14  A    between atoms: C_26  and  C_28
REMARK   15  A    between atoms: C_26  and  C_29
REMARK   16  A    between atoms: C_29  and  C_30
REMARK                            x       y       z     vdW  Elec       q    Type
REMARK                         _______ _______ _______ _____ _____    ______ ____
ROOT
ATOM      1  C   UNL     1       1.121  -2.877  -1.668  0.00  0.00    +0.101 A 
ATOM      2  C   UNL     1       2.131  -2.067  -2.224  0.00  0.00    +0.137 A 
ATOM      3  C   UNL     1       3.270  -2.639  -2.752  0.00  0.00    +0.035 A 
ATOM      4  C   UNL     1       3.435  -4.022  -2.743  0.00  0.00    +0.146 A 
ATOM      5  C   UNL     1       2.434  -4.836  -2.191  0.00  0.00    +0.074 A 
ATOM      6  C   UNL     1       1.283  -4.272  -1.649  0.00  0.00    +0.142 A 
ATOM      7  C   UNL     1       2.919  -6.223  -2.342  0.00  0.00    +0.074 A 
ATOM      8  C   UNL     1       2.398  -7.467  -2.002  0.00  0.00    +0.142 A 
ATOM      9  C   UNL     1       3.133  -8.629  -2.293  0.00  0.00    +0.101 A 
ATOM     10  C   UNL     1       4.388  -8.517  -2.925  0.00  0.00    +0.137 A 
ATOM     11  C   UNL     1       4.892  -7.276  -3.257  0.00  0.00    +0.035 A 
ATOM     12  C   UNL     1       4.169  -6.121  -2.971  0.00  0.00    +0.146 A 
ATOM     13  O   UNL     1       4.434  -4.814  -3.188  0.00  0.00    -0.454 OA
ATOM     14  C   UNL     1       6.235  -7.171  -3.932  0.00  0.00    +0.051 C 
ATOM     15  C   UNL     1       4.343  -1.762  -3.343  0.00  0.00    +0.051 C 
ENDROOT
BRANCH   1  16
ATOM     16  C   UNL     1      -0.086  -2.268  -1.109  0.00  0.00    +0.173 C 
ATOM     17  O   UNL     1      -0.158  -2.049   0.083  0.00  0.00    -0.292 OA
BRANCH  16  18
ATOM     18  C   UNL     1      -1.239  -1.915  -2.012  0.00  0.00    +0.057 C 
ATOM     19  C   UNL     1      -2.163  -3.125  -2.157  0.00  0.00    +0.016 C 
BRANCH  18  21
ATOM     20  C   UNL     1      -3.114  -0.305  -2.382  0.00  0.00    +0.004 C 
ATOM     21  C   UNL     1      -2.020  -0.746  -1.408  0.00  0.00    +0.008 C 
ENDBRANCH  18  21
ENDBRANCH  16  18
ENDBRANCH   1  16
BRANCH   6  22
ATOM     22  O   UNL     1       0.322  -5.064  -1.113  0.00  0.00    -0.505 OA
ATOM     23  H   UNL     1      -0.351  -5.350  -1.746  0.00  0.00    +0.292 HD
ENDBRANCH   6  22
BRANCH  10  24
ATOM     24  O   UNL     1       5.103  -9.634  -3.208  0.00  0.00    -0.506 OA
ATOM     25  H   UNL     1       4.973  -9.967  -4.107  0.00  0.00    +0.292 HD
ENDBRANCH  10  24
BRANCH   9  26
ATOM     26  C   UNL     1       2.601  -9.944  -1.942  0.00  0.00    +0.173 C 
ATOM     27  O   UNL     1       1.830 -10.507  -2.692  0.00  0.00    -0.292 OA
BRANCH  26  28
ATOM     28  C   UNL     1       3.008 -10.602  -0.648  0.00  0.00    +0.057 C 
ATOM     29  C   UNL     1       2.071 -10.147   0.472  0.00  0.00    +0.016 C 
BRANCH  28  30
ATOM     30  C   UNL     1       2.923 -12.122  -0.800  0.00  0.00    +0.008 C 
ATOM     31  C   UNL     1       3.455 -12.791   0.469  0.00  0.00    +0.004 C 
ENDBRANCH  28  30
ENDBRANCH  26  28
ENDBRANCH   9  26
BRANCH   8  32
ATOM     32  O   UNL     1       1.190  -7.559  -1.394  0.00  0.00    -0.505 OA
ATOM     33  H   UNL     1       0.446  -7.636  -2.007  0.00  0.00    +0.292 HD
ENDBRANCH   8  32
BRANCH   2  34
ATOM     34  O   UNL     1       1.984  -0.719  -2.239  0.00  0.00    -0.506 OA
ATOM     35  H   UNL     1       2.399  -0.269  -1.491  0.00  0.00    +0.292 HD
ENDBRANCH   2  34
TORSDOF 10
