REMARK  Name = ZINC16025234
REMARK  10 active torsions:
REMARK  status: ('A' for Active; 'I' for Inactive)
REMARK    1  A    between atoms: C_1  and  C_2
REMARK    2  A    between atoms: C_2  and  C_4
REMARK    3  A    between atoms: C_2  and  O_38
REMARK    4  A    between atoms: N_12  and  C_15
REMARK    5  A    between atoms: C_15  and  C_16
REMARK    6  A    between atoms: C_16  and  C_17
REMARK    7  A    between atoms: C_20  and  O_25
REMARK    8  A    between atoms: C_21  and  O_23
REMARK    9  A    between atoms: O_23  and  C_24
REMARK   10  A    between atoms: O_25  and  C_26
REMARK                            x       y       z     vdW  Elec       q    Type
REMARK                         _______ _______ _______ _____ _____    ______ ____
ROOT
ATOM      1  C   UNL     1       0.742  -0.511   1.242  0.00  0.00    +0.096 C 
ATOM      2  C   UNL     1       0.742  -2.054   1.274  0.00  0.00    +0.109 C 
ATOM      3  C   UNL     1       0.582  -2.421   2.776  0.00  0.00    +0.122 C 
ATOM      4  C   UNL     1       1.901  -3.078   3.116  0.00  0.00    +0.228 C 
ATOM      5  O   UNL     1       2.205  -3.514   4.205  0.00  0.00    -0.275 OA
ATOM      6  N   UNL     1       2.679  -3.103   2.028  0.00  0.00    -0.241 N 
ATOM      7  C   UNL     1       2.124  -2.557   0.921  0.00  0.00    +0.227 C 
ATOM      8  O   UNL     1       2.640  -2.478  -0.173  0.00  0.00    -0.275 OA
ATOM      9  C   UNL     1       0.458  -1.071   3.493  0.00  0.00    +0.136 C 
ATOM     10  N   UNL     1       0.023  -0.102   2.477  0.00  0.00    -0.293 NA
ATOM     11  C   UNL     1      -0.500  -1.148   4.648  0.00  0.00    +0.003 A 
ATOM     12  C   UNL     1      -1.833  -1.475   4.753  0.00  0.00    +0.008 A 
ATOM     13  C   UNL     1      -2.456  -1.453   5.988  0.00  0.00    +0.000 A 
ATOM     14  C   UNL     1      -1.736  -1.102   7.116  0.00  0.00    +0.002 A 
ATOM     15  C   UNL     1      -0.401  -0.773   7.015  0.00  0.00    +0.023 A 
ATOM     16  C   UNL     1       0.234  -0.793   5.776  0.00  0.00    +0.039 A 
ATOM     17  N   UNL     1       1.555  -0.506   5.421  0.00  0.00    -0.283 N 
ATOM     18  C   UNL     1       1.768  -0.646   4.098  0.00  0.00    +0.243 C 
ATOM     19  O   UNL     1       2.812  -0.465   3.510  0.00  0.00    -0.273 OA
ATOM     20  H   UNL     1       0.265   0.841   2.741  0.00  0.00    +0.124 HD
ATOM     21  H   UNL     1       2.239  -0.237   6.054  0.00  0.00    +0.155 HD
ENDROOT
BRANCH   1  23
ATOM     22  C   UNL     1      -0.019   1.526   0.010  0.00  0.00    +0.039 C 
ATOM     23  C   UNL     1       0.002  -0.004   0.002  0.00  0.00    +0.129 C 
BRANCH  23  24
ATOM     24  O   UNL     1       0.671  -0.465  -1.174  0.00  0.00    -0.390 OA
ATOM     25  H   UNL     1       0.256  -0.181  -1.999  0.00  0.00    +0.210 HD
ENDBRANCH  23  24
ENDBRANCH   1  23
BRANCH   6  26
ATOM     26  C   UNL     1       4.025  -3.681   2.031  0.00  0.00    +0.121 C 
BRANCH  26  27
ATOM     27  C   UNL     1       3.944  -5.165   1.667  0.00  0.00    +0.054 C 
BRANCH  27  28
ATOM     28  C   UNL     1       5.329  -5.759   1.670  0.00  0.00    -0.042 A 
ATOM     29  C   UNL     1       6.086  -5.749   0.513  0.00  0.00    +0.007 A 
ATOM     30  C   UNL     1       7.356  -6.293   0.510  0.00  0.00    +0.049 A 
ATOM     31  C   UNL     1       7.874  -6.850   1.669  0.00  0.00    +0.161 A 
ATOM     32  C   UNL     1       7.112  -6.860   2.833  0.00  0.00    +0.162 A 
ATOM     33  C   UNL     1       5.841  -6.309   2.830  0.00  0.00    +0.053 A 
BRANCH  32  34
ATOM     34  O   UNL     1       7.616  -7.406   3.972  0.00  0.00    -0.491 OA
ATOM     35  C   UNL     1       6.778  -7.381   5.129  0.00  0.00    +0.277 C 
ENDBRANCH  32  34
BRANCH  31  36
ATOM     36  O   UNL     1       9.124  -7.386   1.667  0.00  0.00    -0.491 OA
ATOM     37  C   UNL     1       9.848  -7.341   0.436  0.00  0.00    +0.277 C 
ENDBRANCH  31  36
ENDBRANCH  27  28
ENDBRANCH  26  27
ENDBRANCH   6  26
TORSDOF 7
