REMARK  Name = ZINC59384804
REMARK  8 active torsions:
REMARK  status: ('A' for Active; 'I' for Inactive)
REMARK    1  A    between atoms: C_1  and  C_2
REMARK    2  A    between atoms: C_3  and  C_17
REMARK    3  A    between atoms: C_4  and  C_10
REMARK    4  A    between atoms: N_19  and  N_20
REMARK    5  A    between atoms: C_21  and  C_22
REMARK    6  A    between atoms: C_25  and  C_28
REMARK    7  A    between atoms: C_28  and  O_30
REMARK    8  A    between atoms: O_30  and  C_31
REMARK                            x       y       z     vdW  Elec       q    Type
REMARK                         _______ _______ _______ _____ _____    ______ ____
ROOT
ATOM      1  C   UNL     1      -0.039   1.491   0.091  0.00  0.00    +0.061 C 
ATOM      2  C   UNL     1      -0.009  -0.015   0.030  0.00  0.00    +0.017 C 
ATOM      3  C   UNL     1      -1.170  -0.703   0.033  0.00  0.00    +0.057 C 
ATOM      4  C   UNL     1      -1.094  -2.215  -0.031  0.00  0.00    +0.139 C 
ATOM      5  N   UNL     1       0.250  -2.813  -0.091  0.00  0.00    -0.315 N 
ATOM      6  C   UNL     1       1.319  -1.992  -0.086  0.00  0.00    +0.135 C 
ATOM      7  S   UNL     1       2.887  -2.674  -0.155  0.00  0.00    -0.019 S 
ATOM      8  N   UNL     1       1.193  -0.660  -0.034  0.00  0.00    -0.300 N 
ATOM      9  H   UNL     1       0.363  -3.776  -0.132  0.00  0.00    +0.149 HD
ATOM     10  H   UNL     1       2.001  -0.124  -0.037  0.00  0.00    +0.154 HD
ENDROOT
BRANCH   4  11
ATOM     11  C   UNL     1      -1.794  -2.767   1.185  0.00  0.00    -0.023 A 
ATOM     12  C   UNL     1      -1.188  -2.691   2.425  0.00  0.00    +0.007 A 
ATOM     13  C   UNL     1      -1.829  -3.197   3.540  0.00  0.00    +0.020 A 
ATOM     14  C   UNL     1      -3.078  -3.779   3.415  0.00  0.00    +0.041 A 
ATOM     15  C   UNL     1      -3.684  -3.854   2.174  0.00  0.00    +0.020 A 
ATOM     16  C   UNL     1      -3.044  -3.343   1.060  0.00  0.00    +0.007 A 
ATOM     17 CL   UNL     1      -3.883  -4.415   4.815  0.00  0.00    -0.084 Cl
ENDBRANCH   4  11
BRANCH   3  18
ATOM     18  C   UNL     1      -2.417  -0.034   0.093  0.00  0.00    +0.263 C 
ATOM     19  O   UNL     1      -3.077   0.116  -0.919  0.00  0.00    -0.269 OA
ATOM     20  N   UNL     1      -2.873   0.435   1.271  0.00  0.00    -0.203 N 
ATOM     21  H   UNL     1      -2.316   0.382   2.063  0.00  0.00    +0.178 HD
BRANCH  20  22
ATOM     22  N   UNL     1      -4.153   1.000   1.352  0.00  0.00    -0.187 NA
ATOM     23  C   UNL     1      -4.592   1.453   2.487  0.00  0.00    +0.138 C 
BRANCH  23  24
ATOM     24  C   UNL     1      -5.937   2.047   2.572  0.00  0.00    -0.005 A 
ATOM     25  C   UNL     1      -6.744   2.118   1.431  0.00  0.00    +0.010 A 
ATOM     26  C   UNL     1      -7.991   2.669   1.510  0.00  0.00    +0.015 A 
ATOM     27  C   UNL     1      -8.462   3.162   2.731  0.00  0.00    +0.059 A 
ATOM     28  C   UNL     1      -7.656   3.090   3.872  0.00  0.00    +0.015 A 
ATOM     29  C   UNL     1      -6.411   2.534   3.795  0.00  0.00    +0.010 A 
BRANCH  27  30
ATOM     30  C   UNL     1      -9.809   3.757   2.816  0.00  0.00    +0.339 C 
ATOM     31  O   UNL     1     -10.509   3.819   1.825  0.00  0.00    -0.245 OA
BRANCH  30  32
ATOM     32  O   UNL     1     -10.263   4.231   3.992  0.00  0.00    -0.464 OA
ATOM     33  C   UNL     1     -11.576   4.794   4.002  0.00  0.00    +0.280 C 
ENDBRANCH  30  32
ENDBRANCH  27  30
ENDBRANCH  23  24
ENDBRANCH  20  22
ENDBRANCH   3  18
TORSDOF 6
