REMARK  Name = ZINC63279848
REMARK  4 active torsions:
REMARK  status: ('A' for Active; 'I' for Inactive)
REMARK    1  A    between atoms: C_1  and  C_2
REMARK    2  A    between atoms: C_5  and  C_9
REMARK    3  A    between atoms: C_7  and  C_8
REMARK    4  A    between atoms: C_15  and  C_17
REMARK                            x       y       z     vdW  Elec       q    Type
REMARK                         _______ _______ _______ _____ _____    ______ ____
ROOT
ATOM      1  C   UNL     1       0.149  -4.308   0.006  0.00  0.00    +0.050 C 
ATOM      2  N   UNL     1       0.240  -5.112   1.039  0.00  0.00    -0.264 NA
ATOM      3  C   UNL     1       0.093  -6.468   0.604  0.00  0.00    +0.205 C 
ATOM      4  C   UNL     1       0.603  -6.461  -0.867  0.00  0.00    +0.128 C 
ATOM      5  C   UNL     1      -0.045  -5.125  -1.274  0.00  0.00    +0.072 C 
ATOM      6  C   UNL     1       0.041  -7.709  -1.475  0.00  0.00    +0.228 C 
ATOM      7  O   UNL     1      -0.443  -7.727  -2.587  0.00  0.00    -0.275 OA
ATOM      8  N   UNL     1       0.111  -8.823  -0.695  0.00  0.00    -0.240 N 
ATOM      9  C   UNL     1       0.585  -8.784   0.566  0.00  0.00    +0.307 C 
ATOM     10  O   UNL     1       0.974  -9.810   1.088  0.00  0.00    -0.252 OA
ATOM     11  N   UNL     1       0.644  -7.619   1.253  0.00  0.00    -0.277 N 
ATOM     12  H   UNL     1      -0.190  -9.671  -1.058  0.00  0.00    +0.159 HD
ATOM     13  H   UNL     1       1.041  -7.573   2.137  0.00  0.00    +0.152 HD
ENDROOT
BRANCH   5  14
ATOM     14  C   UNL     1       0.698  -4.490  -2.452  0.00  0.00    +0.146 C 
ATOM     15  C   UNL     1       0.228  -5.164  -3.726  0.00  0.00    +0.099 C 
ATOM     16  N   UNL     1       1.130  -5.752  -4.476  0.00  0.00    -0.152 NA
ATOM     17  C   UNL     1       2.426  -5.775  -4.160  0.00  0.00    +0.331 C 
ATOM     18  O   UNL     1       3.183  -6.346  -4.922  0.00  0.00    -0.250 OA
ATOM     19  N   UNL     1       2.955  -5.215  -3.064  0.00  0.00    -0.238 N 
ATOM     20  C   UNL     1       2.187  -4.566  -2.167  0.00  0.00    +0.231 C 
ATOM     21  O   UNL     1       2.668  -4.062  -1.175  0.00  0.00    -0.275 OA
ATOM     22  N   UNL     1      -1.076  -5.161  -4.077  0.00  0.00    -0.348 N 
ATOM     23  H   UNL     1       3.911  -5.281  -2.913  0.00  0.00    +0.159 HD
ATOM     24  H   UNL     1      -1.718  -4.660  -3.550  0.00  0.00    +0.143 HD
ATOM     25  H   UNL     1      -1.370  -5.658  -4.856  0.00  0.00    +0.143 HD
ENDBRANCH   5  14
BRANCH   1  30
ATOM     26  C   UNL     1       0.415   1.433   0.254  0.00  0.00    +0.044 C 
ATOM     27  C   UNL     1       0.346  -0.071   0.189  0.00  0.00    -0.048 A 
ATOM     28  C   UNL     1      -0.376  -0.684  -0.820  0.00  0.00    +0.004 A 
ATOM     29  C   UNL     1      -0.444  -2.060  -0.886  0.00  0.00    +0.010 A 
ATOM     30  C   UNL     1       0.218  -2.835   0.070  0.00  0.00    -0.004 A 
ATOM     31  C   UNL     1       0.944  -2.210   1.085  0.00  0.00    +0.013 A 
ATOM     32  C   UNL     1       1.008  -0.832   1.135  0.00  0.00    -0.047 A 
ATOM     33  C   UNL     1       1.796  -0.156   2.227  0.00  0.00    +0.044 C 
ENDBRANCH   1  30
TORSDOF 2
