REMARK  Name = ZINC35023521
REMARK  8 active torsions:
REMARK  status: ('A' for Active; 'I' for Inactive)
REMARK    1  A    between atoms: C_1  and  C_2
REMARK    2  A    between atoms: C_2  and  C_3
REMARK    3  A    between atoms: C_2  and  C_4
REMARK    4  A    between atoms: C_7  and  C_10
REMARK    5  A    between atoms: C_12  and  C_26
REMARK    6  A    between atoms: C_14  and  C_19
REMARK    7  A    between atoms: C_14  and  O_25
REMARK    8  A    between atoms: C_26  and  C_28
REMARK                            x       y       z     vdW  Elec       q    Type
REMARK                         _______ _______ _______ _____ _____    ______ ____
ROOT
ATOM      1  C   UNL     1       2.707  -1.868  -4.752  0.00  0.00    +0.120 C 
ATOM      2  C   UNL     1       3.852  -0.911  -5.099  0.00  0.00    +0.144 C 
ATOM      3  C   UNL     1       4.888  -0.961  -3.971  0.00  0.00    +0.172 C 
ATOM      4  N   UNL     1       5.316  -2.347  -3.772  0.00  0.00    -0.267 N 
ATOM      5  C   UNL     1       4.497  -3.375  -4.040  0.00  0.00    +0.302 C 
ATOM      6  O   UNL     1       4.899  -4.506  -3.847  0.00  0.00    -0.253 OA
ATOM      7  N   UNL     1       3.252  -3.205  -4.512  0.00  0.00    -0.292 N 
ATOM      8  H   UNL     1       6.210  -2.525  -3.441  0.00  0.00    +0.153 HD
ATOM      9  H   UNL     1       2.702  -3.983  -4.698  0.00  0.00    +0.151 HD
ENDROOT
BRANCH   1  13
ATOM     10  C   UNL     1       0.707  -0.490  -1.238  0.00  0.00    -0.045 A 
ATOM     11  C   UNL     1       0.391   0.051  -2.470  0.00  0.00    +0.004 A 
ATOM     12  C   UNL     1       1.038  -0.394  -3.607  0.00  0.00    +0.006 A 
ATOM     13  C   UNL     1       2.002  -1.381  -3.513  0.00  0.00    -0.026 A 
ATOM     14  C   UNL     1       2.318  -1.922  -2.280  0.00  0.00    +0.006 A 
ATOM     15  C   UNL     1       1.674  -1.473  -1.143  0.00  0.00    +0.004 A 
BRANCH  10  17
ATOM     16  C   UNL     1       0.252   1.496   0.176  0.00  0.00    +0.012 C 
ATOM     17  C   UNL     1       0.002  -0.004   0.002  0.00  0.00    +0.013 C 
ATOM     18  C   UNL     1      -1.501  -0.258  -0.134  0.00  0.00    +0.012 C 
ENDBRANCH  10  17
ENDBRANCH   1  13
BRANCH   3  19
ATOM     19  C   UNL     1       6.078  -0.114  -4.342  0.00  0.00    +0.003 A 
ATOM     20  C   UNL     1       7.137  -0.675  -5.032  0.00  0.00    +0.008 A 
ATOM     21  C   UNL     1       8.228   0.102  -5.372  0.00  0.00    +0.000 A 
ATOM     22  C   UNL     1       8.261   1.439  -5.023  0.00  0.00    +0.000 A 
ATOM     23  C   UNL     1       7.202   2.000  -4.334  0.00  0.00    +0.000 A 
ATOM     24  C   UNL     1       6.109   1.224  -3.997  0.00  0.00    +0.008 A 
ENDBRANCH   3  19
BRANCH   3  25
ATOM     25  O   UNL     1       4.304  -0.464  -2.765  0.00  0.00    -0.367 OA
ATOM     26  H   UNL     1       4.905  -0.467  -2.007  0.00  0.00    +0.212 HD
ENDBRANCH   3  25
BRANCH   2  27
ATOM     27  C   UNL     1       4.491  -1.336  -6.396  0.00  0.00    +0.245 C 
ATOM     28  O   UNL     1       5.414  -2.114  -6.389  0.00  0.00    -0.287 OA
BRANCH  27  29
ATOM     29  C   UNL     1       3.977  -0.789  -7.704  0.00  0.00    +0.451 C 
ATOM     30  F   UNL     1       3.537  -1.845  -8.509  0.00  0.00    -0.163 F 
ATOM     31  F   UNL     1       2.913   0.085  -7.458  0.00  0.00    -0.163 F 
ATOM     32  F   UNL     1       5.005  -0.101  -8.357  0.00  0.00    -0.163 F 
ENDBRANCH  27  29
ENDBRANCH   2  27
TORSDOF 6
