REMARK  Name = ZINC14833943
REMARK  9 active torsions:
REMARK  status: ('A' for Active; 'I' for Inactive)
REMARK    1  A    between atoms: C_1  and  C_2
REMARK    2  A    between atoms: C_2  and  C_3
REMARK    3  A    between atoms: C_3  and  C_4
REMARK    4  A    between atoms: N_6  and  C_7
REMARK    5  A    between atoms: C_11  and  N_13
REMARK    6  A    between atoms: N_13  and  C_14
REMARK    7  A    between atoms: C_14  and  N_16
REMARK    8  A    between atoms: C_17  and  C_19
REMARK    9  A    between atoms: C_20  and  C_21
REMARK                            x       y       z     vdW  Elec       q    Type
REMARK                         _______ _______ _______ _____ _____    ______ ____
ROOT
ATOM      1  N   UNL     1      -5.999   1.626  -0.345  0.00  0.00    -0.295 N 
ATOM      2  H   UNL     1      -6.740   1.182  -0.785  0.00  0.00    +0.154 HD
ENDROOT
BRANCH   1   7
ATOM      3  C   UNL     1      -2.367   1.032  -0.243  0.00  0.00    +0.035 A 
ATOM      4  C   UNL     1      -2.334  -0.328   0.037  0.00  0.00    +0.025 A 
ATOM      5  C   UNL     1      -3.512  -1.031   0.199  0.00  0.00    +0.023 A 
ATOM      6  C   UNL     1      -4.728  -0.386   0.071  0.00  0.00    +0.062 A 
ATOM      7  C   UNL     1      -4.768   0.973  -0.216  0.00  0.00    +0.053 A 
ATOM      8  C   UNL     1      -3.586   1.683  -0.373  0.00  0.00    +0.048 A 
ATOM      9 CL   UNL     1      -6.206  -1.275   0.268  0.00  0.00    -0.082 Cl
BRANCH   3  12
ATOM     10  C   UNL     1      -0.055   1.334   0.231  0.00  0.00    +0.217 C 
ATOM     11  O   UNL     1      -0.105   0.405   1.009  0.00  0.00    -0.275 OA
ATOM     12  N   UNL     1      -1.173   1.744  -0.401  0.00  0.00    -0.285 N 
ATOM     13  H   UNL     1      -1.149   2.533  -0.965  0.00  0.00    +0.155 HD
BRANCH  10  14
ATOM     14  C   UNL     1       1.257   2.025  -0.035  0.00  0.00    +0.096 C 
BRANCH  14  16
ATOM     15  C   UNL     1       3.691   2.067   0.527  0.00  0.00    +0.004 C 
ATOM     16  C   UNL     1       2.359   1.366   0.797  0.00  0.00    +0.006 C 
ENDBRANCH  14  16
ENDBRANCH  10  14
ENDBRANCH   3  12
ENDBRANCH   1   7
BRANCH   1  17
ATOM     17  C   UNL     1      -6.155   2.873   0.143  0.00  0.00    +0.141 C 
ATOM     18  S   UNL     1      -4.872   3.629   0.987  0.00  0.00    -0.018 S 
BRANCH  17  19
ATOM     19  N   UNL     1      -7.322   3.525  -0.033  0.00  0.00    -0.264 N 
ATOM     20  C   UNL     1      -7.478   4.771   0.454  0.00  0.00    +0.242 C 
ATOM     21  O   UNL     1      -6.565   5.308   1.054  0.00  0.00    -0.270 OA
ATOM     22  H   UNL     1      -8.049   3.096  -0.512  0.00  0.00    +0.157 HD
BRANCH  20  23
ATOM     23  C   UNL     1      -8.743   5.478   0.263  0.00  0.00    +0.068 C 
ATOM     24  C   UNL     1      -8.900   6.726   0.751  0.00  0.00    +0.013 C 
BRANCH  24  25
ATOM     25  C   UNL     1     -10.173   7.438   0.559  0.00  0.00    -0.025 A 
ATOM     26  C   UNL     1     -11.222   6.825  -0.136  0.00  0.00    +0.009 A 
ATOM     27  C   UNL     1     -12.414   7.496  -0.308  0.00  0.00    +0.020 A 
ATOM     28  C   UNL     1     -12.571   8.777   0.195  0.00  0.00    +0.041 A 
ATOM     29  C   UNL     1     -11.534   9.392   0.879  0.00  0.00    +0.020 A 
ATOM     30  C   UNL     1     -10.339   8.732   1.063  0.00  0.00    +0.009 A 
ATOM     31 CL   UNL     1     -14.073   9.617  -0.034  0.00  0.00    -0.084 Cl
ENDBRANCH  24  25
ENDBRANCH  20  23
ENDBRANCH  17  19
ENDBRANCH   1  17
TORSDOF 8
