REMARK  Name = ZINC49532559
REMARK  8 active torsions:
REMARK  status: ('A' for Active; 'I' for Inactive)
REMARK    1  A    between atoms: C_1  and  C_2
REMARK    2  A    between atoms: C_2  and  C_3
REMARK    3  A    between atoms: C_3  and  C_5
REMARK    4  A    between atoms: C_3  and  N_10
REMARK    5  A    between atoms: N_10  and  S_11
REMARK    6  A    between atoms: S_11  and  C_14
REMARK    7  A    between atoms: C_19  and  N_20
REMARK    8  A    between atoms: N_20  and  N_21
REMARK                            x       y       z     vdW  Elec       q    Type
REMARK                         _______ _______ _______ _____ _____    ______ ____
ROOT
ATOM      1  S   UNL     1       2.614   1.274  -1.961  0.00  0.00    +0.062 S 
ATOM      2  O   UNL     1       1.859   2.373  -1.468  0.00  0.00    -0.153 OA
ATOM      3  O   UNL     1       4.018   1.166  -1.766  0.00  0.00    -0.153 OA
ENDROOT
BRANCH   1   4
ATOM      4  C   UNL     1       2.341   1.215  -3.700  0.00  0.00    +0.147 A 
ATOM      5  C   UNL     1       1.538   2.158  -4.317  0.00  0.00    +0.048 A 
ATOM      6  C   UNL     1       1.350   2.073  -5.690  0.00  0.00    +0.038 A 
ATOM      7  C   UNL     1       1.966   1.057  -6.395  0.00  0.00    +0.128 A 
ATOM      8  N   UNL     1       2.727   0.172  -5.780  0.00  0.00    -0.236 NA
ATOM      9  C   UNL     1       2.935   0.223  -4.474  0.00  0.00    +0.159 A 
ATOM     10 BR   UNL     1       0.263   3.334  -6.586  0.00  0.00    -0.049 Br
BRANCH   9  11
ATOM     11  N   UNL     1       3.749  -0.728  -3.868  0.00  0.00    -0.266 N 
ATOM     12  H   UNL     1       3.830  -0.752  -2.902  0.00  0.00    +0.167 HD
BRANCH  11  13
ATOM     13  N   UNL     1       4.435  -1.627  -4.634  0.00  0.00    -0.255 NA
ATOM     14  H   UNL     1       4.925  -2.294  -4.056  0.00  0.00    +0.140 HD
ATOM     15  H   UNL     1       3.820  -2.093  -5.283  0.00  0.00    +0.140 HD
ENDBRANCH  11  13
ENDBRANCH   9  11
ENDBRANCH   1   4
BRANCH   1  16
ATOM     16  N   UNL     1       1.939  -0.092  -1.312  0.00  0.00    -0.182 NA
ATOM     17  H   UNL     1       2.500  -0.743  -0.863  0.00  0.00    +0.149 HD
BRANCH  16  18
ATOM     18  C   UNL     1       0.496  -0.317  -1.418  0.00  0.00    +0.113 C 
BRANCH  18  19
ATOM     19  C   UNL     1       0.241  -1.609  -2.152  0.00  0.00    +0.008 A 
ATOM     20  C   UNL     1      -0.704  -1.890  -3.082  0.00  0.00    +0.013 A 
ATOM     21  C   UNL     1      -0.750  -3.159  -3.628  0.00  0.00    +0.008 A 
ATOM     22  C   UNL     1       0.151  -4.085  -3.217  0.00  0.00    +0.045 A 
ATOM     23  S   UNL     1       1.111  -3.163  -2.027  0.00  0.00    -0.100 S 
ENDBRANCH  18  19
BRANCH  18  25
ATOM     24  C   UNL     1       0.027   0.957   0.679  0.00  0.00    +0.006 C 
ATOM     25  C   UNL     1      -0.112  -0.399  -0.017  0.00  0.00    +0.022 C 
ENDBRANCH  18  25
ENDBRANCH  16  18
ENDBRANCH   1  16
TORSDOF 7
