REMARK  Name = ZINC37257076
REMARK  4 active torsions:
REMARK  status: ('A' for Active; 'I' for Inactive)
REMARK    1  A    between atoms: C_1  and  C_2
REMARK    2  A    between atoms: C_7  and  N_10
REMARK    3  A    between atoms: C_14  and  C_16
REMARK    4  A    between atoms: C_17  and  C_18
REMARK                            x       y       z     vdW  Elec       q    Type
REMARK                         _______ _______ _______ _____ _____    ______ ____
ROOT
ATOM      1  N   UNL     1       1.471  -2.526   2.420  0.00  0.00    -0.296 N 
ATOM      2  C   UNL     1       1.207  -3.754   2.907  0.00  0.00    +0.306 C 
ATOM      3  O   UNL     1       0.380  -4.460   2.362  0.00  0.00    -0.252 OA
ATOM      4  N   UNL     1       1.859  -4.201   3.999  0.00  0.00    -0.237 N 
ATOM      5  C   UNL     1       1.594  -5.429   4.487  0.00  0.00    +0.244 C 
ATOM      6  O   UNL     1       0.768  -6.134   3.942  0.00  0.00    -0.270 OA
ATOM      7  H   UNL     1       2.131  -1.963   2.855  0.00  0.00    +0.151 HD
ATOM      8  H   UNL     1       2.518  -3.638   4.434  0.00  0.00    +0.159 HD
ENDROOT
BRANCH   1  14
ATOM      9  C   UNL     1      -0.019   1.526   0.010  0.00  0.00    +0.007 C 
ATOM     10  C   UNL     1       0.002  -0.004   0.002  0.00  0.00    -0.012 C 
ATOM     11  C   UNL     1       0.718  -0.497  -1.257  0.00  0.00    +0.003 C 
ATOM     12  C   UNL     1       0.739  -2.027  -1.265  0.00  0.00    +0.002 C 
ATOM     13  C   UNL     1       1.479  -2.534  -0.026  0.00  0.00    +0.022 C 
ATOM     14  C   UNL     1       0.763  -2.041   1.233  0.00  0.00    +0.075 C 
ATOM     15  C   UNL     1       0.742  -0.511   1.242  0.00  0.00    +0.025 C 
ENDBRANCH   1  14
BRANCH   5  16
ATOM     16  C   UNL     1       2.309  -5.919   5.684  0.00  0.00    +0.075 C 
ATOM     17  C   UNL     1       2.045  -7.143   6.170  0.00  0.00    +0.101 C 
BRANCH  17  18
ATOM     18  C   UNL     1       2.759  -7.631   7.364  0.00  0.00    +0.380 C 
ATOM     19  O   UNL     1       3.590  -6.922   7.913  0.00  0.00    -0.241 OA
ATOM     20  O   UNL     1       2.519  -8.746   7.807  0.00  0.00    -0.241 OA
ENDBRANCH  17  18
ENDBRANCH   5  16
TORSDOF 3
