REMARK  Name = ZINC21526706
REMARK  15 active torsions:
REMARK  status: ('A' for Active; 'I' for Inactive)
REMARK    1  A    between atoms: C_1  and  C_2
REMARK    2  A    between atoms: C_2  and  C_3
REMARK    3  A    between atoms: C_2  and  C_4
REMARK    4  A    between atoms: C_4  and  N_5
REMARK    5  A    between atoms: N_5  and  C_6
REMARK    6  A    between atoms: N_5  and  C_33
REMARK    7  A    between atoms: C_6  and  C_7
REMARK    8  A    between atoms: C_7  and  C_8
REMARK    9  A    between atoms: C_8  and  N_9
REMARK   10  A    between atoms: C_18  and  C_19
REMARK   11  A    between atoms: C_18  and  C_20
REMARK   12  A    between atoms: N_22  and  C_23
REMARK   13  A    between atoms: C_33  and  C_34
REMARK   14  A    between atoms: C_34  and  C_35
REMARK   15  A    between atoms: C_34  and  C_36
REMARK                            x       y       z     vdW  Elec       q    Type
REMARK                         _______ _______ _______ _____ _____    ______ ____
ROOT
ATOM      1  N   UNL     1       1.890   4.551  -0.680  0.00  0.00    -0.281 N 
ATOM      2  C   UNL     1       2.337   4.794  -1.935  0.00  0.00    +0.264 C 
ATOM      3  O   UNL     1       1.645   4.582  -2.914  0.00  0.00    -0.268 OA
ATOM      4  C   UNL     1       3.699   5.328  -2.052  0.00  0.00    +0.109 A 
ATOM      5  C   UNL     1       4.368   5.832  -3.127  0.00  0.00    +0.079 A 
ATOM      6  C   UNL     1       5.645   6.212  -2.690  0.00  0.00    +0.153 A 
ATOM      7  C   UNL     1       5.733   5.908  -1.331  0.00  0.00    +0.088 A 
ATOM      8  N   UNL     1       4.549   5.355  -0.948  0.00  0.00    -0.331 N 
ATOM      9  C   UNL     1       4.130   4.835   0.357  0.00  0.00    +0.157 C 
ATOM     10  C   UNL     1       2.614   5.009   0.500  0.00  0.00    +0.128 C 
ATOM     11  C   UNL     1       2.137   4.210   1.714  0.00  0.00    +0.043 C 
ATOM     12  C   UNL     1       7.030   6.305  -0.923  0.00  0.00    +0.067 A 
ATOM     13  C   UNL     1       7.651   6.809  -2.003  0.00  0.00    +0.198 A 
ATOM     14  O   UNL     1       6.825   6.752  -3.062  0.00  0.00    -0.461 OA
ENDROOT
BRANCH  10  15
ATOM     15  C   UNL     1       2.306   6.466   0.726  0.00  0.00    +0.238 C 
ATOM     16  O   UNL     1       2.225   6.901   1.856  0.00  0.00    -0.273 OA
ATOM     17  N   UNL     1       2.119   7.287  -0.326  0.00  0.00    -0.311 N 
ATOM     18  H   UNL     1       2.192   6.893  -1.351  0.00  0.00    +0.149 HD
BRANCH  17  19
ATOM     19  C   UNL     1       1.819   8.704  -0.106  0.00  0.00    +0.073 C 
ATOM     20  C   UNL     1       0.305   8.861   0.145  0.00  0.00    +0.022 C 
ATOM     21  C   UNL     1       0.072  10.166   0.859  0.00  0.00    +0.002 C 
ATOM     22  C   UNL     1      -0.262  11.315  -0.112  0.00  0.00    +0.000 C 
ATOM     23  C   UNL     1       0.610  11.297  -1.382  0.00  0.00    +0.000 C 
ATOM     24  C   UNL     1       2.052  10.983  -1.086  0.00  0.00    +0.002 C 
ATOM     25  C   UNL     1       2.269   9.466  -1.261  0.00  0.00    +0.022 C 
ENDBRANCH  17  19
ENDBRANCH  10  15
BRANCH   1  26
ATOM     26  C   UNL     1       0.638   3.811  -0.503  0.00  0.00    +0.107 C 
BRANCH  26  27
ATOM     27  C   UNL     1       0.938   2.313  -0.419  0.00  0.00    +0.000 C 
BRANCH  27  28
ATOM     28  C   UNL     1      -0.369   1.541  -0.234  0.00  0.00    -0.077 C 
BRANCH  28  29
ATOM     29  N   UNL     1      -0.071   0.121  -0.001  0.00  0.00    +0.380 N 
ATOM     30  H   UNL     1       0.746   0.064   0.734  0.00  0.00    -0.082 HD
BRANCH  29  31
ATOM     31  C   UNL     1      -1.235  -0.576   0.562  0.00  0.00    -0.076 C 
BRANCH  31  33
ATOM     32  C   UNL     1       0.180  -1.857   2.175  0.00  0.00    +0.005 C 
ATOM     33  C   UNL     1      -0.818  -1.975   1.021  0.00  0.00    -0.034 C 
ATOM     34  C   UNL     1      -2.053  -2.746   1.492  0.00  0.00    +0.005 C 
ENDBRANCH  31  33
ENDBRANCH  29  31
BRANCH  29  35
ATOM     35  C   UNL     1       0.387  -0.530  -1.236  0.00  0.00    -0.076 C 
BRANCH  35  36
ATOM     36  C   UNL     1       1.906  -0.389  -1.354  0.00  0.00    -0.034 C 
ATOM     37  C   UNL     1       2.579  -1.162  -0.218  0.00  0.00    +0.005 C 
ATOM     38  C   UNL     1       2.367  -0.953  -2.699  0.00  0.00    +0.005 C 
ENDBRANCH  35  36
ENDBRANCH  29  35
ENDBRANCH  28  29
ENDBRANCH  27  28
ENDBRANCH  26  27
ENDBRANCH   1  26
TORSDOF 10
