REMARK  Name = ZINC57541531
REMARK  12 active torsions:
REMARK  status: ('A' for Active; 'I' for Inactive)
REMARK    1  A    between atoms: C_1  and  C_2
REMARK    2  A    between atoms: C_5  and  O_27
REMARK    3  A    between atoms: C_6  and  C_8
REMARK    4  A    between atoms: C_8  and  C_9
REMARK    5  A    between atoms: C_9  and  N_10
REMARK    6  A    between atoms: N_13  and  C_14
REMARK    7  A    between atoms: C_16  and  N_21
REMARK    8  A    between atoms: C_19  and  C_20
REMARK    9  A    between atoms: C_22  and  C_24
REMARK   10  A    between atoms: C_24  and  C_25
REMARK   11  A    between atoms: C_24  and  C_26
REMARK   12  A    between atoms: O_27  and  C_28
REMARK                            x       y       z     vdW  Elec       q    Type
REMARK                         _______ _______ _______ _____ _____    ______ ____
ROOT
ATOM      1  N   UNL     1       1.803  -3.383   4.245  0.00  0.00    -0.299 N 
ATOM      2  C   UNL     1       2.916  -3.950   4.751  0.00  0.00    +0.304 C 
ATOM      3  O   UNL     1       3.982  -3.806   4.186  0.00  0.00    -0.253 OA
ATOM      4  N   UNL     1       2.846  -4.676   5.884  0.00  0.00    -0.269 N 
ATOM      5  H   UNL     1       0.952  -3.497   4.696  0.00  0.00    +0.150 HD
ATOM      6  H   UNL     1       2.014  -4.722   6.381  0.00  0.00    +0.156 HD
ENDROOT
BRANCH   4   7
ATOM      7  C   UNL     1       3.974  -5.365   6.344  0.00  0.00    +0.039 A 
ATOM      8  C   UNL     1       5.014  -5.654   5.473  0.00  0.00    +0.047 A 
ATOM      9  C   UNL     1       6.131  -6.337   5.933  0.00  0.00    +0.035 A 
ATOM     10  C   UNL     1       6.205  -6.729   7.264  0.00  0.00    +0.024 A 
ATOM     11  C   UNL     1       5.167  -6.439   8.129  0.00  0.00    +0.007 A 
ATOM     12  C   UNL     1       4.056  -5.754   7.675  0.00  0.00    -0.029 A 
ATOM     13  C   UNL     1       2.930  -5.435   8.623  0.00  0.00    +0.045 C 
BRANCH   9  14
ATOM     14  N   UNL     1       7.182  -6.631   5.057  0.00  0.00    -0.285 N 
ATOM     15  C   UNL     1       8.452  -6.639   5.507  0.00  0.00    +0.220 C 
ATOM     16  O   UNL     1       8.694  -6.303   6.647  0.00  0.00    -0.275 OA
ATOM     17  H   UNL     1       6.996  -6.830   4.126  0.00  0.00    +0.155 HD
BRANCH  15  18
ATOM     18  C   UNL     1       9.573  -7.065   4.594  0.00  0.00    +0.069 C 
ATOM     19  C   UNL     1       9.618  -6.141   3.376  0.00  0.00    +0.017 C 
ATOM     20  C   UNL     1      10.903  -6.983   5.346  0.00  0.00    +0.017 C 
ENDBRANCH  15  18
ENDBRANCH   9  14
ENDBRANCH   4   7
BRANCH   1  21
ATOM     21  C   UNL     1       1.878  -2.593   3.013  0.00  0.00    +0.110 C 
BRANCH  21  22
ATOM     22  C   UNL     1       0.486  -2.066   2.659  0.00  0.00    +0.057 C 
BRANCH  22  28
ATOM     23  C   UNL     1       0.930   2.363   0.373  0.00  0.00    +0.044 C 
ATOM     24  C   UNL     1       0.776   0.865   0.297  0.00  0.00    -0.050 A 
ATOM     25  C   UNL     1       0.707   0.240  -0.934  0.00  0.00    +0.007 A 
ATOM     26  C   UNL     1       0.566  -1.132  -1.006  0.00  0.00    +0.046 A 
ATOM     27  C   UNL     1       0.494  -1.883   0.159  0.00  0.00    +0.123 A 
ATOM     28  C   UNL     1       0.564  -1.253   1.392  0.00  0.00    -0.004 A 
ATOM     29  C   UNL     1       0.711   0.119   1.459  0.00  0.00    +0.010 A 
BRANCH  27  30
ATOM     30  O   UNL     1       0.354  -3.233   0.090  0.00  0.00    -0.495 OA
ATOM     31  C   UNL     1       0.288  -3.814  -1.214  0.00  0.00    +0.277 C 
ENDBRANCH  27  30
ENDBRANCH  22  28
ENDBRANCH  21  22
ENDBRANCH   1  21
TORSDOF 7
