REMARK  Name = ZINC39715495
REMARK  5 active torsions:
REMARK  status: ('A' for Active; 'I' for Inactive)
REMARK    1  A    between atoms: C_5  and  C_12
REMARK    2  A    between atoms: C_12  and  C_14
REMARK    3  A    between atoms: C_12  and  O_20
REMARK    4  A    between atoms: C_14  and  C_16
REMARK    5  A    between atoms: C_14  and  O_19
REMARK                            x       y       z     vdW  Elec       q    Type
REMARK                         _______ _______ _______ _____ _____    ______ ____
ROOT
ATOM      1  C   UNL     1      -0.018   1.456   0.010  0.00  0.00    +0.027 C 
ATOM      2  C   UNL     1       1.125   2.170   0.003  0.00  0.00    +0.031 C 
ATOM      3  C   UNL     1       2.416   1.463  -0.013  0.00  0.00    +0.083 C 
ATOM      4  N   UNL     1       3.645   1.891  -0.023  0.00  0.00    -0.255 NA
ATOM      5  C   UNL     1       4.523   0.716  -0.038  0.00  0.00    +0.242 C 
ATOM      6  N   UNL     1       3.644  -0.459  -0.035  0.00  0.00    -0.219 NA
ATOM      7  C   UNL     1       2.410  -0.025  -0.021  0.00  0.00    +0.077 C 
ATOM      8  C   UNL     1       1.165  -0.704  -0.013  0.00  0.00    +0.052 C 
ATOM      9  C   UNL     1       0.002  -0.004   0.002  0.00  0.00    +0.035 C 
ATOM     10  N   UNL     1      -1.200  -0.695   0.010  0.00  0.00    -0.398 N 
ATOM     11  H   UNL     1      -2.039  -0.208   0.020  0.00  0.00    +0.156 HD
ATOM     12  H   UNL     1      -1.202  -1.665   0.005  0.00  0.00    +0.156 HD
ENDROOT
BRANCH   5  13
ATOM     13  C   UNL     1       5.388   0.723  -1.300  0.00  0.00    +0.198 C 
BRANCH  13  14
ATOM     14  O   UNL     1       4.551   0.846  -2.451  0.00  0.00    -0.385 OA
ATOM     15  H   UNL     1       4.018   1.653  -2.465  0.00  0.00    +0.210 HD
ENDBRANCH  13  14
BRANCH  13  16
ATOM     16  C   UNL     1       6.359   1.904  -1.246  0.00  0.00    +0.259 C 
BRANCH  16  17
ATOM     17  C   UNL     1       7.125   1.984  -2.542  0.00  0.00    +0.387 C 
ATOM     18  O   UNL     1       6.979   2.945  -3.278  0.00  0.00    -0.243 OA
ATOM     19  O   UNL     1       7.891   1.088  -2.853  0.00  0.00    -0.243 OA
ENDBRANCH  16  17
BRANCH  16  20
ATOM     20  O   UNL     1       5.625   3.115  -1.052  0.00  0.00    -0.378 OA
ATOM     21  H   UNL     1       4.984   3.303  -1.751  0.00  0.00    +0.211 HD
ENDBRANCH  16  20
ENDBRANCH  13  16
ENDBRANCH   5  13
TORSDOF 5
