REMARK  Name = ZINC20918384
REMARK  8 active torsions:
REMARK  status: ('A' for Active; 'I' for Inactive)
REMARK    1  A    between atoms: C_1  and  C_2
REMARK    2  A    between atoms: C_5  and  C_8
REMARK    3  A    between atoms: N_9  and  N_10
REMARK    4  A    between atoms: C_14  and  S_17
REMARK    5  A    between atoms: N_15  and  N_16
REMARK    6  A    between atoms: S_17  and  C_18
REMARK    7  A    between atoms: C_18  and  C_19
REMARK    8  A    between atoms: C_19  and  C_20
REMARK                            x       y       z     vdW  Elec       q    Type
REMARK                         _______ _______ _______ _____ _____    ______ ____
ROOT
ATOM      1  N   UNL     1      -0.017   1.383   0.010  0.00  0.00    -0.204 N 
ATOM      2  C   UNL     1       0.002  -0.004   0.002  0.00  0.00    +0.254 A 
ATOM      3  N   UNL     1      -1.048  -0.789   0.014  0.00  0.00    -0.109 NA
ATOM      4  N   UNL     1      -0.597  -2.115  -0.003  0.00  0.00    -0.119 NA
ATOM      5  C   UNL     1       0.715  -2.097  -0.015  0.00  0.00    +0.210 A 
ATOM      6  N   UNL     1       1.119  -0.793  -0.013  0.00  0.00    -0.211 N 
ATOM      7  H   UNL     1       0.928   1.946   0.008  0.00  0.00    +0.177 HD
ENDROOT
BRANCH   6   8
ATOM      8  N   UNL     1       2.412  -0.353  -0.023  0.00  0.00    -0.294 N 
ATOM      9  H   UNL     1       3.240  -1.077  -0.035  0.00  0.00    +0.163 HD
ATOM     10  H   UNL     1       2.626   0.726  -0.020  0.00  0.00    +0.163 HD
ENDBRANCH   6   8
BRANCH   1  12
ATOM     11  C   UNL     1      -1.257   3.366   0.026  0.00  0.00    +0.138 C 
ATOM     12  N   UNL     1      -1.239   2.067   0.019  0.00  0.00    -0.188 NA
BRANCH  11  17
ATOM     13  C   UNL     1      -6.276   6.173   0.066  0.00  0.00    +0.044 C 
ATOM     14  C   UNL     1      -4.961   5.438   0.055  0.00  0.00    -0.050 A 
ATOM     15  C   UNL     1      -3.774   6.149   0.053  0.00  0.00    +0.004 A 
ATOM     16  C   UNL     1      -2.567   5.482   0.044  0.00  0.00    +0.010 A 
ATOM     17  C   UNL     1      -2.544   4.085   0.036  0.00  0.00    -0.005 A 
ATOM     18  C   UNL     1      -3.746   3.374   0.032  0.00  0.00    +0.010 A 
ATOM     19  C   UNL     1      -4.946   4.054   0.047  0.00  0.00    +0.004 A 
ENDBRANCH  11  17
ENDBRANCH   1  12
BRANCH   5  20
ATOM     20  S   UNL     1       1.770  -3.508  -0.033  0.00  0.00    -0.084 S 
BRANCH  20  21
ATOM     21  C   UNL     1       0.623  -4.914  -0.029  0.00  0.00    +0.086 C 
BRANCH  21  22
ATOM     22  C   UNL     1       1.418  -6.221  -0.043  0.00  0.00    +0.107 C 
BRANCH  22  23
ATOM     23  C   UNL     1       0.466  -7.389  -0.039  0.00  0.00    +0.219 C 
ATOM     24  O   UNL     1      -0.732  -7.194  -0.027  0.00  0.00    -0.275 OA
ATOM     25  N   UNL     1       0.944  -8.649  -0.050  0.00  0.00    -0.265 N 
ATOM     26  C   UNL     1       0.068  -9.722  -0.047  0.00  0.00    +0.165 A 
ATOM     27  N   UNL     1       0.340 -11.006  -0.056  0.00  0.00    -0.225 NA
ATOM     28  C   UNL     1      -0.624 -11.952  -0.051  0.00  0.00    +0.080 A 
ATOM     29  C   UNL     1      -0.469 -13.358  -0.059  0.00  0.00    +0.029 A 
ATOM     30  C   UNL     1      -1.562 -14.183  -0.052  0.00  0.00    +0.002 A 
ATOM     31  C   UNL     1      -2.854 -13.676  -0.037  0.00  0.00    +0.001 A 
ATOM     32  C   UNL     1      -3.043 -12.306  -0.029  0.00  0.00    +0.017 A 
ATOM     33  C   UNL     1      -1.954 -11.472  -0.036  0.00  0.00    +0.041 A 
ATOM     34  S   UNL     1      -1.719  -9.711  -0.022  0.00  0.00    -0.052 S 
ATOM     35  H   UNL     1       2.030  -8.825  -0.061  0.00  0.00    +0.157 HD
ENDBRANCH  22  23
ENDBRANCH  21  22
ENDBRANCH  20  21
ENDBRANCH   5  20
TORSDOF 7
