REMARK  Name = ZINC09126456
REMARK  5 active torsions:
REMARK  status: ('A' for Active; 'I' for Inactive)
REMARK    1  A    between atoms: C_4  and  C_7
REMARK    2  A    between atoms: C_10  and  C_25
REMARK    3  A    between atoms: C_13  and  C_15
REMARK    4  A    between atoms: C_15  and  S_16
REMARK    5  A    between atoms: S_16  and  C_17
REMARK                            x       y       z     vdW  Elec       q    Type
REMARK                         _______ _______ _______ _____ _____    ______ ____
ROOT
ATOM      1  C   UNL     1       4.806   0.536  -0.040  0.00  0.00    +0.137 C 
ATOM      2  C   UNL     1       3.825   1.725  -0.025  0.00  0.00    +0.087 C 
ATOM      3  C   UNL     1       2.462   1.072  -0.016  0.00  0.00    +0.069 C 
ATOM      4  N   UNL     1       2.598  -0.209  -0.018  0.00  0.00    -0.181 NA
ATOM      5  N   UNL     1       3.922  -0.641  -0.038  0.00  0.00    -0.184 N 
ATOM      6  C   UNL     1       4.328  -1.926  -0.048  0.00  0.00    +0.246 C 
ATOM      7  O   UNL     1       5.512  -2.188  -0.061  0.00  0.00    -0.273 OA
ENDROOT
BRANCH   3   8
ATOM      8  C   UNL     1       1.175   1.791   0.001  0.00  0.00    -0.002 A 
ATOM      9  C   UNL     1       1.160   3.198   0.009  0.00  0.00    +0.010 A 
ATOM     10  C   UNL     1      -0.012   3.882   0.024  0.00  0.00    +0.009 A 
ATOM     11  C   UNL     1      -1.234   3.185   0.031  0.00  0.00    -0.018 A 
ATOM     12  C   UNL     1      -2.459   3.871   0.046  0.00  0.00    +0.008 A 
ATOM     13  C   UNL     1      -3.626   3.170   0.035  0.00  0.00    +0.001 A 
ATOM     14  C   UNL     1      -3.626   1.776   0.028  0.00  0.00    +0.001 A 
ATOM     15  C   UNL     1      -2.459   1.076   0.019  0.00  0.00    +0.008 A 
ATOM     16  C   UNL     1      -1.233   1.767   0.018  0.00  0.00    -0.017 A 
ATOM     17  C   UNL     1      -0.013   1.076   0.008  0.00  0.00    +0.018 A 
ENDBRANCH   3   8
BRANCH   1  21
ATOM     18  C   UNL     1       7.268   0.575   3.451  0.00  0.00    +0.000 A 
ATOM     19  C   UNL     1       7.760   1.058   2.253  0.00  0.00    +0.000 A 
ATOM     20  C   UNL     1       6.963   1.045   1.123  0.00  0.00    +0.005 A 
ATOM     21  C   UNL     1       5.675   0.549   1.191  0.00  0.00    -0.025 A 
ATOM     22  C   UNL     1       5.181   0.071   2.391  0.00  0.00    +0.005 A 
ATOM     23  C   UNL     1       5.979   0.079   3.519  0.00  0.00    +0.000 A 
ENDBRANCH   1  21
BRANCH   6  24
ATOM     24  C   UNL     1       3.310  -3.037  -0.044  0.00  0.00    +0.175 C 
BRANCH  24  25
ATOM     25  S   UNL     1       4.161  -4.635  -0.060  0.00  0.00    -0.076 S 
BRANCH  25  26
ATOM     26  C   UNL     1       2.774  -5.721  -0.052  0.00  0.00    +0.195 A 
ATOM     27  N   UNL     1       1.540  -5.224  -0.032  0.00  0.00    -0.189 NA
ATOM     28  C   UNL     1       0.493  -6.043  -0.032  0.00  0.00    +0.218 A 
ATOM     29  N   UNL     1       0.680  -7.359  -0.040  0.00  0.00    -0.181 NA
ATOM     30  C   UNL     1       1.913  -7.856  -0.054  0.00  0.00    +0.218 A 
ATOM     31  N   UNL     1       2.959  -7.038  -0.061  0.00  0.00    -0.189 NA
ATOM     32  N   UNL     1       2.106  -9.223  -0.063  0.00  0.00    -0.327 N 
ATOM     33  N   UNL     1      -0.787  -5.527  -0.017  0.00  0.00    -0.327 N 
ATOM     34  H   UNL     1       3.005  -9.586  -0.074  0.00  0.00    +0.145 HD
ATOM     35  H   UNL     1       1.341  -9.821  -0.059  0.00  0.00    +0.145 HD
ATOM     36  H   UNL     1      -1.550  -6.125  -0.012  0.00  0.00    +0.145 HD
ATOM     37  H   UNL     1      -0.922  -4.567  -0.011  0.00  0.00    +0.145 HD
ENDBRANCH  25  26
ENDBRANCH  24  25
ENDBRANCH   6  24
TORSDOF 5
