REMARK  Name = ZINC36635762
REMARK  3 active torsions:
REMARK  status: ('A' for Active; 'I' for Inactive)
REMARK    1  A    between atoms: C_6  and  N_7
REMARK    2  A    between atoms: C_11  and  N_15
REMARK    3  A    between atoms: N_15  and  C_16
REMARK                            x       y       z     vdW  Elec       q    Type
REMARK                         _______ _______ _______ _____ _____    ______ ____
ROOT
ATOM      1  N   UNL     1      -1.203  -0.723   0.010  0.00  0.00    -0.209 N 
ATOM      2  C   UNL     1      -2.399  -0.131   0.118  0.00  0.00    +0.228 C 
ATOM      3  O   UNL     1      -2.585   1.063   0.218  0.00  0.00    -0.275 OA
ATOM      4  C   UNL     1      -3.481  -1.188   0.094  0.00  0.00    +0.128 C 
ATOM      5  C   UNL     1      -2.695  -2.507  -0.048  0.00  0.00    +0.166 C 
ATOM      6  C   UNL     1      -1.251  -2.057  -0.095  0.00  0.00    +0.247 C 
ATOM      7  O   UNL     1      -0.291  -2.788  -0.207  0.00  0.00    -0.273 OA
ENDROOT
BRANCH   1  13
ATOM      8  C   UNL     1       0.775   0.044  -1.150  0.00  0.00    +0.027 A 
ATOM      9  C   UNL     1       1.961   0.752  -1.156  0.00  0.00    +0.040 A 
ATOM     10  C   UNL     1       2.378   1.415  -0.014  0.00  0.00    +0.124 A 
ATOM     11  C   UNL     1       1.609   1.368   1.136  0.00  0.00    +0.040 A 
ATOM     12  C   UNL     1       0.423   0.660   1.146  0.00  0.00    +0.027 A 
ATOM     13  C   UNL     1       0.002  -0.004   0.002  0.00  0.00    +0.044 A 
ATOM     14  F   UNL     1       3.538   2.107  -0.022  0.00  0.00    -0.205 F 
ENDBRANCH   1  13
BRANCH   5  15
ATOM     15  N   UNL     1      -2.935  -3.377   1.107  0.00  0.00    -0.332 N 
ATOM     16  H   UNL     1      -3.199  -2.992   1.957  0.00  0.00    +0.147 HD
BRANCH  15  17
ATOM     17  C   UNL     1      -2.782  -4.760   0.983  0.00  0.00    +0.029 A 
ATOM     18  C   UNL     1      -2.398  -5.312  -0.233  0.00  0.00    +0.024 A 
ATOM     19  C   UNL     1      -2.248  -6.680  -0.353  0.00  0.00    +0.023 A 
ATOM     20  C   UNL     1      -2.481  -7.501   0.736  0.00  0.00    +0.059 A 
ATOM     21  C   UNL     1      -2.864  -6.954   1.949  0.00  0.00    +0.061 A 
ATOM     22  C   UNL     1      -3.009  -5.585   2.076  0.00  0.00    +0.044 A 
ATOM     23 CL   UNL     1      -3.156  -7.988   3.313  0.00  0.00    -0.082 Cl
ATOM     24 CL   UNL     1      -2.292  -9.220   0.581  0.00  0.00    -0.082 Cl
ENDBRANCH  15  17
ENDBRANCH   5  15
TORSDOF 3
