REMARK  Name = ZINC03285476
REMARK  10 active torsions:
REMARK  status: ('A' for Active; 'I' for Inactive)
REMARK    1  A    between atoms: C_1  and  N_2
REMARK    2  A    between atoms: C_3  and  N_29
REMARK    3  A    between atoms: C_4  and  C_11
REMARK    4  A    between atoms: N_7  and  C_10
REMARK    5  A    between atoms: C_11  and  C_13
REMARK    6  A    between atoms: C_13  and  S_14
REMARK    7  A    between atoms: S_14  and  C_15
REMARK    8  A    between atoms: C_17  and  C_20
REMARK    9  A    between atoms: C_20  and  O_21
REMARK   10  A    between atoms: O_21  and  C_22
REMARK                            x       y       z     vdW  Elec       q    Type
REMARK                         _______ _______ _______ _____ _____    ______ ____
ROOT
ATOM      1  C   UNL     1      -0.069   1.811  -0.016  0.00  0.00    +0.157 C 
ENDROOT
BRANCH   1   2
ATOM      2  C   UNL     1      -0.747   2.296   1.239  0.00  0.00    +0.182 C 
ATOM      3  O   UNL     1      -1.176   1.496   2.046  0.00  0.00    -0.291 OA
BRANCH   2   7
ATOM      4  C   UNL     1      -2.474   6.015   3.916  0.00  0.00    +0.155 C 
ATOM      5  N   UNL     1      -1.716   5.507   2.770  0.00  0.00    -0.284 N 
ATOM      6  C   UNL     1      -1.617   4.158   2.577  0.00  0.00    +0.116 A 
ATOM      7  C   UNL     1      -0.883   3.680   1.478  0.00  0.00    +0.120 A 
ATOM      8  C   UNL     1      -0.267   4.668   0.582  0.00  0.00    +0.269 A 
ATOM      9  O   UNL     1       0.375   4.311  -0.389  0.00  0.00    -0.267 OA
ATOM     10  N   UNL     1      -0.429   5.979   0.857  0.00  0.00    -0.263 N 
ATOM     11  C   UNL     1      -1.137   6.376   1.926  0.00  0.00    +0.333 A 
ATOM     12  O   UNL     1      -1.259   7.566   2.138  0.00  0.00    -0.246 OA
ATOM     13  C   UNL     1       0.176   6.982  -0.023  0.00  0.00    +0.157 C 
BRANCH   6  14
ATOM     14  N   UNL     1      -2.214   3.291   3.439  0.00  0.00    -0.344 N 
ATOM     15  H   UNL     1      -2.128   2.207   3.276  0.00  0.00    +0.144 HD
ATOM     16  H   UNL     1      -2.783   3.675   4.299  0.00  0.00    +0.144 HD
ENDBRANCH   6  14
ENDBRANCH   2   7
ENDBRANCH   1   2
BRANCH   1  17
ATOM     17  S   UNL     1      -0.051  -0.003  -0.031  0.00  0.00    -0.079 S 
BRANCH  17  18
ATOM     18  C   UNL     1       0.763  -0.408  -1.541  0.00  0.00    +0.185 A 
ATOM     19  N   UNL     1       1.014  -1.645  -1.982  0.00  0.00    -0.202 NA
ATOM     20  C   UNL     1       1.629  -1.587  -3.136  0.00  0.00    +0.189 A 
ATOM     21  N   UNL     1       1.787  -0.294  -3.463  0.00  0.00    -0.153 NA
ATOM     22  N   UNL     1       1.223   0.454  -2.417  0.00  0.00    -0.253 N 
ATOM     23  H   UNL     1       1.236   1.553  -2.457  0.00  0.00    +0.191 HD
BRANCH  20  24
ATOM     24  C   UNL     1       2.082  -2.768  -3.956  0.00  0.00    +0.306 C 
BRANCH  24  25
ATOM     25  O   UNL     1       2.724  -2.304  -5.145  0.00  0.00    -0.484 OA
BRANCH  25  26
ATOM     26  C   UNL     1       3.195  -3.248  -6.001  0.00  0.00    +0.121 A 
ATOM     27  C   UNL     1       3.047  -4.595  -5.699  0.00  0.00    +0.047 A 
ATOM     28  C   UNL     1       3.521  -5.553  -6.574  0.00  0.00    +0.019 A 
ATOM     29  C   UNL     1       4.154  -5.172  -7.744  0.00  0.00    +0.018 A 
ATOM     30  C   UNL     1       4.307  -3.830  -8.043  0.00  0.00    +0.019 A 
ATOM     31  C   UNL     1       3.829  -2.868  -7.175  0.00  0.00    +0.047 A 
ATOM     32 BR   UNL     1       4.808  -6.487  -8.935  0.00  0.00    -0.050 Br
ENDBRANCH  25  26
ENDBRANCH  24  25
ENDBRANCH  20  24
ENDBRANCH  17  18
ENDBRANCH   1  17
TORSDOF 8
