REMARK  Name = ZINC14473640
REMARK  7 active torsions:
REMARK  status: ('A' for Active; 'I' for Inactive)
REMARK    1  A    between atoms: C_1  and  O_2
REMARK    2  A    between atoms: O_2  and  C_3
REMARK    3  A    between atoms: C_6  and  N_9
REMARK    4  A    between atoms: N_9  and  S_10
REMARK    5  A    between atoms: S_10  and  C_13
REMARK    6  A    between atoms: C_26  and  C_29
REMARK    7  A    between atoms: C_34  and  O_35
REMARK                            x       y       z     vdW  Elec       q    Type
REMARK                         _______ _______ _______ _____ _____    ______ ____
ROOT
ATOM      1  C   UNL     1      -7.354   5.067  -0.132  0.00  0.00    +0.109 A 
ATOM      2  C   UNL     1      -6.524   4.388   0.742  0.00  0.00    +0.030 A 
ATOM      3  C   UNL     1      -5.453   5.034   1.324  0.00  0.00    +0.025 A 
ATOM      4  C   UNL     1      -5.199   6.370   1.038  0.00  0.00    +0.031 A 
ATOM      5  C   UNL     1      -6.049   7.054   0.162  0.00  0.00    -0.018 A 
ATOM      6  C   UNL     1      -7.113   6.398  -0.419  0.00  0.00    +0.034 A 
ATOM      7  C   UNL     1      -5.756   8.479  -0.100  0.00  0.00    +0.049 C 
ATOM      8  C   UNL     1      -6.169   9.146  -1.362  0.00  0.00    -0.023 C 
ATOM      9  C   UNL     1      -5.282  10.090  -1.654  0.00  0.00    -0.030 C 
ATOM     10  C   UNL     1      -4.168  10.103  -0.605  0.00  0.00    +0.033 C 
ATOM     11  C   UNL     1      -4.207   8.656  -0.095  0.00  0.00    +0.029 C 
ATOM     12  C   UNL     1      -3.777   8.414   1.340  0.00  0.00    +0.108 C 
ATOM     13  N   UNL     1      -4.086   6.994   1.615  0.00  0.00    -0.336 N 
ATOM     14  H   UNL     1      -3.507   6.486   2.204  0.00  0.00    +0.147 HD
ENDROOT
BRANCH  12  15
ATOM     15  C   UNL     1      -2.298   8.664   1.490  0.00  0.00    +0.014 A 
ATOM     16  C   UNL     1      -1.407   7.612   1.395  0.00  0.00    +0.009 A 
ATOM     17  C   UNL     1      -0.051   7.840   1.537  0.00  0.00    +0.001 A 
ATOM     18  C   UNL     1       0.418   9.121   1.763  0.00  0.00    +0.004 A 
ATOM     19  C   UNL     1      -0.469  10.176   1.852  0.00  0.00    +0.046 A 
ATOM     20  C   UNL     1      -1.831   9.950   1.716  0.00  0.00    +0.122 A 
BRANCH  20  21
ATOM     21  O   UNL     1      -2.705  10.986   1.804  0.00  0.00    -0.506 OA
ATOM     22  H   UNL     1      -2.892  11.416   0.958  0.00  0.00    +0.292 HD
ENDBRANCH  20  21
ENDBRANCH  12  15
BRANCH   1  23
ATOM     23  S   UNL     1      -8.716   4.237  -0.880  0.00  0.00    +0.072 S 
ATOM     24  O   UNL     1      -8.933   4.864  -2.137  0.00  0.00    -0.150 OA
ATOM     25  O   UNL     1      -8.459   2.844  -0.758  0.00  0.00    -0.150 OA
BRANCH  23  26
ATOM     26  N   UNL     1     -10.051   4.554   0.045  0.00  0.00    -0.216 N 
ATOM     27  H   UNL     1     -10.800   5.040  -0.335  0.00  0.00    +0.174 HD
BRANCH  26  31
ATOM     28  C   UNL     1     -10.197   3.267   4.007  0.00  0.00    +0.120 A 
ATOM     29  C   UNL     1      -9.974   4.606   3.721  0.00  0.00    +0.047 A 
ATOM     30  C   UNL     1      -9.926   5.033   2.409  0.00  0.00    +0.028 A 
ATOM     31  C   UNL     1     -10.100   4.122   1.375  0.00  0.00    +0.048 A 
ATOM     32  C   UNL     1     -10.328   2.783   1.663  0.00  0.00    +0.028 A 
ATOM     33  C   UNL     1     -10.371   2.356   2.975  0.00  0.00    +0.047 A 
BRANCH  28  35
ATOM     34  C   UNL     1     -10.478   1.454   5.521  0.00  0.00    +0.277 C 
ATOM     35  O   UNL     1     -10.245   2.847   5.300  0.00  0.00    -0.495 OA
ENDBRANCH  28  35
ENDBRANCH  26  31
ENDBRANCH  23  26
ENDBRANCH   1  23
TORSDOF 6
