REMARK  Name = ZINC14531672
REMARK  11 active torsions:
REMARK  status: ('A' for Active; 'I' for Inactive)
REMARK    1  A    between atoms: C_1  and  C_2
REMARK    2  A    between atoms: C_2  and  C_3
REMARK    3  A    between atoms: C_2  and  N_4
REMARK    4  A    between atoms: N_4  and  S_5
REMARK    5  A    between atoms: S_5  and  C_8
REMARK    6  A    between atoms: C_10  and  C_23
REMARK    7  A    between atoms: C_12  and  N_14
REMARK    8  A    between atoms: N_14  and  C_15
REMARK    9  A    between atoms: C_15  and  C_16
REMARK   10  A    between atoms: C_21  and  O_22
REMARK   11  A    between atoms: N_25  and  C_26
REMARK                            x       y       z     vdW  Elec       q    Type
REMARK                         _______ _______ _______ _____ _____    ______ ____
ROOT
ATOM      1  C   UNL     1      -3.081   5.513   3.606  0.00  0.00    +0.108 A 
ATOM      2  C   UNL     1      -2.475   5.039   2.460  0.00  0.00    +0.041 A 
ATOM      3  C   UNL     1      -1.882   3.775   2.455  0.00  0.00    +0.040 A 
ATOM      4  C   UNL     1      -1.910   2.993   3.609  0.00  0.00    +0.036 A 
ATOM      5  C   UNL     1      -2.516   3.480   4.757  0.00  0.00    +0.030 A 
ATOM      6  C   UNL     1      -3.104   4.740   4.751  0.00  0.00    +0.051 A 
ENDROOT
BRANCH   3   7
ATOM      7  C   UNL     1      -1.233   3.265   1.228  0.00  0.00    +0.244 C 
ATOM      8  O   UNL     1      -1.215   3.947   0.222  0.00  0.00    -0.270 OA
ATOM      9  N   UNL     1      -0.662   2.045   1.226  0.00  0.00    -0.308 N 
ATOM     10  H   UNL     1      -0.676   1.501   2.029  0.00  0.00    +0.149 HD
BRANCH   9  11
ATOM     11  C   UNL     1      -0.019   1.539   0.011  0.00  0.00    +0.082 C 
ATOM     12  C   UNL     1       1.484   1.891  -0.002  0.00  0.00    +0.058 C 
ATOM     13  C   UNL     1       2.162   0.710  -0.663  0.00  0.00    -0.042 A 
ATOM     14  C   UNL     1       3.423   0.597  -1.223  0.00  0.00    +0.004 A 
ATOM     15  C   UNL     1       3.833  -0.599  -1.778  0.00  0.00    +0.000 A 
ATOM     16  C   UNL     1       2.982  -1.688  -1.776  0.00  0.00    +0.000 A 
ATOM     17  C   UNL     1       1.723  -1.578  -1.218  0.00  0.00    +0.004 A 
ATOM     18  C   UNL     1       1.310  -0.379  -0.661  0.00  0.00    -0.042 A 
ATOM     19  C   UNL     1       0.002  -0.004   0.002  0.00  0.00    +0.058 C 
ENDBRANCH   9  11
ENDBRANCH   3   7
BRANCH   1  20
ATOM     20  S   UNL     1      -3.828   7.109   3.609  0.00  0.00    +0.059 S 
ATOM     21  O   UNL     1      -3.850   7.544   4.961  0.00  0.00    -0.153 OA
ATOM     22  O   UNL     1      -3.196   7.855   2.578  0.00  0.00    -0.153 OA
BRANCH  20  23
ATOM     23  N   UNL     1      -5.407   6.910   3.150  0.00  0.00    -0.187 NA
ATOM     24  H   UNL     1      -5.722   7.297   2.318  0.00  0.00    +0.148 HD
BRANCH  23  26
ATOM     25  C   UNL     1      -7.723   6.773   3.922  0.00  0.00    +0.025 C 
ATOM     26  C   UNL     1      -6.327   6.152   4.000  0.00  0.00    +0.070 C 
ATOM     27  C   UNL     1      -6.387   4.700   3.518  0.00  0.00    +0.025 C 
ENDBRANCH  23  26
ENDBRANCH  20  23
ENDBRANCH   1  20
BRANCH   5  28
ATOM     28  N   UNL     1      -2.542   2.702   5.917  0.00  0.00    -0.340 N 
ATOM     29  H   UNL     1      -2.970   3.041   6.719  0.00  0.00    +0.146 HD
BRANCH  28  30
ATOM     30  C   UNL     1      -1.923   1.374   5.923  0.00  0.00    +0.140 C 
BRANCH  30  31
ATOM     31  C   UNL     1      -2.088   0.749   7.285  0.00  0.00    +0.011 A 
ATOM     32  C   UNL     1      -1.040   0.766   8.184  0.00  0.00    +0.009 A 
ATOM     33  C   UNL     1      -1.192   0.197   9.435  0.00  0.00    +0.001 A 
ATOM     34  C   UNL     1      -2.389  -0.400   9.785  0.00  0.00    +0.004 A 
ATOM     35  C   UNL     1      -3.438  -0.423   8.887  0.00  0.00    +0.046 A 
ATOM     36  C   UNL     1      -3.290   0.152   7.633  0.00  0.00    +0.122 A 
BRANCH  36  37
ATOM     37  O   UNL     1      -4.321   0.129   6.748  0.00  0.00    -0.506 OA
ATOM     38  H   UNL     1      -4.328  -0.648   6.173  0.00  0.00    +0.292 HD
ENDBRANCH  36  37
ENDBRANCH  30  31
ENDBRANCH  28  30
ENDBRANCH   5  28
TORSDOF 9
