REMARK  Name = ZINC27526234
REMARK  7 active torsions:
REMARK  status: ('A' for Active; 'I' for Inactive)
REMARK    1  A    between atoms: C_4  and  S_7
REMARK    2  A    between atoms: S_7  and  N_10
REMARK    3  A    between atoms: N_10  and  N_11
REMARK    4  A    between atoms: C_12  and  C_14
REMARK    5  A    between atoms: C_21  and  C_24
REMARK    6  A    between atoms: C_22  and  N_23
REMARK    7  A    between atoms: C_24  and  C_26
REMARK                            x       y       z     vdW  Elec       q    Type
REMARK                         _______ _______ _______ _____ _____    ______ ____
ROOT
ATOM      1  C   UNL     1      -2.266   4.112   0.054  0.00  0.00    +0.084 A 
ATOM      2  C   UNL     1      -1.219   3.162   0.029  0.00  0.00    +0.061 A 
ATOM      3  C   UNL     1      -1.233   1.762   0.011  0.00  0.00    +0.027 A 
ATOM      4  C   UNL     1      -0.050   1.079  -0.009  0.00  0.00    +0.003 A 
ATOM      5  C   UNL     1       1.155   1.793  -0.023  0.00  0.00    +0.018 A 
ATOM      6  C   UNL     1       1.144   3.146  -0.011  0.00  0.00    +0.092 A 
ATOM      7  N   UNL     1      -0.031   3.834   0.015  0.00  0.00    -0.311 N 
ATOM      8  C   UNL     1      -0.288   5.198   0.031  0.00  0.00    +0.116 A 
ATOM      9  C   UNL     1      -1.669   5.388   0.055  0.00  0.00    +0.067 A 
ENDROOT
BRANCH   1  11
ATOM     10  N   UNL     1      -4.380   3.702  -1.082  0.00  0.00    -0.228 N 
ATOM     11  C   UNL     1      -3.700   3.825   0.075  0.00  0.00    +0.263 C 
ATOM     12  O   UNL     1      -4.279   3.696   1.139  0.00  0.00    -0.269 OA
ATOM     13  H   UNL     1      -3.857   3.819  -2.042  0.00  0.00    +0.171 HD
BRANCH  10  14
ATOM     14  N   UNL     1      -5.753   3.426  -1.061  0.00  0.00    -0.108 NA
ATOM     15  H   UNL     1      -6.086   2.652  -0.581  0.00  0.00    +0.172 HD
BRANCH  14  16
ATOM     16  S   UNL     1      -6.810   4.422  -1.858  0.00  0.00    +0.074 S 
ATOM     17  O   UNL     1      -8.088   3.808  -1.775  0.00  0.00    -0.152 OA
ATOM     18  O   UNL     1      -6.565   5.739  -1.382  0.00  0.00    -0.152 OA
BRANCH  16  22
ATOM     19  C   UNL     1      -5.641   4.390  -6.231  0.00  0.00    +0.000 A 
ATOM     20  C   UNL     1      -6.552   3.467  -5.752  0.00  0.00    +0.002 A 
ATOM     21  C   UNL     1      -6.909   3.477  -4.417  0.00  0.00    +0.028 A 
ATOM     22  C   UNL     1      -6.355   4.410  -3.560  0.00  0.00    +0.107 A 
ATOM     23  C   UNL     1      -5.448   5.336  -4.040  0.00  0.00    +0.028 A 
ATOM     24  C   UNL     1      -5.088   5.324  -5.375  0.00  0.00    +0.002 A 
ENDBRANCH  16  22
ENDBRANCH  14  16
ENDBRANCH  10  14
ENDBRANCH   1  11
BRANCH   9  25
ATOM     25  N   UNL     1      -2.330   6.605   0.076  0.00  0.00    -0.356 N 
ATOM     26  H   UNL     1      -1.756   7.543   0.075  0.00  0.00    +0.142 HD
ATOM     27  H   UNL     1      -3.429   6.633   0.095  0.00  0.00    +0.142 HD
ENDBRANCH   9  25
BRANCH   8  28
ATOM     28  C   UNL     1       0.683   6.218   0.024  0.00  0.00    +0.212 C 
ATOM     29  O   UNL     1       1.028   6.724  -1.030  0.00  0.00    -0.285 OA
BRANCH  28  30
ATOM     30  C   UNL     1       1.283   6.676   1.297  0.00  0.00    +0.024 A 
ATOM     31  C   UNL     1       0.970   6.028   2.493  0.00  0.00    +0.013 A 
ATOM     32  C   UNL     1       1.536   6.457   3.675  0.00  0.00    +0.016 A 
ATOM     33  C   UNL     1       2.406   7.535   3.678  0.00  0.00    +0.018 A 
ATOM     34  C   UNL     1       2.716   8.185   2.496  0.00  0.00    +0.016 A 
ATOM     35  C   UNL     1       2.160   7.762   1.307  0.00  0.00    +0.013 A 
ATOM     36 BR   UNL     1       3.173   8.120   5.304  0.00  0.00    -0.050 Br
ENDBRANCH  28  30
ENDBRANCH   8  28
TORSDOF 7
