REMARK  Name = ZINC15276447
REMARK  10 active torsions:
REMARK  status: ('A' for Active; 'I' for Inactive)
REMARK    1  A    between atoms: C_1  and  O_2
REMARK    2  A    between atoms: O_2  and  C_3
REMARK    3  A    between atoms: C_6  and  C_11
REMARK    4  A    between atoms: C_8  and  O_9
REMARK    5  A    between atoms: O_9  and  C_10
REMARK    6  A    between atoms: C_13  and  C_35
REMARK    7  A    between atoms: C_18  and  C_20
REMARK    8  A    between atoms: C_20  and  O_22
REMARK    9  A    between atoms: O_22  and  C_23
REMARK   10  A    between atoms: C_23  and  C_24
REMARK                            x       y       z     vdW  Elec       q    Type
REMARK                         _______ _______ _______ _____ _____    ______ ____
ROOT
ATOM      1  C   UNL     1       1.199   1.806   0.000  0.00  0.00    +0.075 A 
ATOM      2  C   UNL     1      -0.013   1.076   0.008  0.00  0.00    +0.060 A 
ATOM      3  C   UNL     1      -1.188   1.742   0.017  0.00  0.00    +0.149 A 
ATOM      4  N   UNL     1      -1.182   3.111   0.030  0.00  0.00    -0.209 N 
ATOM      5  C   UNL     1       0.011   3.790   0.022  0.00  0.00    +0.157 A 
ATOM      6  N   UNL     1       1.175   3.127   0.008  0.00  0.00    -0.228 NA
ATOM      7  C   UNL     1      -0.289   5.144   0.033  0.00  0.00    +0.085 A 
ATOM      8  C   UNL     1      -1.683   5.268   0.047  0.00  0.00    +0.172 A 
ATOM      9  N   UNL     1      -2.215   4.055   0.045  0.00  0.00    -0.158 NA
ENDROOT
BRANCH   1  13
ATOM     10  C   UNL     1       4.919  -0.257  -0.048  0.00  0.00    +0.162 A 
ATOM     11  C   UNL     1       3.729  -0.971  -0.040  0.00  0.00    +0.050 A 
ATOM     12  C   UNL     1       2.522  -0.305  -0.019  0.00  0.00    +0.014 A 
ATOM     13  C   UNL     1       2.494   1.090  -0.016  0.00  0.00    +0.004 A 
ATOM     14  C   UNL     1       3.690   1.809  -0.024  0.00  0.00    +0.059 A 
ATOM     15  C   UNL     1       4.898   1.136  -0.040  0.00  0.00    +0.162 A 
BRANCH  10  17
ATOM     16  C   UNL     1       6.054  -2.345  -0.071  0.00  0.00    +0.277 C 
ATOM     17  O   UNL     1       6.106  -0.917  -0.063  0.00  0.00    -0.491 OA
ENDBRANCH  10  17
BRANCH  15  18
ATOM     18  O   UNL     1       6.065   1.834  -0.048  0.00  0.00    -0.491 OA
ATOM     19  C   UNL     1       5.969   3.260  -0.039  0.00  0.00    +0.277 C 
ENDBRANCH  15  18
ENDBRANCH   1  13
BRANCH   3  20
ATOM     20  C   UNL     1      -2.492   0.986   0.018  0.00  0.00    +0.434 C 
ATOM     21  F   UNL     1      -2.236  -0.385   0.124  0.00  0.00    -0.164 F 
ATOM     22  F   UNL     1      -3.270   1.401   1.105  0.00  0.00    -0.164 F 
ATOM     23  F   UNL     1      -3.180   1.242  -1.172  0.00  0.00    -0.164 F 
ENDBRANCH   3  20
BRANCH   8  24
ATOM     24  C   UNL     1      -2.436   6.539   0.060  0.00  0.00    +0.360 C 
ATOM     25  O   UNL     1      -1.840   7.598   0.060  0.00  0.00    -0.243 OA
BRANCH  24  26
ATOM     26  O   UNL     1      -3.783   6.524   0.073  0.00  0.00    -0.460 OA
BRANCH  26  27
ATOM     27  C   UNL     1      -4.456   7.811   0.086  0.00  0.00    +0.234 C 
BRANCH  27  28
ATOM     28  C   UNL     1      -5.971   7.593   0.100  0.00  0.00    +0.013 C 
ATOM     29  C   UNL     1      -6.373   6.903   1.403  0.00  0.00    +0.003 C 
ATOM     30  C   UNL     1      -6.011   7.819   2.577  0.00  0.00    -0.018 C 
ATOM     31  C   UNL     1      -6.742   9.150   2.407  0.00  0.00    -0.078 C 
ATOM     32  C   UNL     1      -6.680   8.947  -0.013  0.00  0.00    -0.062 C 
ATOM     33  C   UNL     1      -6.215   9.622  -1.307  0.00  0.00    -0.015 C 
ATOM     34  C   UNL     1      -6.866  11.000  -1.438  0.00  0.00    -0.003 C 
ATOM     35  C   UNL     1      -6.493  11.837  -0.210  0.00  0.00    -0.019 C 
ATOM     36  C   UNL     1      -6.977  11.113   1.046  0.00  0.00    -0.078 C 
ATOM     37  N   UNL     1      -6.322   9.798   1.150  0.00  0.00    +0.382 N 
ATOM     38  H   UNL     1      -5.303   9.930   1.163  0.00  0.00    -0.081 HD
ENDBRANCH  27  28
ENDBRANCH  26  27
ENDBRANCH  24  26
ENDBRANCH   8  24
TORSDOF 8
