REMARK  Name = ZINC32501028
REMARK  4 active torsions:
REMARK  status: ('A' for Active; 'I' for Inactive)
REMARK    1  A    between atoms: C_3  and  C_8
REMARK    2  A    between atoms: C_5  and  O_7
REMARK    3  A    between atoms: C_8  and  C_9
REMARK    4  A    between atoms: N_12  and  N_17
REMARK                            x       y       z     vdW  Elec       q    Type
REMARK                         _______ _______ _______ _____ _____    ______ ____
ROOT
ATOM      1  C   UNL     1       2.877   4.196  -1.423  0.00  0.00    +0.134 A 
ATOM      2  C   UNL     1       4.064   4.909  -1.695  0.00  0.00    +0.293 A 
ATOM      3  O   UNL     1       4.769   5.322  -0.789  0.00  0.00    -0.264 OA
ATOM      4  N   UNL     1       4.402   5.117  -2.989  0.00  0.00    -0.206 N 
ATOM      5  C   UNL     1       3.577   4.639  -3.962  0.00  0.00    +0.221 A 
ATOM      6  N   UNL     1       2.474   3.982  -3.642  0.00  0.00    -0.121 NA
ATOM      7  N   UNL     1       2.138   3.770  -2.421  0.00  0.00    -0.146 NA
ATOM      8  S   UNL     1       3.981   4.897  -5.658  0.00  0.00    -0.008 S 
ENDROOT
BRANCH   4   9
ATOM      9  N   UNL     1       5.543   5.795  -3.312  0.00  0.00    -0.293 N 
ATOM     10  H   UNL     1       5.806   5.958  -4.367  0.00  0.00    +0.163 HD
ATOM     11  H   UNL     1       6.198   6.180  -2.516  0.00  0.00    +0.163 HD
ENDBRANCH   4   9
BRANCH   1  12
ATOM     12  C   UNL     1       2.457   3.933   0.000  0.00  0.00    +0.098 C 
BRANCH  12  15
ATOM     13  C   UNL     1      -0.013   1.076   0.008  0.00  0.00    +0.004 A 
ATOM     14  C   UNL     1       1.176   1.783   0.000  0.00  0.00    +0.004 A 
ATOM     15  C   UNL     1       1.161   3.165   0.008  0.00  0.00    -0.038 A 
ATOM     16  C   UNL     1      -0.043   3.844   0.023  0.00  0.00    +0.049 A 
ATOM     17  C   UNL     1      -1.236   3.137   0.030  0.00  0.00    +0.117 A 
ATOM     18  C   UNL     1      -1.218   1.750   0.017  0.00  0.00    +0.045 A 
BRANCH  17  19
ATOM     19  O   UNL     1      -2.421   3.802   0.045  0.00  0.00    -0.507 OA
ATOM     20  H   UNL     1      -3.367   3.240   0.050  0.00  0.00    +0.292 HD
ENDBRANCH  17  19
ENDBRANCH  12  15
ENDBRANCH   1  12
TORSDOF 4
