REMARK  Name = ZINC42014657
REMARK  4 active torsions:
REMARK  status: ('A' for Active; 'I' for Inactive)
REMARK    1  A    between atoms: C_1  and  C_2
REMARK    2  A    between atoms: C_3  and  C_9
REMARK    3  A    between atoms: C_7  and  N_8
REMARK    4  A    between atoms: N_13  and  C_14
REMARK                            x       y       z     vdW  Elec       q    Type
REMARK                         _______ _______ _______ _____ _____    ______ ____
ROOT
ATOM      1  C   UNL     1      -0.061   0.041  -2.491  0.00  0.00    +0.187 A 
ATOM      2  N   UNL     1      -0.146   1.347  -2.639  0.00  0.00    -0.108 NA
ATOM      3  N   UNL     1      -0.067   1.666  -3.880  0.00  0.00    -0.022 NA
ATOM      4  N   UNL     1       0.071   0.613  -4.610  0.00  0.00    -0.039 NA
ATOM      5  N   UNL     1       0.086  -0.490  -3.739  0.00  0.00    -0.193 N 
ENDROOT
BRANCH   1   8
ATOM      6  C   UNL     1      -2.161   0.605  -0.583  0.00  0.00    +0.046 C 
ATOM      7  C   UNL     1      -1.119  -0.443  -0.288  0.00  0.00    -0.019 A 
ATOM      8  C   UNL     1      -0.111  -0.707  -1.215  0.00  0.00    +0.026 A 
ATOM      9  C   UNL     1       0.851  -1.678  -0.935  0.00  0.00    +0.012 A 
ATOM     10  C   UNL     1       0.803  -2.375   0.255  0.00  0.00    +0.002 A 
ATOM     11  C   UNL     1      -0.196  -2.114   1.174  0.00  0.00    +0.023 A 
ATOM     12  C   UNL     1      -1.155  -1.144   0.907  0.00  0.00    +0.028 A 
BRANCH  12  13
ATOM     13  N   UNL     1      -2.160  -0.880   1.841  0.00  0.00    -0.358 N 
ATOM     14  H   UNL     1      -2.832  -0.206   1.653  0.00  0.00    +0.142 HD
ATOM     15  H   UNL     1      -2.186  -1.370   2.678  0.00  0.00    +0.142 HD
ENDBRANCH  12  13
ENDBRANCH   1   8
BRANCH   5  16
ATOM     16  C   UNL     1       0.220  -1.843  -4.079  0.00  0.00    +0.070 A 
ATOM     17  C   UNL     1      -0.577  -2.798  -3.461  0.00  0.00    +0.028 A 
ATOM     18  C   UNL     1      -0.443  -4.131  -3.798  0.00  0.00    +0.003 A 
ATOM     19  C   UNL     1       0.483  -4.515  -4.750  0.00  0.00    +0.015 A 
ATOM     20  C   UNL     1       1.279  -3.567  -5.367  0.00  0.00    +0.020 A 
ATOM     21  C   UNL     1       1.146  -2.231  -5.038  0.00  0.00    +0.043 A 
ATOM     22 BR   UNL     1       2.545  -4.097  -6.668  0.00  0.00    -0.050 Br
ENDBRANCH   5  16
TORSDOF 3
