REMARK  Name = ZINC09937241
REMARK  10 active torsions:
REMARK  status: ('A' for Active; 'I' for Inactive)
REMARK    1  A    between atoms: C_1  and  C_2
REMARK    2  A    between atoms: C_5  and  N_9
REMARK    3  A    between atoms: C_6  and  C_8
REMARK    4  A    between atoms: C_10  and  C_12
REMARK    5  A    between atoms: C_13  and  C_36
REMARK    6  A    between atoms: C_17  and  C_18
REMARK    7  A    between atoms: C_23  and  N_35
REMARK    8  A    between atoms: C_24  and  C_26
REMARK    9  A    between atoms: N_28  and  C_29
REMARK   10  A    between atoms: C_29  and  C_30
REMARK                            x       y       z     vdW  Elec       q    Type
REMARK                         _______ _______ _______ _____ _____    ______ ____
ROOT
ATOM      1  C   UNL     1      -2.336   2.676  -8.106  0.00  0.00    +0.069 A 
ATOM      2  C   UNL     1      -3.366   3.388  -7.482  0.00  0.00    +0.052 A 
ATOM      3  N   UNL     1      -3.441   3.439  -6.170  0.00  0.00    -0.244 NA
ATOM      4  C   UNL     1      -2.563   2.834  -5.393  0.00  0.00    +0.112 A 
ATOM      5  C   UNL     1      -1.478   2.085  -5.901  0.00  0.00    +0.040 A 
ATOM      6  C   UNL     1      -1.372   2.011  -7.324  0.00  0.00    +0.043 A 
ATOM      7  C   UNL     1      -0.611   1.493  -4.899  0.00  0.00    +0.054 A 
ATOM      8  C   UNL     1      -0.913   1.697  -3.568  0.00  0.00    +0.097 A 
ATOM      9  S   UNL     1      -2.379   2.709  -3.631  0.00  0.00    -0.062 S 
ATOM     10  C   UNL     1      -4.397   4.099  -8.320  0.00  0.00    +0.066 C 
ENDROOT
BRANCH   6  11
ATOM     11  C   UNL     1      -0.281   1.258  -7.958  0.00  0.00    +0.136 A 
ATOM     12  C   UNL     1      -0.420   0.135  -8.720  0.00  0.00    +0.050 A 
ATOM     13  C   UNL     1       0.873  -0.244  -9.120  0.00  0.00    +0.042 A 
ATOM     14  C   UNL     1       1.732   0.649  -8.583  0.00  0.00    +0.196 A 
ATOM     15  O   UNL     1       1.032   1.553  -7.883  0.00  0.00    -0.463 OA
ENDBRANCH   6  11
BRANCH   1  17
ATOM     16  N   UNL     1      -1.561   3.558 -10.248  0.00  0.00    -0.281 N 
ATOM     17  C   UNL     1      -2.260   2.622  -9.574  0.00  0.00    +0.251 C 
ATOM     18  O   UNL     1      -2.827   1.733 -10.181  0.00  0.00    -0.270 OA
ATOM     19  H   UNL     1      -1.176   4.311  -9.773  0.00  0.00    +0.155 HD
BRANCH  16  24
ATOM     20  C   UNL     1      -0.876   3.093 -15.859  0.00  0.00    +0.044 C 
ATOM     21  C   UNL     1      -1.058   3.217 -14.368  0.00  0.00    -0.050 A 
ATOM     22  C   UNL     1      -1.292   2.087 -13.606  0.00  0.00    +0.005 A 
ATOM     23  C   UNL     1      -1.459   2.196 -12.240  0.00  0.00    +0.024 A 
ATOM     24  C   UNL     1      -1.392   3.443 -11.631  0.00  0.00    +0.037 A 
ATOM     25  C   UNL     1      -1.162   4.576 -12.400  0.00  0.00    -0.029 A 
ATOM     26  C   UNL     1      -0.991   4.459 -13.766  0.00  0.00    +0.008 A 
ATOM     27  C   UNL     1      -1.094   5.932 -11.745  0.00  0.00    +0.045 C 
ENDBRANCH  16  24
ENDBRANCH   1  17
BRANCH   8  28
ATOM     28  C   UNL     1      -0.222   1.222  -2.428  0.00  0.00    +0.253 C 
ATOM     29  O   UNL     1       0.775   0.534  -2.562  0.00  0.00    -0.270 OA
ATOM     30  N   UNL     1      -0.666   1.530  -1.193  0.00  0.00    -0.304 N 
ATOM     31  H   UNL     1      -1.460   2.077  -1.086  0.00  0.00    +0.149 HD
BRANCH  30  32
ATOM     32  C   UNL     1       0.049   1.038  -0.013  0.00  0.00    +0.179 C 
BRANCH  32  33
ATOM     33  C   UNL     1      -0.647   1.520   1.233  0.00  0.00    +0.122 A 
ATOM     34  C   UNL     1      -1.630   0.873   1.885  0.00  0.00    +0.046 A 
ATOM     35  C   UNL     1      -1.988   1.679   2.991  0.00  0.00    +0.041 A 
ATOM     36  C   UNL     1      -1.201   2.769   2.949  0.00  0.00    +0.195 A 
ATOM     37  O   UNL     1      -0.388   2.665   1.885  0.00  0.00    -0.466 OA
ENDBRANCH  32  33
ENDBRANCH  30  32
ENDBRANCH   8  28
BRANCH   7  38
ATOM     38  N   UNL     1       0.494   0.739  -5.270  0.00  0.00    -0.356 N 
ATOM     39  H   UNL     1       1.064   0.347  -4.590  0.00  0.00    +0.142 HD
ATOM     40  H   UNL     1       0.696   0.604  -6.209  0.00  0.00    +0.142 HD
ENDBRANCH   7  38
TORSDOF 7
