REMARK  Name = ZINC16022037
REMARK  8 active torsions:
REMARK  status: ('A' for Active; 'I' for Inactive)
REMARK    1  A    between atoms: C_1  and  C_2
REMARK    2  A    between atoms: C_2  and  C_4
REMARK    3  A    between atoms: C_2  and  O_32
REMARK    4  A    between atoms: N_12  and  C_15
REMARK    5  A    between atoms: C_15  and  C_16
REMARK    6  A    between atoms: C_16  and  C_17
REMARK    7  A    between atoms: C_17  and  O_18
REMARK    8  A    between atoms: O_18  and  C_19
REMARK                            x       y       z     vdW  Elec       q    Type
REMARK                         _______ _______ _______ _____ _____    ______ ____
ROOT
ATOM      1  C   UNL     1       0.718  -0.497  -1.257  0.00  0.00    +0.096 C 
ATOM      2  C   UNL     1       0.718  -2.040  -1.305  0.00  0.00    +0.109 C 
ATOM      3  C   UNL     1       0.515  -2.393  -2.805  0.00  0.00    +0.122 C 
ATOM      4  C   UNL     1      -0.832  -3.082  -2.820  0.00  0.00    +0.228 C 
ATOM      5  O   UNL     1      -1.378  -3.531  -3.805  0.00  0.00    -0.275 OA
ATOM      6  N   UNL     1      -1.327  -3.119  -1.577  0.00  0.00    -0.241 N 
ATOM      7  C   UNL     1      -0.532  -2.561  -0.635  0.00  0.00    +0.227 C 
ATOM      8  O   UNL     1      -0.775  -2.485   0.550  0.00  0.00    -0.275 OA
ATOM      9  C   UNL     1       0.422  -1.034  -3.511  0.00  0.00    +0.136 C 
ATOM     10  N   UNL     1      -0.024  -0.074  -2.474  0.00  0.00    -0.293 NA
ATOM     11  C   UNL     1       1.736  -0.642  -4.124  0.00  0.00    +0.006 A 
ATOM     12  C   UNL     1       2.997  -0.434  -3.610  0.00  0.00    +0.046 A 
ATOM     13  C   UNL     1       4.037  -0.071  -4.451  0.00  0.00    +0.124 A 
ATOM     14  C   UNL     1       3.804   0.081  -5.807  0.00  0.00    +0.040 A 
ATOM     15  C   UNL     1       2.541  -0.126  -6.324  0.00  0.00    +0.026 A 
ATOM     16  C   UNL     1       1.491  -0.491  -5.485  0.00  0.00    +0.039 A 
ATOM     17  N   UNL     1       0.147  -0.751  -5.765  0.00  0.00    -0.283 N 
ATOM     18  C   UNL     1      -0.549  -1.076  -4.659  0.00  0.00    +0.243 C 
ATOM     19  O   UNL     1      -1.729  -1.350  -4.600  0.00  0.00    -0.273 OA
ATOM     20  F   UNL     1       5.274   0.134  -3.949  0.00  0.00    -0.205 F 
ATOM     21  H   UNL     1      -1.021  -0.126  -2.325  0.00  0.00    +0.124 HD
ATOM     22  H   UNL     1      -0.240  -0.703  -6.653  0.00  0.00    +0.155 HD
ENDROOT
BRANCH   1  24
ATOM     23  C   UNL     1       0.853  -0.326   1.232  0.00  0.00    +0.039 C 
ATOM     24  C   UNL     1       0.002  -0.004   0.002  0.00  0.00    +0.129 C 
BRANCH  24  25
ATOM     25  O   UNL     1      -0.194   1.409  -0.085  0.00  0.00    -0.390 OA
ATOM     26  H   UNL     1      -0.644   1.791   0.681  0.00  0.00    +0.210 HD
ENDBRANCH  24  25
ENDBRANCH   1  24
BRANCH   6  27
ATOM     27  C   UNL     1      -2.624  -3.721  -1.259  0.00  0.00    +0.118 C 
BRANCH  27  28
ATOM     28  C   UNL     1      -2.430  -5.202  -0.929  0.00  0.00    +0.047 C 
BRANCH  28  29
ATOM     29  C   UNL     1      -3.785  -5.832  -0.596  0.00  0.00    +0.161 C 
BRANCH  29  30
ATOM     30  O   UNL     1      -3.604  -7.215  -0.288  0.00  0.00    -0.383 OA
ATOM     31  C   UNL     1      -4.815  -7.901   0.039  0.00  0.00    +0.193 C 
ENDBRANCH  29  30
ENDBRANCH  28  29
ENDBRANCH  27  28
ENDBRANCH   6  27
TORSDOF 6
