REMARK  Name = ZINC36040564
REMARK  13 active torsions:
REMARK  status: ('A' for Active; 'I' for Inactive)
REMARK    1  A    between atoms: C_1  and  C_2
REMARK    2  A    between atoms: C_2  and  C_3
REMARK    3  A    between atoms: C_2  and  C_4
REMARK    4  A    between atoms: C_2  and  N_5
REMARK    5  A    between atoms: N_8  and  C_9
REMARK    6  A    between atoms: N_8  and  C_15
REMARK    7  A    between atoms: C_9  and  C_10
REMARK    8  A    between atoms: C_15  and  C_16
REMARK    9  A    between atoms: C_19  and  S_28
REMARK   10  A    between atoms: N_20  and  C_21
REMARK   11  A    between atoms: C_21  and  C_22
REMARK   12  A    between atoms: S_28  and  C_31
REMARK   13  A    between atoms: C_31  and  C_32
REMARK                            x       y       z     vdW  Elec       q    Type
REMARK                         _______ _______ _______ _____ _____    ______ ____
ROOT
ATOM      1  C   UNL     1       4.975  -2.207  -2.098  0.00  0.00    +0.057 A 
ATOM      2  C   UNL     1       5.626  -2.892  -3.057  0.00  0.00    +0.137 A 
ATOM      3  N   UNL     1       6.521  -3.693  -2.460  0.00  0.00    -0.220 NA
ATOM      4  C   UNL     1       6.449  -3.530  -1.167  0.00  0.00    +0.252 A 
ATOM      5  N   UNL     1       5.501  -2.607  -0.899  0.00  0.00    -0.307 N 
ENDROOT
BRANCH   4   6
ATOM      6  S   UNL     1       7.432  -4.370   0.030  0.00  0.00    +0.034 S 
ATOM      7  O   UNL     1       6.682  -4.290   1.235  0.00  0.00    -0.166 OA
ATOM      8  O   UNL     1       7.723  -5.630  -0.560  0.00  0.00    -0.166 OA
BRANCH   6   9
ATOM      9  C   UNL     1       8.946  -3.381   0.168  0.00  0.00    +0.210 C 
BRANCH   9  10
ATOM     10  C   UNL     1       9.910  -4.066   1.102  0.00  0.00    -0.026 A 
ATOM     11  C   UNL     1       9.875  -3.790   2.456  0.00  0.00    +0.005 A 
ATOM     12  C   UNL     1      10.760  -4.419   3.312  0.00  0.00    +0.000 A 
ATOM     13  C   UNL     1      11.679  -5.324   2.814  0.00  0.00    +0.000 A 
ATOM     14  C   UNL     1      11.713  -5.600   1.460  0.00  0.00    +0.000 A 
ATOM     15  C   UNL     1      10.825  -4.975   0.605  0.00  0.00    +0.005 A 
ENDBRANCH   9  10
ENDBRANCH   6   9
ENDBRANCH   4   6
BRANCH   1  16
ATOM     16  C   UNL     1       3.882  -1.191  -2.305  0.00  0.00    +0.164 C 
BRANCH  16  20
ATOM     17  N   UNL     1       1.446  -2.384  -4.785  0.00  0.00    -0.294 N 
ATOM     18  C   UNL     1       2.120  -2.232  -3.628  0.00  0.00    +0.303 C 
ATOM     19  O   UNL     1       1.743  -2.805  -2.625  0.00  0.00    -0.253 OA
ATOM     20  N   UNL     1       3.214  -1.445  -3.584  0.00  0.00    -0.273 N 
ATOM     21  H   UNL     1       1.786  -1.985  -5.601  0.00  0.00    +0.151 HD
BRANCH  17  23
ATOM     22  C   UNL     1      -0.791  -2.551  -3.812  0.00  0.00    +0.031 C 
ATOM     23  C   UNL     1       0.199  -3.153  -4.811  0.00  0.00    +0.028 C 
ATOM     24  C   UNL     1       0.488  -4.606  -4.430  0.00  0.00    +0.031 C 
ATOM     25  C   UNL     1      -0.402  -3.104  -6.217  0.00  0.00    +0.031 C 
ENDBRANCH  17  23
BRANCH  20  26
ATOM     26  C   UNL     1       3.734  -0.845  -4.815  0.00  0.00    +0.184 C 
BRANCH  26  27
ATOM     27  C   UNL     1       3.086   0.498  -5.032  0.00  0.00    +0.122 A 
ATOM     28  C   UNL     1       3.549   1.677  -4.579  0.00  0.00    +0.046 A 
ATOM     29  C   UNL     1       2.637   2.668  -5.010  0.00  0.00    +0.041 A 
ATOM     30  C   UNL     1       1.671   2.035  -5.700  0.00  0.00    +0.195 A 
ATOM     31  O   UNL     1       1.952   0.722  -5.715  0.00  0.00    -0.466 OA
ENDBRANCH  26  27
ENDBRANCH  20  26
ENDBRANCH  16  20
ENDBRANCH   1  16
BRANCH   5  32
ATOM     32  C   UNL     1       5.106  -2.126   0.427  0.00  0.00    +0.160 C 
BRANCH  32  33
ATOM     33  C   UNL     1       5.912  -0.902   0.778  0.00  0.00    -0.028 A 
ATOM     34  C   UNL     1       7.066  -1.027   1.529  0.00  0.00    +0.005 A 
ATOM     35  C   UNL     1       7.806   0.096   1.851  0.00  0.00    +0.000 A 
ATOM     36  C   UNL     1       7.392   1.343   1.422  0.00  0.00    +0.000 A 
ATOM     37  C   UNL     1       6.238   1.467   0.670  0.00  0.00    +0.000 A 
ATOM     38  C   UNL     1       5.501   0.344   0.345  0.00  0.00    +0.005 A 
ENDBRANCH  32  33
ENDBRANCH   5  32
TORSDOF 10
