REMARK  Name = ZINC66355119
REMARK  11 active torsions:
REMARK  status: ('A' for Active; 'I' for Inactive)
REMARK    1  A    between atoms: C_1  and  C_2
REMARK    2  A    between atoms: C_2  and  C_3
REMARK    3  A    between atoms: C_2  and  C_4
REMARK    4  A    between atoms: C_4  and  C_6
REMARK    5  A    between atoms: C_4  and  S_22
REMARK    6  A    between atoms: N_8  and  C_9
REMARK    7  A    between atoms: C_12  and  C_15
REMARK    8  A    between atoms: N_17  and  C_18
REMARK    9  A    between atoms: C_18  and  C_19
REMARK   10  A    between atoms: S_22  and  C_23
REMARK   11  A    between atoms: C_23  and  C_24
REMARK                            x       y       z     vdW  Elec       q    Type
REMARK                         _______ _______ _______ _____ _____    ______ ____
ROOT
ATOM      1  C   UNL     1      -2.174   0.052   1.187  0.00  0.00    +0.230 C 
ATOM      2  O   UNL     1      -2.914   0.999   1.026  0.00  0.00    -0.274 OA
ATOM      3  N   UNL     1      -2.009  -0.473   2.418  0.00  0.00    -0.285 N 
ATOM      4  H   UNL     1      -1.470  -1.270   2.537  0.00  0.00    +0.155 HD
ENDROOT
BRANCH   3   5
ATOM      5  C   UNL     1      -2.613   0.132   3.520  0.00  0.00    +0.033 A 
ATOM      6  C   UNL     1      -3.865   0.723   3.388  0.00  0.00    +0.024 A 
ATOM      7  C   UNL     1      -4.464   1.320   4.474  0.00  0.00    +0.015 A 
ATOM      8  C   UNL     1      -3.813   1.331   5.710  0.00  0.00    +0.037 A 
ATOM      9  C   UNL     1      -2.556   0.736   5.840  0.00  0.00    +0.015 A 
ATOM     10  C   UNL     1      -1.964   0.136   4.751  0.00  0.00    +0.024 A 
BRANCH   8  11
ATOM     11  C   UNL     1      -4.452   1.971   6.877  0.00  0.00    +0.244 C 
ATOM     12  O   UNL     1      -5.546   2.489   6.762  0.00  0.00    -0.270 OA
ATOM     13  N   UNL     1      -3.823   1.981   8.069  0.00  0.00    -0.303 N 
ATOM     14  H   UNL     1      -2.951   1.568   8.160  0.00  0.00    +0.150 HD
BRANCH  13  15
ATOM     15  C   UNL     1      -4.458   2.616   9.226  0.00  0.00    +0.200 C 
BRANCH  15  16
ATOM     16  C   UNL     1      -3.554   2.490  10.426  0.00  0.00    +0.228 C 
ATOM     17  O   UNL     1      -2.486   1.926  10.324  0.00  0.00    -0.274 OA
ATOM     18  N   UNL     1      -3.934   3.005  11.612  0.00  0.00    -0.328 N 
ATOM     19  H   UNL     1      -4.788   3.457  11.694  0.00  0.00    +0.145 HD
ATOM     20  H   UNL     1      -3.352   2.924  12.385  0.00  0.00    +0.145 HD
ENDBRANCH  15  16
ENDBRANCH  13  15
ENDBRANCH   8  11
ENDBRANCH   3   5
BRANCH   1  21
ATOM     21  C   UNL     1      -1.437  -0.537   0.012  0.00  0.00    +0.135 C 
BRANCH  21  23
ATOM     22  C   UNL     1      -0.008   1.512   0.008  0.00  0.00    +0.009 C 
ATOM     23  C   UNL     1       0.002  -0.018  -0.001  0.00  0.00    +0.005 C 
ATOM     24  C   UNL     1       0.740  -0.531   1.237  0.00  0.00    +0.009 C 
ENDBRANCH  21  23
BRANCH  21  25
ATOM     25  S   UNL     1      -2.268  -0.054  -1.526  0.00  0.00    -0.143 S 
BRANCH  25  26
ATOM     26  C   UNL     1      -1.365  -0.956  -2.815  0.00  0.00    +0.105 C 
BRANCH  26  27
ATOM     27  C   UNL     1      -1.962  -0.639  -4.162  0.00  0.00    -0.038 A 
ATOM     28  C   UNL     1      -2.993  -1.413  -4.660  0.00  0.00    +0.004 A 
ATOM     29  C   UNL     1      -3.541  -1.123  -5.896  0.00  0.00    +0.000 A 
ATOM     30  C   UNL     1      -3.058  -0.058  -6.633  0.00  0.00    +0.000 A 
ATOM     31  C   UNL     1      -2.027   0.717  -6.135  0.00  0.00    +0.000 A 
ATOM     32  C   UNL     1      -1.482   0.429  -4.897  0.00  0.00    +0.004 A 
ENDBRANCH  26  27
ENDBRANCH  25  26
ENDBRANCH  21  25
ENDBRANCH   1  21
TORSDOF 9
