REMARK  Name = ZINC24304101
REMARK  9 active torsions:
REMARK  status: ('A' for Active; 'I' for Inactive)
REMARK    1  A    between atoms: C_4  and  C_7
REMARK    2  A    between atoms: C_7  and  C_8
REMARK    3  A    between atoms: C_8  and  N_9
REMARK    4  A    between atoms: C_15  and  S_16
REMARK    5  A    between atoms: S_16  and  C_17
REMARK    6  A    between atoms: C_17  and  C_18
REMARK    7  A    between atoms: N_20  and  C_21
REMARK    8  A    between atoms: C_24  and  N_27
REMARK    9  A    between atoms: N_30  and  C_31
REMARK                            x       y       z     vdW  Elec       q    Type
REMARK                         _______ _______ _______ _____ _____    ______ ____
ROOT
ATOM      1  C   UNL     1      -1.665  -0.929   5.222  0.00  0.00    +0.227 C 
ATOM      2  O   UNL     1      -0.704  -0.489   5.817  0.00  0.00    -0.275 OA
ATOM      3  N   UNL     1      -2.729  -1.389   5.909  0.00  0.00    -0.285 N 
ATOM      4  H   UNL     1      -3.630  -1.719   5.370  0.00  0.00    +0.155 HD
ENDROOT
BRANCH   3   5
ATOM      5  C   UNL     1      -2.688  -1.448   7.308  0.00  0.00    +0.034 A 
ATOM      6  C   UNL     1      -3.325  -2.485   7.978  0.00  0.00    +0.025 A 
ATOM      7  C   UNL     1      -3.280  -2.546   9.357  0.00  0.00    +0.025 A 
ATOM      8  C   UNL     1      -2.608  -1.565  10.073  0.00  0.00    +0.035 A 
ATOM      9  C   UNL     1      -1.976  -0.525   9.403  0.00  0.00    +0.025 A 
ATOM     10  C   UNL     1      -2.017  -0.467   8.025  0.00  0.00    +0.025 A 
BRANCH   8  11
ATOM     11  N   UNL     1      -2.567  -1.623  11.473  0.00  0.00    -0.269 N 
ATOM     12  C   UNL     1      -2.493  -2.816  12.095  0.00  0.00    +0.308 C 
ATOM     13  O   UNL     1      -2.545  -3.844  11.448  0.00  0.00    -0.252 OA
ATOM     14  N   UNL     1      -2.360  -2.869  13.435  0.00  0.00    -0.269 N 
ATOM     15  H   UNL     1      -2.597  -0.695  12.063  0.00  0.00    +0.156 HD
ATOM     16  H   UNL     1      -2.388  -1.943  14.028  0.00  0.00    +0.156 HD
BRANCH  14  17
ATOM     17  C   UNL     1      -2.187  -4.103  14.073  0.00  0.00    +0.035 A 
ATOM     18  C   UNL     1      -2.840  -5.231  13.594  0.00  0.00    +0.023 A 
ATOM     19  C   UNL     1      -2.663  -6.449  14.222  0.00  0.00    +0.002 A 
ATOM     20  C   UNL     1      -1.845  -6.543  15.333  0.00  0.00    +0.000 A 
ATOM     21  C   UNL     1      -1.197  -5.420  15.815  0.00  0.00    +0.002 A 
ATOM     22  C   UNL     1      -1.366  -4.201  15.189  0.00  0.00    +0.023 A 
ENDBRANCH  14  17
ENDBRANCH   8  11
ENDBRANCH   3   5
BRANCH   1  23
ATOM     23  C   UNL     1      -1.668  -0.963   3.716  0.00  0.00    +0.173 C 
BRANCH  23  24
ATOM     24  S   UNL     1      -0.110  -0.282   3.094  0.00  0.00    -0.077 S 
BRANCH  24  31
ATOM     25  N   UNL     1       0.506  -0.065   0.373  0.00  0.00    -0.270 N 
ATOM     26  C   UNL     1      -0.049  -0.345  -0.823  0.00  0.00    +0.345 A 
ATOM     27  O   UNL     1       0.456  -0.150  -1.914  0.00  0.00    -0.245 OA
ATOM     28  N   UNL     1      -1.266  -0.881  -0.592  0.00  0.00    -0.226 N 
ATOM     29  H   UNL     1      -1.901  -1.187  -1.436  0.00  0.00    +0.194 HD
ATOM     30  N   UNL     1      -1.448  -0.924   0.797  0.00  0.00    -0.145 NA
ATOM     31  C   UNL     1      -0.379  -0.438   1.359  0.00  0.00    +0.192 A 
BRANCH  25  32
ATOM     32  C   UNL     1       1.828   0.530   0.587  0.00  0.00    +0.133 C 
BRANCH  32  33
ATOM     33  C   UNL     1       1.701   2.054   0.626  0.00  0.00    +0.057 C 
BRANCH  33  37
ATOM     34  C   UNL     1       5.555   3.788   1.249  0.00  0.00    +0.000 A 
ATOM     35  C   UNL     1       5.103   3.552  -0.036  0.00  0.00    +0.000 A 
ATOM     36  C   UNL     1       3.856   2.990  -0.237  0.00  0.00    +0.004 A 
ATOM     37  C   UNL     1       3.061   2.666   0.846  0.00  0.00    -0.046 A 
ATOM     38  C   UNL     1       3.510   2.907   2.130  0.00  0.00    +0.004 A 
ATOM     39  C   UNL     1       4.760   3.463   2.332  0.00  0.00    +0.000 A 
ENDBRANCH  33  37
ENDBRANCH  32  33
ENDBRANCH  25  32
ENDBRANCH  24  31
ENDBRANCH  23  24
ENDBRANCH   1  23
TORSDOF 9
