REMARK  Name = ZINC06198118
REMARK  6 active torsions:
REMARK  status: ('A' for Active; 'I' for Inactive)
REMARK    1  A    between atoms: C_1  and  C_2
REMARK    2  A    between atoms: C_2  and  C_3
REMARK    3  A    between atoms: C_10  and  C_15
REMARK    4  A    between atoms: C_18  and  C_29
REMARK    5  A    between atoms: C_24  and  N_28
REMARK    6  A    between atoms: C_25  and  C_26
REMARK                            x       y       z     vdW  Elec       q    Type
REMARK                         _______ _______ _______ _____ _____    ______ ____
ROOT
ATOM      1  C   UNL     1      -0.101   5.687   0.034  0.00  0.00    +0.107 C 
ATOM      2  C   UNL     1      -0.848   6.155   1.256  0.00  0.00    +0.049 A 
ATOM      3  C   UNL     1      -0.447   6.155   2.586  0.00  0.00    +0.068 A 
ATOM      4  N   UNL     1      -1.423   6.654   3.306  0.00  0.00    -0.176 NA
ATOM      5  N   UNL     1      -2.482   6.989   2.447  0.00  0.00    -0.246 N 
ATOM      6  H   UNL     1      -3.357   7.389   2.719  0.00  0.00    +0.192 HD
ATOM      7  C   UNL     1      -2.110   6.677   1.195  0.00  0.00    +0.222 A 
ATOM      8  O   UNL     1      -2.789   6.816   0.029  0.00  0.00    -0.423 OA
ATOM      9  C   UNL     1      -2.093   6.683  -1.118  0.00  0.00    +0.200 C 
ATOM     10  C   UNL     1      -0.845   6.171  -1.186  0.00  0.00    +0.098 C 
ATOM     11  C   UNL     1       0.879   5.665   3.110  0.00  0.00    +0.068 C 
ENDROOT
BRANCH   1  19
ATOM     12  C   UNL     1       2.406   0.030  -0.020  0.00  0.00    -0.047 A 
ATOM     13  C   UNL     1       1.208  -0.671  -0.013  0.00  0.00    +0.005 A 
ATOM     14  C   UNL     1       0.002  -0.004   0.002  0.00  0.00    +0.026 A 
ATOM     15  C   UNL     1      -0.017   1.387   0.010  0.00  0.00    +0.049 A 
ATOM     16  C   UNL     1       1.200   2.095   0.002  0.00  0.00    -0.001 A 
ATOM     17  C   UNL     1       2.412   1.396  -0.013  0.00  0.00    +0.013 A 
ATOM     18  C   UNL     1       1.170   3.558   0.010  0.00  0.00    +0.020 A 
ATOM     19  C   UNL     1      -0.035   4.181   0.025  0.00  0.00    +0.030 A 
ATOM     20  C   UNL     1      -1.226   3.425   0.032  0.00  0.00    +0.253 A 
ATOM     21  O   UNL     1      -2.298   4.005   0.045  0.00  0.00    -0.268 OA
ATOM     22  N   UNL     1      -1.208   2.080   0.030  0.00  0.00    -0.322 N 
ATOM     23  H   UNL     1      -2.046   1.591   0.040  0.00  0.00    +0.169 HD
BRANCH  12  25
ATOM     24  C   UNL     1       4.140  -0.970  -1.483  0.00  0.00    +0.009 C 
ATOM     25  C   UNL     1       3.712  -0.722  -0.036  0.00  0.00    +0.032 C 
ENDBRANCH  12  25
ENDBRANCH   1  19
BRANCH   9  26
ATOM     26  N   UNL     1      -2.688   7.092  -2.286  0.00  0.00    -0.328 N 
ATOM     27  H   UNL     1      -2.213   7.009  -3.127  0.00  0.00    +0.145 HD
ATOM     28  H   UNL     1      -3.584   7.464  -2.269  0.00  0.00    +0.145 HD
ENDBRANCH   9  26
BRANCH  10  29
ATOM     29  C   UNL     1      -0.203   6.083  -2.463  0.00  0.00    +0.101 C 
ATOM     30  N   UNL     1       0.305   6.014  -3.477  0.00  0.00    -0.191 NA
ENDBRANCH  10  29
TORSDOF 4
