REMARK  Name = ZINC28991162
REMARK  8 active torsions:
REMARK  status: ('A' for Active; 'I' for Inactive)
REMARK    1  A    between atoms: C_1  and  C_2
REMARK    2  A    between atoms: C_7  and  N_8
REMARK    3  A    between atoms: C_9  and  C_11
REMARK    4  A    between atoms: C_11  and  N_12
REMARK    5  A    between atoms: N_15  and  C_16
REMARK    6  A    between atoms: C_16  and  C_17
REMARK    7  A    between atoms: C_21  and  N_23
REMARK    8  A    between atoms: C_24  and  C_26
REMARK                            x       y       z     vdW  Elec       q    Type
REMARK                         _______ _______ _______ _____ _____    ______ ____
ROOT
ATOM      1  N   UNL     1      -0.288  -0.913   5.998  0.00  0.00    -0.291 N 
ATOM      2  C   UNL     1      -0.381  -0.468   7.267  0.00  0.00    +0.300 C 
ATOM      3  O   UNL     1      -0.409   0.727   7.490  0.00  0.00    -0.253 OA
ATOM      4  N   UNL     1      -0.442  -1.346   8.287  0.00  0.00    -0.295 N 
ATOM      5  H   UNL     1      -0.265  -1.867   5.820  0.00  0.00    +0.151 HD
ATOM      6  H   UNL     1      -0.419  -2.299   8.108  0.00  0.00    +0.151 HD
ENDROOT
BRANCH   1   7
ATOM      7  C   UNL     1      -0.221   0.041   4.889  0.00  0.00    +0.202 C 
BRANCH   7   9
ATOM      8  N   UNL     1      -0.049  -0.032   2.423  0.00  0.00    -0.284 N 
ATOM      9  C   UNL     1      -0.122  -0.709   3.586  0.00  0.00    +0.234 C 
ATOM     10  O   UNL     1      -0.109  -1.921   3.584  0.00  0.00    -0.274 OA
ATOM     11  H   UNL     1       0.007   0.936   2.428  0.00  0.00    +0.155 HD
BRANCH   8  18
ATOM     12  C   UNL     1      -1.358   1.164   0.197  0.00  0.00    +0.046 C 
ATOM     13  C   UNL     1      -0.681  -0.179   0.096  0.00  0.00    -0.028 A 
ATOM     14  C   UNL     1      -0.678  -0.864  -1.104  0.00  0.00    +0.020 A 
ATOM     15  C   UNL     1      -0.058  -2.096  -1.197  0.00  0.00    +0.018 A 
ATOM     16  C   UNL     1       0.563  -2.647  -0.089  0.00  0.00    +0.017 A 
ATOM     17  C   UNL     1       0.564  -1.967   1.113  0.00  0.00    +0.024 A 
ATOM     18  C   UNL     1      -0.054  -0.726   1.207  0.00  0.00    +0.036 A 
ATOM     19 BR   UNL     1      -0.057  -3.031  -2.841  0.00  0.00    -0.050 Br
ENDBRANCH   8  18
ENDBRANCH   7   9
ENDBRANCH   1   7
BRANCH   4  20
ATOM     20  C   UNL     1      -0.543  -0.861   9.666  0.00  0.00    +0.141 C 
BRANCH  20  21
ATOM     21  C   UNL     1      -0.595  -2.036  10.609  0.00  0.00    -0.029 A 
ATOM     22  C   UNL     1      -1.814  -2.591  10.953  0.00  0.00    +0.005 A 
ATOM     23  C   UNL     1      -1.867  -3.669  11.818  0.00  0.00    +0.002 A 
ATOM     24  C   UNL     1      -0.701  -4.194  12.340  0.00  0.00    +0.023 A 
ATOM     25  C   UNL     1       0.524  -3.639  11.996  0.00  0.00    +0.034 A 
ATOM     26  C   UNL     1       0.574  -2.560  11.123  0.00  0.00    +0.028 A 
BRANCH  25  27
ATOM     27  N   UNL     1       1.707  -4.169  12.523  0.00  0.00    -0.285 N 
ATOM     28  C   UNL     1       1.815  -5.496  12.738  0.00  0.00    +0.220 C 
ATOM     29  O   UNL     1       0.859  -6.219  12.552  0.00  0.00    -0.275 OA
ATOM     30  H   UNL     1       2.450  -3.582  12.734  0.00  0.00    +0.155 HD
BRANCH  28  31
ATOM     31  C   UNL     1       3.122  -6.080  13.208  0.00  0.00    +0.075 C 
ATOM     32  C   UNL     1       4.127  -6.333  12.073  0.00  0.00    +0.013 C 
ATOM     33  C   UNL     1       4.489  -7.643  12.792  0.00  0.00    +0.001 C 
ATOM     34  C   UNL     1       3.080  -7.604  13.406  0.00  0.00    +0.013 C 
ENDBRANCH  28  31
ENDBRANCH  25  27
ENDBRANCH  20  21
ENDBRANCH   4  20
TORSDOF 7
