REMARK  Name = ZINC12494286
REMARK  6 active torsions:
REMARK  status: ('A' for Active; 'I' for Inactive)
REMARK    1  A    between atoms: C_4  and  C_7
REMARK    2  A    between atoms: C_10  and  C_13
REMARK    3  A    between atoms: N_15  and  C_16
REMARK    4  A    between atoms: C_16  and  N_18
REMARK    5  A    between atoms: N_18  and  C_19
REMARK    6  A    between atoms: C_20  and  C_28
REMARK                            x       y       z     vdW  Elec       q    Type
REMARK                         _______ _______ _______ _____ _____    ______ ____
ROOT
ATOM      1  C   UNL     1       7.397  -2.992  -0.081  0.00  0.00    +0.141 C 
ATOM      2  S   UNL     1       8.865  -2.111  -0.091  0.00  0.00    -0.018 S 
ENDROOT
BRANCH   1   5
ATOM      3  C   UNL     1       6.196  -0.991  -0.060  0.00  0.00    +0.250 C 
ATOM      4  O   UNL     1       7.238  -0.365  -0.067  0.00  0.00    -0.270 OA
ATOM      5  N   UNL     1       6.219  -2.338  -0.066  0.00  0.00    -0.264 N 
ATOM      6  H   UNL     1       5.387  -2.837  -0.061  0.00  0.00    +0.157 HD
BRANCH   3  10
ATOM      7  C   UNL     1       2.481   1.071  -0.015  0.00  0.00    -0.018 A 
ATOM      8  C   UNL     1       2.504  -0.324  -0.017  0.00  0.00    +0.009 A 
ATOM      9  C   UNL     1       3.706  -0.993  -0.036  0.00  0.00    +0.013 A 
ATOM     10  C   UNL     1       4.905  -0.274  -0.044  0.00  0.00    +0.037 A 
ATOM     11  C   UNL     1       4.881   1.123  -0.037  0.00  0.00    +0.013 A 
ATOM     12  C   UNL     1       3.676   1.790  -0.023  0.00  0.00    +0.009 A 
BRANCH   7  16
ATOM     13  C   UNL     1      -1.236   3.134   0.030  0.00  0.00    +0.000 A 
ATOM     14  C   UNL     1      -1.216   1.751   0.017  0.00  0.00    +0.001 A 
ATOM     15  C   UNL     1      -0.013   1.076   0.008  0.00  0.00    +0.008 A 
ATOM     16  C   UNL     1       1.184   1.790   0.000  0.00  0.00    -0.018 A 
ATOM     17  C   UNL     1       1.158   3.184   0.008  0.00  0.00    +0.008 A 
ATOM     18  C   UNL     1      -0.052   3.849   0.023  0.00  0.00    +0.001 A 
ENDBRANCH   7  16
ENDBRANCH   3  10
ENDBRANCH   1   5
BRANCH   1  19
ATOM     19  N   UNL     1       7.420  -4.340  -0.087  0.00  0.00    -0.291 N 
ATOM     20  H   UNL     1       6.588  -4.839  -0.082  0.00  0.00    +0.154 HD
BRANCH  19  21
ATOM     21  C   UNL     1       8.631  -5.012  -0.102  0.00  0.00    +0.084 A 
ATOM     22  C   UNL     1       8.858  -6.382  -0.105  0.00  0.00    +0.068 A 
ATOM     23  C   UNL     1      10.239  -6.834  -0.125  0.00  0.00    -0.023 A 
ATOM     24  C   UNL     1      11.165  -5.852  -0.129  0.00  0.00    -0.004 A 
ATOM     25  S   UNL     1      10.231  -4.348  -0.114  0.00  0.00    -0.077 S 
ATOM     26  C   UNL     1      12.654  -6.014  -0.142  0.00  0.00    +0.043 C 
ATOM     27  C   UNL     1      12.985  -7.468   0.227  0.00  0.00    +0.005 C 
ATOM     28  C   UNL     1      12.102  -8.402  -0.606  0.00  0.00    +0.005 C 
ATOM     29  C   UNL     1      10.650  -8.301  -0.136  0.00  0.00    +0.037 C 
BRANCH  22  30
ATOM     30  C   UNL     1       7.745  -7.336  -0.092  0.00  0.00    +0.244 C 
ATOM     31  O   UNL     1       7.271  -7.733  -1.141  0.00  0.00    -0.270 OA
ATOM     32  N   UNL     1       7.247  -7.775   1.081  0.00  0.00    -0.325 N 
ATOM     33  H   UNL     1       7.625  -7.459   1.916  0.00  0.00    +0.145 HD
ATOM     34  H   UNL     1       6.511  -8.407   1.089  0.00  0.00    +0.145 HD
ENDBRANCH  22  30
ENDBRANCH  19  21
ENDBRANCH   1  19
TORSDOF 6
