REMARK  Name = ZINC03213358
REMARK  5 active torsions:
REMARK  status: ('A' for Active; 'I' for Inactive)
REMARK    1  A    between atoms: C_1  and  C_2
REMARK    2  A    between atoms: N_4  and  C_5
REMARK    3  A    between atoms: C_10  and  C_11
REMARK    4  A    between atoms: N_13  and  N_14
REMARK    5  A    between atoms: C_15  and  C_16
REMARK                            x       y       z     vdW  Elec       q    Type
REMARK                         _______ _______ _______ _____ _____    ______ ____
ROOT
ATOM      1  N   UNL     1      -4.963   5.233  -0.161  0.00  0.00    -0.187 NA
ATOM      2  C   UNL     1      -6.124   5.822  -0.138  0.00  0.00    +0.139 C 
ENDROOT
BRANCH   2   3
ATOM      3  C   UNL     1      -6.204   7.285  -0.138  0.00  0.00    +0.010 A 
ATOM      4  C   UNL     1      -5.032   8.063  -0.041  0.00  0.00    -0.009 A 
ATOM      5  C   UNL     1      -3.765   7.460   0.047  0.00  0.00    +0.009 A 
ATOM      6  C   UNL     1      -2.654   8.239   0.135  0.00  0.00    +0.001 A 
ATOM      7  C   UNL     1      -2.735   9.631   0.135  0.00  0.00    +0.001 A 
ATOM      8  C   UNL     1      -3.927  10.275   0.048  0.00  0.00    +0.008 A 
ATOM      9  C   UNL     1      -5.119   9.525  -0.046  0.00  0.00    -0.017 A 
ATOM     10  C   UNL     1      -6.360  10.156  -0.137  0.00  0.00    +0.017 A 
ATOM     11  C   UNL     1      -7.525   9.394  -0.229  0.00  0.00    -0.017 A 
ATOM     12  C   UNL     1      -7.454   7.931  -0.230  0.00  0.00    -0.009 A 
ATOM     13  C   UNL     1      -8.647   7.194  -0.325  0.00  0.00    +0.009 A 
ATOM     14  C   UNL     1      -9.836   7.848  -0.412  0.00  0.00    +0.001 A 
ATOM     15  C   UNL     1      -9.906   9.241  -0.411  0.00  0.00    +0.001 A 
ATOM     16  C   UNL     1      -8.791  10.011  -0.323  0.00  0.00    +0.008 A 
ENDBRANCH   2   3
BRANCH   1  19
ATOM     17  C   UNL     1      -3.685   3.225  -0.183  0.00  0.00    +0.265 C 
ATOM     18  O   UNL     1      -2.666   3.889  -0.204  0.00  0.00    -0.268 OA
ATOM     19  N   UNL     1      -4.887   3.834  -0.161  0.00  0.00    -0.203 N 
ATOM     20  H   UNL     1      -5.699   3.304  -0.144  0.00  0.00    +0.178 HD
BRANCH  17  26
ATOM     21  C   UNL     1      -2.358   1.113  -0.102  0.00  0.00    +0.046 A 
ATOM     22  C   UNL     1      -2.295  -0.274  -0.108  0.00  0.00    +0.024 A 
ATOM     23  C   UNL     1      -3.455  -1.018  -0.182  0.00  0.00    +0.002 A 
ATOM     24  C   UNL     1      -4.688  -0.391  -0.263  0.00  0.00    +0.001 A 
ATOM     25  C   UNL     1      -4.770   0.985  -0.264  0.00  0.00    +0.015 A 
ATOM     26  C   UNL     1      -3.605   1.752  -0.183  0.00  0.00    +0.060 A 
BRANCH  21  30
ATOM     27  C   UNL     1       1.214   2.101   0.514  0.00  0.00    +0.109 C 
ATOM     28  C   UNL     1      -0.086   1.340   0.545  0.00  0.00    +0.214 C 
ATOM     29  O   UNL     1      -0.138   0.250   1.076  0.00  0.00    -0.276 OA
ATOM     30  N   UNL     1      -1.189   1.867  -0.021  0.00  0.00    -0.285 N 
ATOM     31  H   UNL     1      -1.170   2.770  -0.373  0.00  0.00    +0.155 HD
ENDBRANCH  21  30
ENDBRANCH  17  26
ENDBRANCH   1  19
TORSDOF 4
