REMARK  Name = ZINC00152058
REMARK  4 active torsions:
REMARK  status: ('A' for Active; 'I' for Inactive)
REMARK    1  A    between atoms: C_1  and  C_2
REMARK    2  A    between atoms: N_4  and  C_5
REMARK    3  A    between atoms: C_8  and  S_11
REMARK    4  A    between atoms: S_11  and  N_14
REMARK                            x       y       z     vdW  Elec       q    Type
REMARK                         _______ _______ _______ _____ _____    ______ ____
ROOT
ATOM      1  S   UNL     1      -0.300  -6.589  -0.966  0.00  0.00    +0.101 S 
ATOM      2  O   UNL     1       0.277  -7.066  -2.173  0.00  0.00    -0.146 OA
ATOM      3  O   UNL     1       0.182  -6.976   0.314  0.00  0.00    -0.146 OA
ENDROOT
BRANCH   1   4
ATOM      4  N   UNL     1      -1.903  -7.000  -1.012  0.00  0.00    -0.111 NA
ATOM      5  C   UNL     1      -2.258  -8.262  -0.979  0.00  0.00    +0.153 A 
ATOM      6  C   UNL     1      -3.675  -8.657  -1.025  0.00  0.00    +0.048 A 
ATOM      7  C   UNL     1      -3.980  -9.890  -1.500  0.00  0.00    +0.013 A 
ATOM      8  C   UNL     1      -2.889 -10.767  -1.939  0.00  0.00    -0.002 A 
ATOM      9  C   UNL     1      -3.154 -11.932  -2.667  0.00  0.00    +0.010 A 
ATOM     10  C   UNL     1      -2.111 -12.737  -3.066  0.00  0.00    +0.001 A 
ATOM     11  C   UNL     1      -0.801 -12.402  -2.752  0.00  0.00    +0.002 A 
ATOM     12  C   UNL     1      -0.523 -11.257  -2.035  0.00  0.00    +0.026 A 
ATOM     13  C   UNL     1      -1.560 -10.432  -1.624  0.00  0.00    +0.048 A 
ATOM     14  N   UNL     1      -1.312  -9.273  -0.907  0.00  0.00    -0.338 N 
ATOM     15  H   UNL     1      -0.508  -9.175  -0.373  0.00  0.00    +0.167 HD
ENDBRANCH   1   4
BRANCH   1  19
ATOM     16  C   UNL     1      -0.071  -2.068  -1.121  0.00  0.00    +0.033 A 
ATOM     17  C   UNL     1      -0.152  -2.719   0.103  0.00  0.00    +0.025 A 
ATOM     18  C   UNL     1      -0.222  -4.098   0.147  0.00  0.00    +0.031 A 
ATOM     19  C   UNL     1      -0.211  -4.830  -1.026  0.00  0.00    +0.113 A 
ATOM     20  C   UNL     1      -0.130  -4.185  -2.246  0.00  0.00    +0.031 A 
ATOM     21  C   UNL     1      -0.066  -2.806  -2.297  0.00  0.00    +0.025 A 
BRANCH  16  25
ATOM     22  C   UNL     1      -0.617   1.507  -2.165  0.00  0.00    +0.109 C 
ATOM     23  C   UNL     1      -0.604  -0.000  -2.169  0.00  0.00    +0.214 C 
ATOM     24  O   UNL     1      -1.137  -0.609  -3.073  0.00  0.00    -0.276 OA
ATOM     25  N   UNL     1       0.000  -0.672  -1.169  0.00  0.00    -0.286 N 
ATOM     26  H   UNL     1       0.484  -0.187  -0.482  0.00  0.00    +0.155 HD
ENDBRANCH  16  25
ENDBRANCH   1  19
TORSDOF 3
