REMARK  Name = ZINC26842746
REMARK  7 active torsions:
REMARK  status: ('A' for Active; 'I' for Inactive)
REMARK    1  A    between atoms: C_1  and  C_2
REMARK    2  A    between atoms: N_4  and  C_5
REMARK    3  A    between atoms: C_8  and  S_11
REMARK    4  A    between atoms: S_11  and  N_14
REMARK    5  A    between atoms: C_20  and  C_22
REMARK    6  A    between atoms: C_28  and  O_33
REMARK    7  A    between atoms: O_33  and  C_34
REMARK                            x       y       z     vdW  Elec       q    Type
REMARK                         _______ _______ _______ _____ _____    ______ ____
ROOT
ATOM      1  N   UNL     1       0.600   1.153   0.840  0.00  0.00    -0.174 NA
ATOM      2  C   UNL     1      -0.534   1.954   1.322  0.00  0.00    +0.128 C 
ATOM      3  C   UNL     1      -0.033   2.877   2.446  0.00  0.00    +0.125 C 
ATOM      4  N   UNL     1       1.176   3.569   1.980  0.00  0.00    -0.295 N 
ATOM      5  C   UNL     1       2.308   2.768   1.492  0.00  0.00    +0.125 C 
ATOM      6  C   UNL     1       1.809   1.846   0.373  0.00  0.00    +0.128 C 
ATOM      7  C   UNL     1       1.246   4.915   1.998  0.00  0.00    +0.254 C 
ATOM      8  O   UNL     1       2.209   5.481   1.517  0.00  0.00    -0.270 OA
ENDROOT
BRANCH   7   9
ATOM      9  C   UNL     1       0.157   5.701   2.602  0.00  0.00    +0.122 A 
ATOM     10  C   UNL     1      -0.326   5.385   3.860  0.00  0.00    +0.032 A 
ATOM     11  C   UNL     1      -1.376   6.168   4.403  0.00  0.00    +0.022 A 
ATOM     12  C   UNL     1      -1.889   5.875   5.677  0.00  0.00    +0.012 A 
ATOM     13  C   UNL     1      -2.899   6.632   6.196  0.00  0.00    +0.004 A 
ATOM     14  C   UNL     1      -3.427   7.693   5.475  0.00  0.00    +0.049 A 
ATOM     15  C   UNL     1      -2.939   8.001   4.218  0.00  0.00    +0.163 A 
ATOM     16  C   UNL     1      -1.907   7.242   3.668  0.00  0.00    +0.180 A 
ATOM     17  O   UNL     1      -1.430   7.543   2.440  0.00  0.00    -0.418 OA
ATOM     18  C   UNL     1      -0.433   6.836   1.883  0.00  0.00    +0.350 A 
ATOM     19  O   UNL     1      -0.021   7.135   0.778  0.00  0.00    -0.244 OA
BRANCH  15  20
ATOM     20  O   UNL     1      -3.465   9.044   3.521  0.00  0.00    -0.491 OA
ATOM     21  C   UNL     1      -4.519   9.778   4.147  0.00  0.00    +0.277 C 
ENDBRANCH  15  20
ENDBRANCH   7   9
BRANCH   1  22
ATOM     22  S   UNL     1       0.513  -0.500   0.816  0.00  0.00    +0.061 S 
ATOM     23  O   UNL     1      -0.867  -0.835   0.770  0.00  0.00    -0.153 OA
ATOM     24  O   UNL     1       1.437  -0.941  -0.170  0.00  0.00    -0.153 OA
BRANCH  22  28
ATOM     25  C   UNL     1       2.071  -1.981   4.802  0.00  0.00    +0.033 A 
ATOM     26  C   UNL     1       0.720  -1.702   4.643  0.00  0.00    +0.025 A 
ATOM     27  C   UNL     1       0.248  -1.250   3.426  0.00  0.00    +0.030 A 
ATOM     28  C   UNL     1       1.120  -1.076   2.367  0.00  0.00    +0.106 A 
ATOM     29  C   UNL     1       2.465  -1.358   2.520  0.00  0.00    +0.030 A 
ATOM     30  C   UNL     1       2.944  -1.805   3.736  0.00  0.00    +0.025 A 
BRANCH  25  34
ATOM     31  C   UNL     1       2.251  -3.620   8.185  0.00  0.00    +0.109 C 
ATOM     32  C   UNL     1       1.780  -3.223   6.810  0.00  0.00    +0.214 C 
ATOM     33  O   UNL     1       0.705  -3.610   6.402  0.00  0.00    -0.276 OA
ATOM     34  N   UNL     1       2.553  -2.438   6.034  0.00  0.00    -0.286 N 
ATOM     35  H   UNL     1       3.562  -2.156   6.369  0.00  0.00    +0.155 HD
ENDBRANCH  25  34
ENDBRANCH  22  28
ENDBRANCH   1  22
TORSDOF 5
