REMARK  Name = ZINC14547741
REMARK  3 active torsions:
REMARK  status: ('A' for Active; 'I' for Inactive)
REMARK    1  A    between atoms: C_9  and  O_28
REMARK    2  A    between atoms: C_10  and  C_11
REMARK    3  A    between atoms: C_22  and  O_27
REMARK                            x       y       z     vdW  Elec       q    Type
REMARK                         _______ _______ _______ _____ _____    ______ ____
ROOT
ATOM      1  C   UNL     1       5.709   3.662  -1.250  0.00  0.00    +0.109 C 
ATOM      2  C   UNL     1       4.623   4.037  -2.243  0.00  0.00    +0.029 C 
ATOM      3  C   UNL     1       5.054   4.266  -3.697  0.00  0.00    +0.033 C 
ATOM      4  C   UNL     1       3.788   3.870  -4.459  0.00  0.00    -0.030 C 
ATOM      5  C   UNL     1       3.077   3.009  -3.741  0.00  0.00    -0.023 C 
ATOM      6  C   UNL     1       3.805   2.732  -2.476  0.00  0.00    +0.049 C 
ATOM      7  C   UNL     1       3.092   2.412  -1.219  0.00  0.00    -0.016 A 
ATOM      8  C   UNL     1       1.843   1.831  -1.206  0.00  0.00    +0.051 A 
ATOM      9  C   UNL     1       1.224   1.533  -0.001  0.00  0.00    +0.117 A 
ATOM     10  C   UNL     1       1.864   1.823   1.195  0.00  0.00    +0.047 A 
ATOM     11  C   UNL     1       3.116   2.402   1.187  0.00  0.00    +0.027 A 
ATOM     12  C   UNL     1       3.740   2.711  -0.016  0.00  0.00    +0.032 A 
ATOM     13  N   UNL     1       5.001   3.326   0.005  0.00  0.00    -0.336 N 
ATOM     14  H   UNL     1       5.416   3.533   0.857  0.00  0.00    +0.147 HD
ENDROOT
BRANCH   1  24
ATOM     15  C   UNL     1      10.457   4.873  -2.724  0.00  0.00    +0.001 A 
ATOM     16  C   UNL     1       9.611   3.786  -2.937  0.00  0.00    +0.001 A 
ATOM     17  C   UNL     1       8.364   3.752  -2.394  0.00  0.00    +0.009 A 
ATOM     18  C   UNL     1       7.921   4.825  -1.601  0.00  0.00    -0.009 A 
ATOM     19  C   UNL     1       8.780   5.933  -1.389  0.00  0.00    -0.017 A 
ATOM     20  C   UNL     1      10.061   5.932  -1.967  0.00  0.00    +0.008 A 
ATOM     21  C   UNL     1       8.337   7.010  -0.601  0.00  0.00    +0.012 A 
ATOM     22  C   UNL     1       7.091   6.979  -0.057  0.00  0.00    +0.046 A 
ATOM     23  C   UNL     1       6.240   5.890  -0.269  0.00  0.00    +0.122 A 
ATOM     24  C   UNL     1       6.638   4.828  -1.030  0.00  0.00    +0.022 A 
BRANCH  23  25
ATOM     25  O   UNL     1       5.001   5.889   0.288  0.00  0.00    -0.506 OA
ATOM     26  H   UNL     1       4.966   5.494   1.170  0.00  0.00    +0.292 HD
ENDBRANCH  23  25
ENDBRANCH   1  24
BRANCH   9  27
ATOM     27  O   UNL     1      -0.011   0.963   0.007  0.00  0.00    -0.507 OA
ATOM     28  H   UNL     1       0.002  -0.004   0.002  0.00  0.00    +0.292 HD
ENDBRANCH   9  27
TORSDOF 3
