REMARK  Name = ZINC13637409
REMARK  7 active torsions:
REMARK  status: ('A' for Active; 'I' for Inactive)
REMARK    1  A    between atoms: C_1  and  C_2
REMARK    2  A    between atoms: C_6  and  C_35
REMARK    3  A    between atoms: C_7  and  N_8
REMARK    4  A    between atoms: N_8  and  S_9
REMARK    5  A    between atoms: S_9  and  C_12
REMARK    6  A    between atoms: C_25  and  C_28
REMARK    7  A    between atoms: C_31  and  O_34
REMARK                            x       y       z     vdW  Elec       q    Type
REMARK                         _______ _______ _______ _____ _____    ______ ____
ROOT
ATOM      1  C   UNL     1       2.991  -2.617  -1.175  0.00  0.00    +0.109 A 
ATOM      2  C   UNL     1       2.526  -3.312  -0.072  0.00  0.00    +0.030 A 
ATOM      3  C   UNL     1       1.367  -2.902   0.556  0.00  0.00    +0.025 A 
ATOM      4  C   UNL     1       0.672  -1.797   0.081  0.00  0.00    +0.031 A 
ATOM      5  C   UNL     1       1.132  -1.100  -1.026  0.00  0.00    -0.018 A 
ATOM      6  C   UNL     1       2.300  -1.520  -1.647  0.00  0.00    +0.034 A 
ATOM      7  C   UNL     1       0.412   0.088  -1.579  0.00  0.00    +0.049 C 
ATOM      8  C   UNL     1       1.121   1.376  -1.232  0.00  0.00    -0.023 C 
ATOM      9  C   UNL     1       0.248   2.326  -1.000  0.00  0.00    -0.030 C 
ATOM     10  C   UNL     1      -1.165   1.801  -1.167  0.00  0.00    +0.033 C 
ATOM     11  C   UNL     1      -1.001   0.263  -0.990  0.00  0.00    +0.029 C 
ATOM     12  C   UNL     1      -0.978  -0.023   0.514  0.00  0.00    +0.105 C 
ATOM     13  N   UNL     1      -0.499  -1.393   0.730  0.00  0.00    -0.336 N 
ATOM     14  H   UNL     1      -0.983  -2.003   1.309  0.00  0.00    +0.147 HD
ENDROOT
BRANCH  12  15
ATOM     15  C   UNL     1      -0.051   0.949   1.198  0.00  0.00    -0.027 A 
ATOM     16  C   UNL     1       1.314   0.733   1.177  0.00  0.00    +0.009 A 
ATOM     17  C   UNL     1       2.166   1.625   1.798  0.00  0.00    +0.046 A 
ATOM     18  C   UNL     1       1.650   2.733   2.454  0.00  0.00    +0.117 A 
ATOM     19  C   UNL     1       0.279   2.946   2.478  0.00  0.00    +0.046 A 
ATOM     20  C   UNL     1      -0.568   2.053   1.851  0.00  0.00    +0.009 A 
BRANCH  18  21
ATOM     21  O   UNL     1       2.486   3.610   3.070  0.00  0.00    -0.507 OA
ATOM     22  H   UNL     1       2.668   3.396   3.995  0.00  0.00    +0.292 HD
ENDBRANCH  18  21
ENDBRANCH  12  15
BRANCH   1  23
ATOM     23  S   UNL     1       4.471  -3.135  -1.978  0.00  0.00    +0.072 S 
ATOM     24  O   UNL     1       4.923  -2.030  -2.749  0.00  0.00    -0.150 OA
ATOM     25  O   UNL     1       5.278  -3.752  -0.984  0.00  0.00    -0.150 OA
BRANCH  23  26
ATOM     26  N   UNL     1       4.054  -4.324  -3.053  0.00  0.00    -0.216 N 
ATOM     27  H   UNL     1       4.369  -5.231  -2.919  0.00  0.00    +0.174 HD
BRANCH  26  34
ATOM     28  C   UNL     1       1.321  -5.110  -2.977  0.00  0.00    +0.046 C 
ATOM     29  C   UNL     1       1.910  -4.384  -4.160  0.00  0.00    -0.028 A 
ATOM     30  C   UNL     1       1.117  -4.077  -5.247  0.00  0.00    +0.005 A 
ATOM     31  C   UNL     1       1.657  -3.416  -6.335  0.00  0.00    +0.001 A 
ATOM     32  C   UNL     1       2.993  -3.055  -6.335  0.00  0.00    +0.005 A 
ATOM     33  C   UNL     1       3.790  -3.355  -5.248  0.00  0.00    -0.028 A 
ATOM     34  C   UNL     1       3.250  -4.019  -4.154  0.00  0.00    +0.054 A 
ATOM     35  C   UNL     1       5.245  -2.961  -5.249  0.00  0.00    +0.046 C 
ENDBRANCH  26  34
ENDBRANCH  23  26
ENDBRANCH   1  23
TORSDOF 5
