REMARK  Name = ZINC39559033
REMARK  10 active torsions:
REMARK  status: ('A' for Active; 'I' for Inactive)
REMARK    1  A    between atoms: C_1  and  C_2
REMARK    2  A    between atoms: C_2  and  C_3
REMARK    3  A    between atoms: C_2  and  C_4
REMARK    4  A    between atoms: C_2  and  C_5
REMARK    5  A    between atoms: C_8  and  S_11
REMARK    6  A    between atoms: S_11  and  C_12
REMARK    7  A    between atoms: C_12  and  C_13
REMARK    8  A    between atoms: N_15  and  C_16
REMARK    9  A    between atoms: C_16  and  C_17
REMARK   10  A    between atoms: N_19  and  C_20
REMARK                            x       y       z     vdW  Elec       q    Type
REMARK                         _______ _______ _______ _____ _____    ______ ____
ROOT
ATOM      1  C   UNL     1       7.399  -1.674  -7.281  0.00  0.00    +0.200 C 
ENDROOT
BRANCH   1   4
ATOM      2  C   UNL     1       5.320  -1.677  -6.011  0.00  0.00    +0.224 C 
ATOM      3  O   UNL     1       4.832  -2.384  -6.867  0.00  0.00    -0.275 OA
ATOM      4  N   UNL     1       6.599  -1.267  -6.124  0.00  0.00    -0.306 N 
ATOM      5  H   UNL     1       6.989  -0.701  -5.439  0.00  0.00    +0.149 HD
BRANCH   2   6
ATOM      6  C   UNL     1       4.497  -1.257  -4.820  0.00  0.00    +0.170 C 
BRANCH   6   7
ATOM      7  S   UNL     1       2.832  -1.965  -4.957  0.00  0.00    -0.116 S 
BRANCH   7  11
ATOM      8  C   UNL     1       0.706  -0.490  -1.240  0.00  0.00    -0.042 A 
ATOM      9  C   UNL     1       0.036  -1.293  -2.144  0.00  0.00    +0.005 A 
ATOM     10  C   UNL     1       0.681  -1.745  -3.279  0.00  0.00    +0.015 A 
ATOM     11  C   UNL     1       2.005  -1.391  -3.511  0.00  0.00    +0.008 A 
ATOM     12  C   UNL     1       2.675  -0.583  -2.600  0.00  0.00    +0.015 A 
ATOM     13  C   UNL     1       2.022  -0.131  -1.470  0.00  0.00    +0.005 A 
BRANCH   8  15
ATOM     14  C   UNL     1      -0.029   1.530  -0.004  0.00  0.00    +0.015 C 
ATOM     15  C   UNL     1      -0.001   0.001  -0.002  0.00  0.00    -0.013 C 
ATOM     16  C   UNL     1       0.742  -0.495   1.240  0.00  0.00    +0.015 C 
ATOM     17  C   UNL     1      -1.434  -0.536   0.012  0.00  0.00    +0.015 C 
ENDBRANCH   8  15
ENDBRANCH   7  11
ENDBRANCH   6   7
ENDBRANCH   2   6
ENDBRANCH   1   4
BRANCH   1  18
ATOM     18  C   UNL     1       8.782  -1.087  -7.168  0.00  0.00    +0.234 C 
ATOM     19  O   UNL     1       9.071  -0.395  -6.214  0.00  0.00    -0.274 OA
ATOM     20  N   UNL     1       9.698  -1.329  -8.126  0.00  0.00    -0.284 N 
ATOM     21  H   UNL     1       9.490  -1.936  -8.854  0.00  0.00    +0.155 HD
BRANCH  20  22
ATOM     22  C   UNL     1      10.952  -0.706  -8.071  0.00  0.00    +0.036 A 
ATOM     23  C   UNL     1      11.587  -0.320  -9.246  0.00  0.00    +0.025 A 
ATOM     24  C   UNL     1      12.822   0.295  -9.198  0.00  0.00    +0.029 A 
ATOM     25  C   UNL     1      13.432   0.529  -7.975  0.00  0.00    +0.067 A 
ATOM     26  C   UNL     1      12.796   0.142  -6.793  0.00  0.00    +0.069 A 
ATOM     27  C   UNL     1      11.554  -0.470  -6.844  0.00  0.00    +0.051 A 
ATOM     28  N   UNL     1      13.640   0.504  -5.746  0.00  0.00    -0.306 N 
ATOM     29  H   UNL     1      13.466   0.362  -4.802  0.00  0.00    +0.170 HD
ATOM     30  C   UNL     1      14.739   1.084  -6.266  0.00  0.00    +0.325 A 
ATOM     31  O   UNL     1      15.675   1.515  -5.620  0.00  0.00    -0.247 OA
ATOM     32  N   UNL     1      14.643   1.114  -7.608  0.00  0.00    -0.306 N 
ATOM     33  H   UNL     1      15.305   1.480  -8.216  0.00  0.00    +0.170 HD
ENDBRANCH  20  22
ENDBRANCH   1  18
TORSDOF 7
