REMARK  Name = ZINC26441761
REMARK  5 active torsions:
REMARK  status: ('A' for Active; 'I' for Inactive)
REMARK    1  A    between atoms: C_1  and  C_2
REMARK    2  A    between atoms: C_2  and  C_13
REMARK    3  A    between atoms: C_5  and  C_10
REMARK    4  A    between atoms: C_7  and  C_8
REMARK    5  A    between atoms: C_7  and  C_9
REMARK                            x       y       z     vdW  Elec       q    Type
REMARK                         _______ _______ _______ _____ _____    ______ ____
ROOT
ATOM      1  C   UNL     1      -0.041   1.419   0.454  0.00  0.00    +0.014 C 
ATOM      2  C   UNL     1      -0.001  -0.061   0.070  0.00  0.00    +0.001 C 
ATOM      3  C   UNL     1       0.629  -0.228  -1.328  0.00  0.00    +0.010 C 
ATOM      4  C   UNL     1       2.118  -0.541  -1.039  0.00  0.00    +0.014 C 
ATOM      5  C   UNL     1       2.039  -1.447   0.215  0.00  0.00    +0.081 C 
ATOM      6  C   UNL     1       0.895  -0.837   1.051  0.00  0.00    -0.016 C 
ATOM      7  C   UNL     1       1.466   0.116   2.104  0.00  0.00    +0.012 C 
ATOM      8  C   UNL     1       0.092  -1.948   1.730  0.00  0.00    +0.012 C 
ENDROOT
BRANCH   2   9
ATOM      9  C   UNL     1      -1.416  -0.644   0.081  0.00  0.00    +0.167 C 
ATOM     10  C   UNL     1      -2.058  -0.461   1.442  0.00  0.00    +0.241 C 
ATOM     11  O   UNL     1      -2.296   0.587   2.004  0.00  0.00    -0.273 OA
ATOM     12  N   UNL     1      -2.308  -1.704   1.897  0.00  0.00    -0.239 N 
ATOM     13  C   UNL     1      -1.918  -2.638   1.022  0.00  0.00    +0.307 C 
ATOM     14  O   UNL     1      -2.040  -3.832   1.209  0.00  0.00    -0.252 OA
ATOM     15  N   UNL     1      -1.376  -2.106  -0.093  0.00  0.00    -0.287 N 
ATOM     16  H   UNL     1      -2.720  -1.898   2.753  0.00  0.00    +0.159 HD
ATOM     17  H   UNL     1      -1.028  -2.590  -0.859  0.00  0.00    +0.151 HD
ENDBRANCH   2   9
BRANCH   5  18
ATOM     18  C   UNL     1       1.711  -2.864  -0.178  0.00  0.00    +0.214 C 
ATOM     19  O   UNL     1       1.153  -3.088  -1.231  0.00  0.00    -0.276 OA
ATOM     20  N   UNL     1       2.038  -3.884   0.641  0.00  0.00    -0.329 N 
ATOM     21  H   UNL     1       2.484  -3.705   1.483  0.00  0.00    +0.145 HD
ATOM     22  H   UNL     1       1.827  -4.796   0.388  0.00  0.00    +0.145 HD
ENDBRANCH   5  18
TORSDOF 2
