REMARK  Name = ZINC17536640
REMARK  5 active torsions:
REMARK  status: ('A' for Active; 'I' for Inactive)
REMARK    1  A    between atoms: C_7  and  C_24
REMARK    2  A    between atoms: C_12  and  C_13
REMARK    3  A    between atoms: C_24  and  O_26
REMARK    4  A    between atoms: O_26  and  C_27
REMARK    5  A    between atoms: C_27  and  C_28
REMARK                            x       y       z     vdW  Elec       q    Type
REMARK                         _______ _______ _______ _____ _____    ______ ____
ROOT
ATOM      1  C   UNL     1       4.714   1.314   0.128  0.00  0.00    +0.001 A 
ATOM      2  C   UNL     1       4.632  -0.051   0.394  0.00  0.00    +0.002 A 
ATOM      3  C   UNL     1       3.437  -0.702   0.368  0.00  0.00    +0.028 A 
ATOM      4  C   UNL     1       2.261   0.011   0.069  0.00  0.00    +0.072 A 
ATOM      5  C   UNL     1       2.350   1.401  -0.198  0.00  0.00    +0.015 A 
ATOM      6  C   UNL     1       3.595   2.037  -0.165  0.00  0.00    +0.011 A 
ATOM      7  C   UNL     1       1.123   2.135  -0.504  0.00  0.00    +0.073 A 
ATOM      8  C   UNL     1      -0.070   1.422  -0.514  0.00  0.00    -0.007 A 
ATOM      9  C   UNL     1      -0.047   0.042  -0.243  0.00  0.00    +0.072 A 
ATOM     10  N   UNL     1       1.077  -0.598   0.034  0.00  0.00    -0.247 NA
ATOM     11  C   UNL     1      -1.313  -0.724  -0.270  0.00  0.00    -0.021 C 
ATOM     12  C   UNL     1      -1.311  -2.069  -0.257  0.00  0.00    +0.018 C 
ATOM     13  C   UNL     1      -2.609   0.057  -0.312  0.00  0.00    +0.037 C 
ATOM     14  C   UNL     1      -2.427   1.199  -1.319  0.00  0.00    +0.009 C 
ATOM     15  C   UNL     1      -1.349   2.153  -0.811  0.00  0.00    +0.038 C 
ENDROOT
BRANCH  12  16
ATOM     16  C   UNL     1      -2.582  -2.805  -0.151  0.00  0.00    +0.029 A 
ATOM     17  C   UNL     1      -3.430  -2.594   0.943  0.00  0.00    +0.132 A 
ATOM     18  C   UNL     1      -4.620  -3.289   1.033  0.00  0.00    +0.039 A 
ATOM     19  C   UNL     1      -4.975  -4.191   0.046  0.00  0.00    +0.004 A 
ATOM     20  C   UNL     1      -4.143  -4.405  -1.038  0.00  0.00    +0.021 A 
ATOM     21  C   UNL     1      -2.952  -3.715  -1.147  0.00  0.00    +0.051 A 
ATOM     22 CL   UNL     1      -1.913  -3.982  -2.512  0.00  0.00    -0.083 Cl
ATOM     23  F   UNL     1      -3.084  -1.713   1.908  0.00  0.00    -0.205 F 
ENDBRANCH  12  16
BRANCH   7  24
ATOM     24  C   UNL     1       1.149   3.585  -0.792  0.00  0.00    +0.341 C 
ATOM     25  O   UNL     1       1.029   4.386   0.113  0.00  0.00    -0.245 OA
BRANCH  24  26
ATOM     26  O   UNL     1       1.308   4.017  -2.058  0.00  0.00    -0.453 OA
BRANCH  26  27
ATOM     27  C   UNL     1       1.325   5.454  -2.266  0.00  0.00    +0.308 C 
BRANCH  27  28
ATOM     28  C   UNL     1       1.510   5.747  -3.732  0.00  0.00    +0.173 A 
ATOM     29  N   UNL     1       2.727   5.888  -4.228  0.00  0.00    -0.196 NA
ATOM     30  C   UNL     1       2.895   6.142  -5.524  0.00  0.00    +0.217 A 
ATOM     31  N   UNL     1       1.837   6.264  -6.317  0.00  0.00    -0.181 NA
ATOM     32  C   UNL     1       0.615   6.126  -5.815  0.00  0.00    +0.217 A 
ATOM     33  N   UNL     1       0.455   5.867  -4.519  0.00  0.00    -0.196 NA
ATOM     34  N   UNL     1      -0.488   6.251  -6.635  0.00  0.00    -0.327 N 
ATOM     35  N   UNL     1       4.167   6.283  -6.041  0.00  0.00    -0.327 N 
ATOM     36  H   UNL     1      -1.380   6.151  -6.268  0.00  0.00    +0.145 HD
ATOM     37  H   UNL     1      -0.371   6.440  -7.579  0.00  0.00    +0.145 HD
ATOM     38  H   UNL     1       4.288   6.472  -6.985  0.00  0.00    +0.145 HD
ATOM     39  H   UNL     1       4.939   6.194  -5.461  0.00  0.00    +0.145 HD
ENDBRANCH  27  28
ENDBRANCH  26  27
ENDBRANCH  24  26
ENDBRANCH   7  24
TORSDOF 5
