REMARK  Name = ZINC17729754
REMARK  4 active torsions:
REMARK  status: ('A' for Active; 'I' for Inactive)
REMARK    1  A    between atoms: C_6  and  C_7
REMARK    2  A    between atoms: C_7  and  C_8
REMARK    3  A    between atoms: N_13  and  N_14
REMARK    4  A    between atoms: N_14  and  C_15
REMARK                            x       y       z     vdW  Elec       q    Type
REMARK                         _______ _______ _______ _____ _____    ______ ____
ROOT
ATOM      1  C   UNL     1       3.563  -0.981  -0.037  0.00  0.00    +0.225 C 
ATOM      2  O   UNL     1       4.605  -0.360  -0.044  0.00  0.00    -0.275 OA
ATOM      3  N   UNL     1       2.387  -0.323  -0.022  0.00  0.00    -0.239 N 
ATOM      4  C   UNL     1       2.369   1.025  -0.015  0.00  0.00    +0.322 C 
ATOM      5  O   UNL     1       3.413   1.647  -0.022  0.00  0.00    -0.251 OA
ATOM      6  N   UNL     1       1.193   1.683  -0.000  0.00  0.00    -0.220 N 
ATOM      7  H   UNL     1       1.554  -0.819  -0.017  0.00  0.00    +0.159 HD
ATOM      8  H   UNL     1       1.179   2.653   0.005  0.00  0.00    +0.174 HD
ENDROOT
BRANCH   6   9
ATOM      9  N   UNL     1      -0.011   0.966   0.007  0.00  0.00    -0.263 N 
ATOM     10  H   UNL     1       0.002  -0.004   0.002  0.00  0.00    +0.170 HD
BRANCH   9  11
ATOM     11  C   UNL     1      -1.231   1.648   0.017  0.00  0.00    +0.046 A 
ATOM     12  C   UNL     1      -1.251   3.037   0.030  0.00  0.00    +0.026 A 
ATOM     13  C   UNL     1      -2.457   3.709   0.033  0.00  0.00    +0.023 A 
ATOM     14  C   UNL     1      -3.646   3.001   0.036  0.00  0.00    +0.059 A 
ATOM     15  C   UNL     1      -3.629   1.616   0.028  0.00  0.00    +0.061 A 
ATOM     16  C   UNL     1      -2.424   0.939   0.019  0.00  0.00    +0.046 A 
ATOM     17 CL   UNL     1      -5.122   0.731   0.030  0.00  0.00    -0.082 Cl
ATOM     18 CL   UNL     1      -5.160   3.849   0.047  0.00  0.00    -0.082 Cl
ENDBRANCH   9  11
ENDBRANCH   6   9
BRANCH   1  19
ATOM     19  C   UNL     1       3.584  -2.487  -0.045  0.00  0.00    +0.131 C 
BRANCH  19  25
ATOM     20  C   UNL     1       5.652  -3.191  -1.266  0.00  0.00    +0.005 A 
ATOM     21  C   UNL     1       6.963  -3.629  -1.282  0.00  0.00    +0.015 A 
ATOM     22  C   UNL     1       7.630  -3.857  -0.091  0.00  0.00    +0.018 A 
ATOM     23  C   UNL     1       6.986  -3.642   1.114  0.00  0.00    +0.015 A 
ATOM     24  C   UNL     1       5.677  -3.198   1.128  0.00  0.00    +0.005 A 
ATOM     25  C   UNL     1       5.011  -2.970  -0.062  0.00  0.00    -0.039 A 
ATOM     26 BR   UNL     1       9.421  -4.463  -0.112  0.00  0.00    -0.050 Br
ENDBRANCH  19  25
ENDBRANCH   1  19
TORSDOF 4
