REMARK  Name = ZINC14248181
REMARK  3 active torsions:
REMARK  status: ('A' for Active; 'I' for Inactive)
REMARK    1  A    between atoms: C_2  and  C_13
REMARK    2  A    between atoms: C_3  and  C_8
REMARK    3  A    between atoms: C_3  and  O_12
REMARK                            x       y       z     vdW  Elec       q    Type
REMARK                         _______ _______ _______ _____ _____    ______ ____
ROOT
ATOM      1  C   UNL     1       0.821   1.447   0.116  0.00  0.00    +0.089 C 
ATOM      2  C   UNL     1       1.096   2.750  -0.111  0.00  0.00    +0.113 C 
ATOM      3  C   UNL     1      -0.073   3.707  -0.236  0.00  0.00    +0.264 C 
ATOM      4  N   UNL     1      -1.422   3.132  -0.098  0.00  0.00    -0.288 N 
ATOM      5  C   UNL     1      -1.536   1.807   0.123  0.00  0.00    +0.137 C 
ATOM      6  S   UNL     1      -3.098   1.125   0.278  0.00  0.00    -0.018 S 
ATOM      7  N   UNL     1      -0.467   1.008   0.229  0.00  0.00    -0.303 N 
ATOM      8  H   UNL     1      -2.211   3.693  -0.168  0.00  0.00    +0.151 HD
ATOM      9  H   UNL     1      -0.616   0.064   0.392  0.00  0.00    +0.153 HD
ENDROOT
BRANCH   3  10
ATOM     10  C   UNL     1       0.014   4.382  -1.606  0.00  0.00    +0.440 C 
ATOM     11  F   UNL     1       0.102   3.405  -2.603  0.00  0.00    -0.166 F 
ATOM     12  F   UNL     1      -1.130   5.160  -1.816  0.00  0.00    -0.166 F 
ATOM     13  F   UNL     1       1.149   5.199  -1.652  0.00  0.00    -0.166 F 
ENDBRANCH   3  10
BRANCH   2  14
ATOM     14  C   UNL     1       2.429   3.206  -0.229  0.00  0.00    +0.388 C 
ATOM     15  O   UNL     1       3.346   2.407  -0.243  0.00  0.00    -0.241 OA
ATOM     16  O   UNL     1       2.684   4.528  -0.327  0.00  0.00    -0.241 OA
ENDBRANCH   2  14
BRANCH   3  17
ATOM     17  O   UNL     1       0.078   4.719   0.761  0.00  0.00    -0.361 OA
ATOM     18  H   UNL     1      -0.627   5.381   0.759  0.00  0.00    +0.213 HD
ENDBRANCH   3  17
TORSDOF 3
