REMARK  Name = ZINC05808871
REMARK  8 active torsions:
REMARK  status: ('A' for Active; 'I' for Inactive)
REMARK    1  A    between atoms: C_4  and  C_7
REMARK    2  A    between atoms: C_7  and  C_9
REMARK    3  A    between atoms: C_7  and  C_23
REMARK    4  A    between atoms: C_9  and  C_17
REMARK    5  A    between atoms: N_10  and  N_11
REMARK    6  A    between atoms: C_12  and  C_14
REMARK    7  A    between atoms: C_14  and  C_15
REMARK    8  A    between atoms: C_23  and  O_35
REMARK                            x       y       z     vdW  Elec       q    Type
REMARK                         _______ _______ _______ _____ _____    ______ ____
ROOT
ATOM      1  C   UNL     1      -1.085   3.818  -1.666  0.00  0.00    +0.115 C 
ENDROOT
BRANCH   1   2
ATOM      2  C   UNL     1      -0.047   3.777  -0.543  0.00  0.00    +0.182 C 
ATOM      3  C   UNL     1       1.350   3.713  -1.115  0.00  0.00    +0.035 A 
ATOM      4  C   UNL     1       2.072   4.565  -1.923  0.00  0.00    +0.049 A 
ATOM      5  C   UNL     1       3.364   4.234  -2.296  0.00  0.00    +0.022 A 
ATOM      6  C   UNL     1       3.925   3.049  -1.856  0.00  0.00    +0.023 A 
ATOM      7  C   UNL     1       3.204   2.194  -1.047  0.00  0.00    +0.063 A 
ATOM      8  C   UNL     1       1.902   2.521  -0.667  0.00  0.00    +0.060 A 
ATOM      9  N   UNL     1       0.985   1.834   0.130  0.00  0.00    -0.281 N 
ATOM     10  C   UNL     1      -0.179   2.494   0.249  0.00  0.00    +0.255 C 
ATOM     11  O   UNL     1      -1.152   2.132   0.876  0.00  0.00    -0.272 OA
ATOM     12 CL   UNL     1       3.919   0.710  -0.500  0.00  0.00    -0.082 Cl
ATOM     13 CL   UNL     1       1.363   6.051  -2.473  0.00  0.00    -0.083 Cl
ATOM     14  H   UNL     1       1.166   0.977   0.547  0.00  0.00    +0.155 HD
BRANCH   2  15
ATOM     15  O   UNL     1      -0.186   4.915   0.310  0.00  0.00    -0.374 OA
ATOM     16  H   UNL     1       0.428   4.924   1.057  0.00  0.00    +0.211 HD
ENDBRANCH   2  15
ENDBRANCH   1   2
BRANCH   1  20
ATOM     17  C   UNL     1      -0.852   7.574  -3.687  0.00  0.00    +0.000 A 
ATOM     18  C   UNL     1      -0.630   6.400  -4.383  0.00  0.00    +0.000 A 
ATOM     19  C   UNL     1      -0.706   5.184  -3.729  0.00  0.00    +0.004 A 
ATOM     20  C   UNL     1      -1.003   5.143  -2.379  0.00  0.00    -0.035 A 
ATOM     21  C   UNL     1      -1.229   6.317  -1.685  0.00  0.00    +0.004 A 
ATOM     22  C   UNL     1      -1.149   7.532  -2.338  0.00  0.00    +0.000 A 
ENDBRANCH   1  20
BRANCH   1  23
ATOM     23  C   UNL     1      -2.464   3.647  -1.082  0.00  0.00    +0.077 C 
ATOM     24  N   UNL     1      -3.159   4.689  -0.743  0.00  0.00    -0.184 NA
BRANCH  23  25
ATOM     25  C   UNL     1      -3.023   2.295  -0.896  0.00  0.00    -0.002 A 
ATOM     26  C   UNL     1      -2.801   1.305  -1.857  0.00  0.00    +0.010 A 
ATOM     27  C   UNL     1      -3.323   0.042  -1.674  0.00  0.00    +0.001 A 
ATOM     28  C   UNL     1      -4.074  -0.244  -0.547  0.00  0.00    +0.000 A 
ATOM     29  C   UNL     1      -4.303   0.733   0.406  0.00  0.00    +0.001 A 
ATOM     30  C   UNL     1      -3.782   1.999   0.238  0.00  0.00    +0.010 A 
ENDBRANCH  23  25
BRANCH  24  31
ATOM     31  N   UNL     1      -4.499   4.543  -0.361  0.00  0.00    -0.206 N 
ATOM     32  C   UNL     1      -5.231   5.629  -0.043  0.00  0.00    +0.246 C 
ATOM     33  O   UNL     1      -4.729   6.732  -0.088  0.00  0.00    -0.273 OA
ATOM     34  H   UNL     1      -4.899   3.660  -0.325  0.00  0.00    +0.177 HD
BRANCH  32  35
ATOM     35  C   UNL     1      -6.672   5.472   0.368  0.00  0.00    +0.215 C 
BRANCH  35  36
ATOM     36  C   UNL     1      -7.245   6.796   0.661  0.00  0.00    +0.072 C 
ATOM     37  N   UNL     1      -7.688   7.817   0.887  0.00  0.00    -0.196 NA
ENDBRANCH  35  36
ENDBRANCH  32  35
ENDBRANCH  24  31
ENDBRANCH   1  23
TORSDOF 8
