REMARK  Name = ZINC19982097
REMARK  5 active torsions:
REMARK  status: ('A' for Active; 'I' for Inactive)
REMARK    1  A    between atoms: C_1  and  C_2
REMARK    2  A    between atoms: C_4  and  N_7
REMARK    3  A    between atoms: N_7  and  S_8
REMARK    4  A    between atoms: S_8  and  C_11
REMARK    5  A    between atoms: C_13  and  N_18
REMARK                            x       y       z     vdW  Elec       q    Type
REMARK                         _______ _______ _______ _____ _____    ______ ____
ROOT
ATOM      1  S   UNL     1      -1.512  -0.905   0.012  0.00  0.00    +0.095 S 
ATOM      2  O   UNL     1      -1.436  -1.962   0.958  0.00  0.00    -0.148 OA
ATOM      3  O   UNL     1      -2.502   0.113   0.085  0.00  0.00    -0.148 OA
ENDROOT
BRANCH   1   4
ATOM      4  C   UNL     1       0.050  -0.091   0.038  0.00  0.00    +0.130 A 
ATOM      5  C   UNL     1       0.110   1.284   0.155  0.00  0.00    +0.053 A 
ATOM      6  C   UNL     1       1.342   1.925   0.176  0.00  0.00    +0.027 A 
ATOM      7  C   UNL     1       2.511   1.180   0.080  0.00  0.00    +0.024 A 
ATOM      8  C   UNL     1       2.445  -0.195  -0.036  0.00  0.00    +0.024 A 
ATOM      9  C   UNL     1       1.216  -0.830  -0.057  0.00  0.00    +0.068 A 
ATOM     10 CL   UNL     1       1.137  -2.558  -0.202  0.00  0.00    -0.082 Cl
BRANCH   6  11
ATOM     11  N   UNL     1       1.406   3.316   0.293  0.00  0.00    -0.358 N 
ATOM     12  H   UNL     1       2.382   3.822   0.310  0.00  0.00    +0.142 HD
ATOM     13  H   UNL     1       0.480   3.904   0.369  0.00  0.00    +0.142 HD
ENDBRANCH   6  11
ENDBRANCH   1   4
BRANCH   1  14
ATOM     14  N   UNL     1      -1.671  -1.612  -1.477  0.00  0.00    -0.074 NA
BRANCH  14  18
ATOM     15  C   UNL     1      -2.077  -0.006  -6.176  0.00  0.00    +0.089 C 
ATOM     16  C   UNL     1      -1.897  -0.126  -4.684  0.00  0.00    +0.136 A 
ATOM     17  C   UNL     1      -1.948  -1.262  -3.953  0.00  0.00    +0.094 A 
ATOM     18  C   UNL     1      -1.718  -0.822  -2.621  0.00  0.00    +0.205 A 
ATOM     19  N   UNL     1      -1.564   0.475  -2.687  0.00  0.00    -0.060 NA
ATOM     20  O   UNL     1      -1.656   0.875  -3.824  0.00  0.00    -0.358 OA
ENDBRANCH  14  18
ENDBRANCH   1  14
TORSDOF 4
