REMARK  Name = ZINC62322400
REMARK  6 active torsions:
REMARK  status: ('A' for Active; 'I' for Inactive)
REMARK    1  A    between atoms: C_1  and  C_2
REMARK    2  A    between atoms: N_10  and  C_11
REMARK    3  A    between atoms: C_11  and  C_12
REMARK    4  A    between atoms: N_14  and  N_15
REMARK    5  A    between atoms: C_16  and  C_21
REMARK    6  A    between atoms: C_17  and  C_18
REMARK                            x       y       z     vdW  Elec       q    Type
REMARK                         _______ _______ _______ _____ _____    ______ ____
ROOT
ATOM      1  C   UNL     1      -0.132   1.497  -0.091  0.00  0.00    +0.044 C 
ATOM      2  C   UNL     1      -0.052  -0.007  -0.047  0.00  0.00    -0.034 A 
ATOM      3  C   UNL     1      -0.119  -0.721  -1.207  0.00  0.00    +0.030 A 
ATOM      4  C   UNL     1      -0.047  -2.113  -1.180  0.00  0.00    +0.053 A 
ATOM      5  C   UNL     1       0.096  -2.781   0.053  0.00  0.00    +0.002 A 
ATOM      6  C   UNL     1       0.170  -4.245   0.064  0.00  0.00    +0.015 A 
ATOM      7  C   UNL     1       0.098  -4.904  -1.118  0.00  0.00    +0.071 A 
ATOM      8  C   UNL     1      -0.045  -4.185  -2.325  0.00  0.00    +0.252 A 
ATOM      9  O   UNL     1      -0.109  -4.797  -3.377  0.00  0.00    -0.268 OA
ATOM     10  N   UNL     1      -0.114  -2.843  -2.344  0.00  0.00    -0.299 N 
ATOM     11  C   UNL     1       0.165  -2.049   1.238  0.00  0.00    -0.027 A 
ATOM     12  C   UNL     1       0.095  -0.659   1.187  0.00  0.00    +0.070 A 
ATOM     13  C   UNL     1       0.317  -2.755   2.561  0.00  0.00    +0.045 C 
ENDROOT
BRANCH  12  14
ATOM     14  C   UNL     1       0.172   0.129   2.430  0.00  0.00    +0.387 C 
ATOM     15  O   UNL     1      -0.840   0.336   3.086  0.00  0.00    -0.241 OA
ATOM     16  O   UNL     1       1.246   0.575   2.806  0.00  0.00    -0.241 OA
ENDBRANCH  12  14
BRANCH  10  17
ATOM     17  C   UNL     1      -0.263  -2.147  -3.624  0.00  0.00    +0.222 C 
BRANCH  17  18
ATOM     18  C   UNL     1       1.100  -1.837  -4.189  0.00  0.00    +0.246 C 
ATOM     19  O   UNL     1       2.097  -2.166  -3.582  0.00  0.00    -0.273 OA
ATOM     20  N   UNL     1       1.210  -1.195  -5.369  0.00  0.00    -0.252 N 
ATOM     21  H   UNL     1       0.412  -0.932  -5.854  0.00  0.00    +0.169 HD
BRANCH  20  22
ATOM     22  N   UNL     1       2.445  -0.914  -5.881  0.00  0.00    -0.254 NA
ATOM     23  H   UNL     1       2.369  -0.434  -6.764  0.00  0.00    +0.140 HD
ATOM     24  H   UNL     1       2.996  -0.381  -5.225  0.00  0.00    +0.140 HD
ENDBRANCH  20  22
ENDBRANCH  17  18
ENDBRANCH  10  17
TORSDOF 4
