REMARK  Name = ZINC04772743
REMARK  14 active torsions:
REMARK  status: ('A' for Active; 'I' for Inactive)
REMARK    1  A    between atoms: C_1  and  C_2
REMARK    2  A    between atoms: C_5  and  N_9
REMARK    3  A    between atoms: C_7  and  C_8
REMARK    4  A    between atoms: N_9  and  C_10
REMARK    5  A    between atoms: N_9  and  N_22
REMARK    6  A    between atoms: C_10  and  C_11
REMARK    7  A    between atoms: C_11  and  C_13
REMARK    8  A    between atoms: C_11  and  O_21
REMARK    9  A    between atoms: C_13  and  C_15
REMARK   10  A    between atoms: C_13  and  O_20
REMARK   11  A    between atoms: C_15  and  C_17
REMARK   12  A    between atoms: C_15  and  O_19
REMARK   13  A    between atoms: C_17  and  O_18
REMARK   14  A    between atoms: N_23  and  C_24
REMARK                            x       y       z     vdW  Elec       q    Type
REMARK                         _______ _______ _______ _____ _____    ______ ____
ROOT
ATOM      1  N   UNL     1      -0.506   1.745   6.203  0.00  0.00    -0.204 N 
ENDROOT
BRANCH   1   6
ATOM      2  C   UNL     1      -0.030   7.199   7.680  0.00  0.00    +0.044 C 
ATOM      3  C   UNL     1      -0.156   5.750   7.287  0.00  0.00    -0.047 A 
ATOM      4  C   UNL     1      -1.251   5.015   7.705  0.00  0.00    +0.005 A 
ATOM      5  C   UNL     1      -1.373   3.688   7.342  0.00  0.00    +0.025 A 
ATOM      6  C   UNL     1      -0.388   3.088   6.567  0.00  0.00    +0.053 A 
ATOM      7  C   UNL     1       0.710   3.829   6.149  0.00  0.00    +0.028 A 
ATOM      8  C   UNL     1       0.823   5.158   6.511  0.00  0.00    -0.046 A 
ATOM      9  C   UNL     1       2.014   5.962   6.058  0.00  0.00    +0.044 C 
ENDBRANCH   1   6
BRANCH   1  10
ATOM     10  N   UNL     1      -0.808   0.780   7.173  0.00  0.00    -0.074 NA
ATOM     11  N   UNL     1      -0.899   1.120   8.414  0.00  0.00    -0.134 NA
BRANCH  11  12
ATOM     12  C   UNL     1      -1.195   0.175   9.364  0.00  0.00    +0.088 A 
ATOM     13  C   UNL     1      -1.406  -1.153   8.989  0.00  0.00    +0.031 A 
ATOM     14  C   UNL     1      -1.697  -2.099   9.949  0.00  0.00    +0.022 A 
ATOM     15  C   UNL     1      -1.794  -1.731  11.281  0.00  0.00    +0.041 A 
ATOM     16  C   UNL     1      -1.592  -0.414  11.658  0.00  0.00    +0.022 A 
ATOM     17  C   UNL     1      -1.293   0.540  10.707  0.00  0.00    +0.031 A 
ATOM     18 CL   UNL     1      -2.169  -2.926  12.483  0.00  0.00    -0.084 Cl
ENDBRANCH  11  12
ENDBRANCH   1  10
BRANCH   1  19
ATOM     19  C   UNL     1      -0.312   1.344   4.807  0.00  0.00    +0.167 C 
BRANCH  19  20
ATOM     20  C   UNL     1      -1.625   1.514   4.041  0.00  0.00    +0.165 C 
BRANCH  20  21
ATOM     21  O   UNL     1      -1.972   2.900   3.992  0.00  0.00    -0.388 OA
ATOM     22  H   UNL     1      -1.312   3.455   3.554  0.00  0.00    +0.210 HD
ENDBRANCH  20  21
BRANCH  20  23
ATOM     23  C   UNL     1      -1.457   0.980   2.617  0.00  0.00    +0.175 C 
BRANCH  23  24
ATOM     24  O   UNL     1      -0.346   1.626   1.993  0.00  0.00    -0.387 OA
ATOM     25  H   UNL     1      -0.435   2.587   1.929  0.00  0.00    +0.210 HD
ENDBRANCH  23  24
BRANCH  23  26
ATOM     26  C   UNL     1      -2.728   1.263   1.813  0.00  0.00    +0.171 C 
BRANCH  26  27
ATOM     27  O   UNL     1      -3.840   0.617   2.437  0.00  0.00    -0.387 OA
ATOM     28  H   UNL     1      -3.751  -0.344   2.501  0.00  0.00    +0.210 HD
ENDBRANCH  26  27
BRANCH  26  29
ATOM     29  C   UNL     1      -2.561   0.729   0.389  0.00  0.00    +0.189 C 
BRANCH  29  30
ATOM     30  O   UNL     1      -3.699   1.095  -0.394  0.00  0.00    -0.392 OA
ATOM     31  H   UNL     1      -3.660   0.788  -1.310  0.00  0.00    +0.210 HD
ENDBRANCH  29  30
ENDBRANCH  26  29
ENDBRANCH  23  26
ENDBRANCH  20  23
ENDBRANCH  19  20
ENDBRANCH   1  19
TORSDOF 12
