REMARK  Name = ZINC06757528
REMARK  8 active torsions:
REMARK  status: ('A' for Active; 'I' for Inactive)
REMARK    1  A    between atoms: C_1  and  C_2
REMARK    2  A    between atoms: C_2  and  C_25
REMARK    3  A    between atoms: N_11  and  C_19
REMARK    4  A    between atoms: N_14  and  C_15
REMARK    5  A    between atoms: C_15  and  C_16
REMARK    6  A    between atoms: C_19  and  C_20
REMARK    7  A    between atoms: C_20  and  C_21
REMARK    8  A    between atoms: C_21  and  O_22
REMARK                            x       y       z     vdW  Elec       q    Type
REMARK                         _______ _______ _______ _____ _____    ______ ____
ROOT
ATOM      1  C   UNL     1       0.406  -7.936   4.615  0.00  0.00    +0.041 C 
ATOM      2  C   UNL     1       0.328  -6.453   4.246  0.00  0.00    +0.068 C 
ATOM      3  C   UNL     1      -0.159  -6.315   2.799  0.00  0.00    +0.071 C 
ATOM      4  C   UNL     1      -0.458  -4.842   2.543  0.00  0.00    -0.018 A 
ATOM      5  C   UNL     1      -0.618  -3.997   3.584  0.00  0.00    +0.021 A 
ATOM      6  S   UNL     1      -0.939  -2.424   2.844  0.00  0.00    -0.073 S 
ATOM      7  C   UNL     1      -0.861  -2.883   1.184  0.00  0.00    +0.098 A 
ATOM      8  C   UNL     1      -0.587  -4.252   1.213  0.00  0.00    +0.074 A 
ATOM      9  C   UNL     1      -0.467  -4.910  -0.106  0.00  0.00    +0.265 A 
ATOM     10  O   UNL     1      -0.229  -6.101  -0.181  0.00  0.00    -0.267 OA
ATOM     11  N   UNL     1      -0.623  -4.176  -1.222  0.00  0.00    -0.260 N 
ATOM     12  C   UNL     1      -0.891  -2.861  -1.175  0.00  0.00    +0.333 A 
ATOM     13  O   UNL     1      -1.028  -2.243  -2.213  0.00  0.00    -0.246 OA
ATOM     14  N   UNL     1      -1.005  -2.212  -0.000  0.00  0.00    -0.278 N 
ATOM     15  C   UNL     1      -0.534  -4.358   5.035  0.00  0.00    +0.203 C 
ATOM     16  O   UNL     1      -0.575  -5.790   5.135  0.00  0.00    -0.368 OA
ATOM     17  C   UNL     1       1.716  -5.824   4.376  0.00  0.00    +0.041 C 
ENDROOT
BRANCH  14  18
ATOM     18  C   UNL     1      -1.293  -0.775   0.010  0.00  0.00    +0.222 C 
BRANCH  18  19
ATOM     19  C   UNL     1       0.002  -0.004   0.002  0.00  0.00    +0.230 C 
ATOM     20  O   UNL     1       1.060  -0.596  -0.011  0.00  0.00    -0.274 OA
ATOM     21  N   UNL     1      -0.016   1.344   0.009  0.00  0.00    -0.328 N 
ATOM     22  H   UNL     1       0.817   1.840   0.004  0.00  0.00    +0.145 HD
ATOM     23  H   UNL     1      -0.863   1.817   0.016  0.00  0.00    +0.145 HD
ENDBRANCH  18  19
ENDBRANCH  14  18
BRANCH  11  24
ATOM     24  C   UNL     1      -0.502  -4.832  -2.527  0.00  0.00    +0.132 C 
BRANCH  24  25
ATOM     25  C   UNL     1      -1.875  -5.343  -2.970  0.00  0.00    +0.049 C 
BRANCH  25  26
ATOM     26  C   UNL     1      -1.749  -6.027  -4.333  0.00  0.00    +0.157 C 
BRANCH  26  27
ATOM     27  O   UNL     1      -3.030  -6.505  -4.746  0.00  0.00    -0.395 OA
ATOM     28  H   UNL     1      -3.026  -6.951  -5.604  0.00  0.00    +0.209 HD
ENDBRANCH  26  27
ENDBRANCH  25  26
ENDBRANCH  24  25
ENDBRANCH  11  24
TORSDOF 6
