REMARK  Name = ZINC39361851
REMARK  10 active torsions:
REMARK  status: ('A' for Active; 'I' for Inactive)
REMARK    1  A    between atoms: C_1  and  C_2
REMARK    2  A    between atoms: C_5  and  N_8
REMARK    3  A    between atoms: C_9  and  C_11
REMARK    4  A    between atoms: C_11  and  S_12
REMARK    5  A    between atoms: S_12  and  C_13
REMARK    6  A    between atoms: C_16  and  C_27
REMARK    7  A    between atoms: N_18  and  C_19
REMARK    8  A    between atoms: C_21  and  C_26
REMARK    9  A    between atoms: C_24  and  C_25
REMARK   10  A    between atoms: C_27  and  C_28
REMARK                            x       y       z     vdW  Elec       q    Type
REMARK                         _______ _______ _______ _____ _____    ______ ____
ROOT
ATOM      1  C   UNL     1       0.593  -8.709   2.636  0.00  0.00    +0.180 C 
ATOM      2  N   UNL     1       0.598  -9.316   1.498  0.00  0.00    -0.162 NA
ATOM      3  N   UNL     1       0.728 -10.701   1.656  0.00  0.00    -0.246 N 
ATOM      4  C   UNL     1       0.813 -10.943   3.107  0.00  0.00    +0.187 C 
ATOM      5  N   UNL     1       0.724  -9.596   3.695  0.00  0.00    -0.258 N 
ATOM      6  H   UNL     1       0.757 -11.368   0.952  0.00  0.00    +0.170 HD
ENDROOT
BRANCH   5   7
ATOM      7  C   UNL     1       0.761  -9.274   5.055  0.00  0.00    +0.041 A 
ATOM      8  C   UNL     1      -0.416  -9.227   5.791  0.00  0.00    +0.027 A 
ATOM      9  C   UNL     1      -0.376  -8.909   7.134  0.00  0.00    -0.049 A 
ATOM     10  C   UNL     1       0.834  -8.637   7.746  0.00  0.00    +0.004 A 
ATOM     11  C   UNL     1       2.007  -8.683   7.016  0.00  0.00    +0.005 A 
ATOM     12  C   UNL     1       1.975  -9.006   5.674  0.00  0.00    -0.029 A 
ATOM     13  C   UNL     1       3.255  -9.062   4.880  0.00  0.00    +0.045 C 
ATOM     14  C   UNL     1      -1.653  -8.857   7.934  0.00  0.00    +0.044 C 
ENDBRANCH   5   7
BRANCH   1  15
ATOM     15  S   UNL     1       0.446  -6.963   2.823  0.00  0.00    -0.079 S 
BRANCH  15  16
ATOM     16  C   UNL     1       0.309  -6.349   1.121  0.00  0.00    +0.173 C 
BRANCH  16  18
ATOM     17  N   UNL     1       0.059  -4.170  -0.021  0.00  0.00    -0.285 N 
ATOM     18  C   UNL     1       0.175  -4.848   1.138  0.00  0.00    +0.227 C 
ATOM     19  O   UNL     1       0.173  -4.251   2.193  0.00  0.00    -0.275 OA
ATOM     20  H   UNL     1      -0.017  -4.651  -0.860  0.00  0.00    +0.155 HD
BRANCH  17  25
ATOM     21  C   UNL     1       0.008   1.503   0.007  0.00  0.00    +0.044 C 
ATOM     22  C   UNL     1       0.022  -0.004  -0.001  0.00  0.00    -0.050 A 
ATOM     23  C   UNL     1       0.777  -0.692   0.931  0.00  0.00    +0.005 A 
ATOM     24  C   UNL     1       0.791  -2.073   0.927  0.00  0.00    +0.023 A 
ATOM     25  C   UNL     1       0.046  -2.771  -0.014  0.00  0.00    +0.033 A 
ATOM     26  C   UNL     1      -0.712  -2.077  -0.948  0.00  0.00    +0.023 A 
ATOM     27  C   UNL     1      -0.726  -0.696  -0.936  0.00  0.00    +0.005 A 
ENDBRANCH  17  25
ENDBRANCH  16  18
ENDBRANCH  15  16
ENDBRANCH   1  15
BRANCH   4  28
ATOM     28  C   UNL     1      -0.351 -11.819   3.574  0.00  0.00    +0.097 C 
BRANCH  28  29
ATOM     29  C   UNL     1      -0.215 -13.196   2.976  0.00  0.00    +0.029 A 
ATOM     30  N   UNL     1      -0.694 -13.450   1.720  0.00  0.00    -0.311 N 
ATOM     31  C   UNL     1      -0.577 -14.676   1.177  0.00  0.00    +0.327 A 
ATOM     32  O   UNL     1      -1.009 -14.880   0.059  0.00  0.00    -0.247 OA
ATOM     33  N   UNL     1       0.013 -15.679   1.853  0.00  0.00    -0.275 N 
ATOM     34  C   UNL     1       0.498 -15.469   3.094  0.00  0.00    +0.254 A 
ATOM     35  O   UNL     1       1.032 -16.375   3.707  0.00  0.00    -0.268 OA
ATOM     36  C   UNL     1       0.386 -14.182   3.675  0.00  0.00    +0.091 A 
ATOM     37  H   UNL     1       0.089 -16.556   1.447  0.00  0.00    +0.173 HD
ATOM     38  H   UNL     1      -1.122 -12.741   1.216  0.00  0.00    +0.170 HD
ENDBRANCH  28  29
ENDBRANCH   4  28
TORSDOF 7
