REMARK  Name = ZINC06257991
REMARK  6 active torsions:
REMARK  status: ('A' for Active; 'I' for Inactive)
REMARK    1  A    between atoms: C_4  and  S_7
REMARK    2  A    between atoms: S_7  and  N_10
REMARK    3  A    between atoms: N_10  and  C_11
REMARK    4  A    between atoms: C_23  and  N_25
REMARK    5  A    between atoms: N_25  and  C_26
REMARK    6  A    between atoms: C_29  and  O_32
REMARK                            x       y       z     vdW  Elec       q    Type
REMARK                         _______ _______ _______ _____ _____    ______ ____
ROOT
ATOM      1  C   UNL     1      -1.005  -2.218   0.431  0.00  0.00    +0.131 C 
ATOM      2  C   UNL     1      -1.425  -2.982  -0.800  0.00  0.00    -0.019 A 
ATOM      3  C   UNL     1      -1.444  -4.298  -1.149  0.00  0.00    +0.006 A 
ATOM      4  C   UNL     1      -1.908  -4.688  -2.408  0.00  0.00    +0.001 A 
ATOM      5  C   UNL     1      -2.357  -3.788  -3.331  0.00  0.00    +0.008 A 
ATOM      6  C   UNL     1      -2.350  -2.422  -3.004  0.00  0.00    -0.017 A 
ATOM      7  C   UNL     1      -1.878  -2.054  -1.732  0.00  0.00    -0.008 A 
ATOM      8  C   UNL     1      -1.827  -0.731  -1.303  0.00  0.00    -0.017 A 
ATOM      9  C   UNL     1      -2.255   0.235  -2.161  0.00  0.00    +0.006 A 
ATOM     10  C   UNL     1      -2.728  -0.107  -3.430  0.00  0.00    +0.001 A 
ATOM     11  C   UNL     1      -2.784  -1.400  -3.864  0.00  0.00    +0.008 A 
ATOM     12  C   UNL     1      -1.270  -0.733   0.100  0.00  0.00    +0.124 C 
ENDROOT
BRANCH   1  13
ATOM     13  N   UNL     1       0.420  -2.431   0.700  0.00  0.00    -0.180 NA
ATOM     14  H   UNL     1       1.036  -2.570  -0.035  0.00  0.00    +0.149 HD
BRANCH  13  15
ATOM     15  S   UNL     1       0.976  -2.436   2.260  0.00  0.00    +0.059 S 
ATOM     16  O   UNL     1       2.373  -2.690   2.192  0.00  0.00    -0.153 OA
ATOM     17  O   UNL     1       0.443  -1.276   2.885  0.00  0.00    -0.153 OA
BRANCH  15  21
ATOM     18  C   UNL     1      -0.888  -5.999   4.337  0.00  0.00    +0.000 A 
ATOM     19  C   UNL     1       0.324  -6.135   3.686  0.00  0.00    +0.002 A 
ATOM     20  C   UNL     1       0.893  -5.046   3.052  0.00  0.00    +0.028 A 
ATOM     21  C   UNL     1       0.250  -3.823   3.068  0.00  0.00    +0.105 A 
ATOM     22  C   UNL     1      -0.959  -3.686   3.723  0.00  0.00    +0.028 A 
ATOM     23  C   UNL     1      -1.531  -4.776   4.354  0.00  0.00    +0.002 A 
ENDBRANCH  15  21
ENDBRANCH  13  15
ENDBRANCH   1  13
BRANCH  12  24
ATOM     24  N   UNL     1      -0.021   0.030   0.151  0.00  0.00    -0.335 N 
ATOM     25  H   UNL     1       0.828  -0.420   0.018  0.00  0.00    +0.147 HD
BRANCH  24  26
ATOM     26  C   UNL     1      -0.052   1.408   0.393  0.00  0.00    +0.028 A 
ATOM     27  C   UNL     1      -1.268   2.054   0.578  0.00  0.00    +0.026 A 
ATOM     28  C   UNL     1      -1.297   3.413   0.821  0.00  0.00    +0.047 A 
ATOM     29  C   UNL     1      -0.114   4.135   0.870  0.00  0.00    +0.117 A 
ATOM     30  C   UNL     1       1.100   3.492   0.679  0.00  0.00    +0.047 A 
ATOM     31  C   UNL     1       1.132   2.132   0.442  0.00  0.00    +0.026 A 
BRANCH  29  32
ATOM     32  O   UNL     1      -0.145   5.474   1.104  0.00  0.00    -0.507 OA
ATOM     33  H   UNL     1      -0.210   6.012   0.303  0.00  0.00    +0.292 HD
ENDBRANCH  29  32
ENDBRANCH  24  26
ENDBRANCH  12  24
TORSDOF 6
