REMARK  Name = ZINC57531344
REMARK  8 active torsions:
REMARK  status: ('A' for Active; 'I' for Inactive)
REMARK    1  A    between atoms: C_1  and  C_2
REMARK    2  A    between atoms: C_2  and  O_3
REMARK    3  A    between atoms: O_3  and  C_4
REMARK    4  A    between atoms: C_4  and  C_6
REMARK    5  A    between atoms: C_8  and  C_20
REMARK    6  A    between atoms: C_14  and  C_15
REMARK    7  A    between atoms: C_14  and  O_19
REMARK    8  A    between atoms: C_29  and  O_30
REMARK                            x       y       z     vdW  Elec       q    Type
REMARK                         _______ _______ _______ _____ _____    ______ ____
ROOT
ATOM      1  C   UNL     1       1.865  -2.424  -2.272  0.00  0.00    +0.181 C 
ATOM      2  C   UNL     1       1.532  -3.908  -2.461  0.00  0.00    +0.125 C 
ATOM      3  N   UNL     1       2.035  -4.663  -1.312  0.00  0.00    -0.319 N 
ATOM      4  C   UNL     1       3.110  -4.252  -0.624  0.00  0.00    +0.133 C 
ATOM      5  S   UNL     1       3.650  -5.195   0.699  0.00  0.00    -0.019 S 
ATOM      6  N   UNL     1       3.779  -3.130  -0.930  0.00  0.00    -0.291 N 
ATOM      7  C   UNL     1       3.376  -2.283  -2.059  0.00  0.00    +0.244 C 
ATOM      8  H   UNL     1       1.582  -5.478  -1.043  0.00  0.00    +0.148 HD
ATOM      9  H   UNL     1       4.546  -2.873  -0.395  0.00  0.00    +0.151 HD
ENDROOT
BRANCH   2  10
ATOM     10  C   UNL     1       2.183  -4.414  -3.722  0.00  0.00    +0.023 A 
ATOM     11  C   UNL     1       1.636  -4.095  -4.976  0.00  0.00    -0.009 A 
ATOM     12  C   UNL     1       0.479  -3.304  -5.087  0.00  0.00    +0.009 A 
ATOM     13  C   UNL     1      -0.023  -3.014  -6.318  0.00  0.00    +0.001 A 
ATOM     14  C   UNL     1       0.592  -3.490  -7.474  0.00  0.00    +0.001 A 
ATOM     15  C   UNL     1       1.713  -4.259  -7.405  0.00  0.00    +0.008 A 
ATOM     16  C   UNL     1       2.261  -4.579  -6.152  0.00  0.00    -0.017 A 
ATOM     17  C   UNL     1       3.419  -5.370  -6.043  0.00  0.00    +0.012 A 
ATOM     18  C   UNL     1       3.924  -5.661  -4.814  0.00  0.00    +0.046 A 
ATOM     19  C   UNL     1       3.311  -5.181  -3.653  0.00  0.00    +0.122 A 
BRANCH  19  20
ATOM     20  O   UNL     1       3.842  -5.484  -2.440  0.00  0.00    -0.506 OA
ATOM     21  H   UNL     1       3.498  -6.301  -2.053  0.00  0.00    +0.292 HD
ENDBRANCH  19  20
ENDBRANCH   2  10
BRANCH   7  22
ATOM     22  C   UNL     1       3.714  -0.822  -1.756  0.00  0.00    +0.436 C 
ATOM     23  F   UNL     1       3.153  -0.457  -0.528  0.00  0.00    -0.166 F 
ATOM     24  F   UNL     1       5.104  -0.668  -1.698  0.00  0.00    -0.166 F 
ATOM     25  F   UNL     1       3.197  -0.004  -2.767  0.00  0.00    -0.166 F 
ENDBRANCH   7  22
BRANCH   1  26
ATOM     26  C   UNL     1       1.132  -1.890  -1.068  0.00  0.00    +0.317 C 
ATOM     27  O   UNL     1       0.819  -2.637  -0.171  0.00  0.00    -0.250 OA
BRANCH  26  28
ATOM     28  O   UNL     1       0.827  -0.585  -0.993  0.00  0.00    -0.465 OA
BRANCH  28  30
ATOM     29  C   UNL     1      -0.128   1.357   0.084  0.00  0.00    +0.048 C 
ATOM     30  C   UNL     1       0.131  -0.148   0.177  0.00  0.00    +0.229 C 
ENDBRANCH  28  30
ENDBRANCH  26  28
ENDBRANCH   1  26
BRANCH   7  31
ATOM     31  O   UNL     1       4.065  -2.700  -3.239  0.00  0.00    -0.364 OA
ATOM     32  H   UNL     1       5.028  -2.637  -3.175  0.00  0.00    +0.212 HD
ENDBRANCH   7  31
TORSDOF 7
