REMARK  Name = ZINC08915505
REMARK  7 active torsions:
REMARK  status: ('A' for Active; 'I' for Inactive)
REMARK    1  A    between atoms: C_4  and  O_7
REMARK    2  A    between atoms: O_7  and  C_8
REMARK    3  A    between atoms: C_12  and  C_14
REMARK    4  A    between atoms: C_16  and  C_28
REMARK    5  A    between atoms: C_18  and  C_23
REMARK    6  A    between atoms: C_20  and  O_22
REMARK    7  A    between atoms: C_28  and  C_30
REMARK                            x       y       z     vdW  Elec       q    Type
REMARK                         _______ _______ _______ _____ _____    ______ ____
ROOT
ATOM      1  C   UNL     1       6.442  -4.557   0.086  0.00  0.00    +0.120 C 
ATOM      2  C   UNL     1       6.923  -4.880  -1.337  0.00  0.00    +0.150 C 
ATOM      3  C   UNL     1       8.165  -5.769  -1.238  0.00  0.00    +0.284 C 
ATOM      4  N   UNL     1       7.926  -6.883  -0.328  0.00  0.00    -0.306 N 
ATOM      5  C   UNL     1       7.002  -6.890   0.572  0.00  0.00    +0.256 C 
ATOM      6  N   UNL     1       6.140  -5.835   0.749  0.00  0.00    -0.293 N 
ATOM      7  O   UNL     1       9.262  -4.992  -0.754  0.00  0.00    -0.194 OA
ATOM      8  H   UNL     1       5.348  -5.930   1.300  0.00  0.00    +0.151 HD
ATOM      9  H   UNL     1       8.495  -7.665  -0.405  0.00  0.00    +0.167 HD
ENDROOT
BRANCH   1  14
ATOM     10  C   UNL     1       4.156  -1.548   0.101  0.00  0.00    +0.129 A 
ATOM     11  C   UNL     1       2.916  -2.145  -0.083  0.00  0.00    +0.046 A 
ATOM     12  C   UNL     1       2.824  -3.517  -0.212  0.00  0.00    +0.004 A 
ATOM     13  C   UNL     1       3.965  -4.296  -0.157  0.00  0.00    +0.006 A 
ATOM     14  C   UNL     1       5.201  -3.704   0.026  0.00  0.00    -0.023 A 
ATOM     15  C   UNL     1       5.300  -2.332   0.149  0.00  0.00    +0.051 A 
BRANCH  10  16
ATOM     16  O   UNL     1       4.250  -0.199   0.227  0.00  0.00    -0.456 OA
BRANCH  16  20
ATOM     17  C   UNL     1       3.300   1.476   3.876  0.00  0.00    +0.000 A 
ATOM     18  C   UNL     1       3.155   0.114   3.682  0.00  0.00    +0.004 A 
ATOM     19  C   UNL     1       3.472  -0.449   2.461  0.00  0.00    +0.046 A 
ATOM     20  C   UNL     1       3.937   0.353   1.429  0.00  0.00    +0.128 A 
ATOM     21  C   UNL     1       4.082   1.719   1.625  0.00  0.00    +0.046 A 
ATOM     22  C   UNL     1       3.763   2.277   2.848  0.00  0.00    +0.004 A 
ENDBRANCH  16  20
ENDBRANCH  10  16
ENDBRANCH   1  14
BRANCH   3  23
ATOM     23  C   UNL     1       8.507  -6.314  -2.626  0.00  0.00    +0.441 C 
ATOM     24  F   UNL     1       8.635  -5.251  -3.526  0.00  0.00    -0.166 F 
ATOM     25  F   UNL     1       9.712  -7.022  -2.565  0.00  0.00    -0.166 F 
ATOM     26  F   UNL     1       7.486  -7.169  -3.056  0.00  0.00    -0.166 F 
ENDBRANCH   3  23
BRANCH   5  27
ATOM     27  O   UNL     1       6.877  -7.973   1.369  0.00  0.00    -0.483 OA
ATOM     28  H   UNL     1       7.519  -8.673   1.185  0.00  0.00    +0.295 HD
ENDBRANCH   5  27
BRANCH   2  29
ATOM     29  C   UNL     1       5.836  -5.607  -2.087  0.00  0.00    +0.180 C 
ATOM     30  O   UNL     1       5.432  -6.678  -1.683  0.00  0.00    -0.291 OA
BRANCH  29  31
ATOM     31  C   UNL     1       5.288  -5.042  -3.260  0.00  0.00    +0.055 A 
ATOM     32  C   UNL     1       4.228  -5.495  -4.039  0.00  0.00    +0.019 A 
ATOM     33  C   UNL     1       3.922  -4.725  -5.132  0.00  0.00    +0.008 A 
ATOM     34  C   UNL     1       4.651  -3.605  -5.377  0.00  0.00    +0.046 A 
ATOM     35  S   UNL     1       5.770  -3.559  -4.124  0.00  0.00    -0.094 S 
ENDBRANCH  29  31
ENDBRANCH   2  29
TORSDOF 7
