REMARK  Name = ZINC56609568
REMARK  6 active torsions:
REMARK  status: ('A' for Active; 'I' for Inactive)
REMARK    1  A    between atoms: C_1  and  C_2
REMARK    2  A    between atoms: C_2  and  C_3
REMARK    3  A    between atoms: N_5  and  C_6
REMARK    4  A    between atoms: C_10  and  N_12
REMARK    5  A    between atoms: N_15  and  C_16
REMARK    6  A    between atoms: N_25  and  C_27
REMARK                            x       y       z     vdW  Elec       q    Type
REMARK                         _______ _______ _______ _____ _____    ______ ____
ROOT
ATOM      1  N   UNL     1       2.577  -5.343   4.317  0.00  0.00    -0.269 N 
ATOM      2  C   UNL     1       3.079  -5.753   5.499  0.00  0.00    +0.304 C 
ATOM      3  O   UNL     1       3.435  -4.935   6.325  0.00  0.00    -0.253 OA
ATOM      4  N   UNL     1       3.185  -7.070   5.765  0.00  0.00    -0.296 N 
ATOM      5  H   UNL     1       2.355  -5.994   3.632  0.00  0.00    +0.156 HD
ATOM      6  H   UNL     1       2.901  -7.723   5.106  0.00  0.00    +0.151 HD
ENDROOT
BRANCH   4   7
ATOM      7  C   UNL     1       3.730  -7.515   7.047  0.00  0.00    +0.077 C 
ATOM      8  C   UNL     1       2.620  -7.588   8.099  0.00  0.00    -0.007 C 
ATOM      9  C   UNL     1       3.230  -7.942   9.451  0.00  0.00    +0.003 C 
ATOM     10  C   UNL     1       4.035  -9.231   9.413  0.00  0.00    +0.001 C 
ATOM     11  C   UNL     1       4.986  -9.313   8.230  0.00  0.00    +0.003 C 
ATOM     12  C   UNL     1       4.325  -8.918   6.914  0.00  0.00    -0.007 C 
ATOM     13  C   UNL     1       3.248  -9.912   6.506  0.00  0.00    -0.073 C 
ATOM     14  N   UNL     1       2.101  -9.923   7.407  0.00  0.00    +0.382 N 
ATOM     15  C   UNL     1       1.561  -8.595   7.679  0.00  0.00    -0.073 C 
ATOM     16  H   UNL     1       2.337 -10.389   8.269  0.00  0.00    -0.081 HD
BRANCH  14  17
ATOM     17  C   UNL     1       1.040 -10.725   6.782  0.00  0.00    -0.069 C 
ATOM     18  C   UNL     1       0.408 -11.836   7.621  0.00  0.00    -0.017 C 
ATOM     19  C   UNL     1       1.353 -12.190   6.471  0.00  0.00    -0.017 C 
ENDBRANCH  14  17
ENDBRANCH   4   7
BRANCH   1  24
ATOM     20  C   UNL     1       1.099  -2.207   3.079  0.00  0.00    +0.035 A 
ATOM     21  C   UNL     1       1.985  -1.276   3.608  0.00  0.00    +0.023 A 
ATOM     22  C   UNL     1       3.060  -1.697   4.367  0.00  0.00    +0.004 A 
ATOM     23  C   UNL     1       3.258  -3.044   4.603  0.00  0.00    +0.023 A 
ATOM     24  C   UNL     1       2.376  -3.979   4.077  0.00  0.00    +0.037 A 
ATOM     25  C   UNL     1       1.292  -3.559   3.319  0.00  0.00    +0.046 A 
BRANCH  20  28
ATOM     26  C   UNL     1      -1.164  -2.436   2.383  0.00  0.00    +0.217 C 
ATOM     27  O   UNL     1      -1.255  -3.446   3.049  0.00  0.00    -0.275 OA
ATOM     28  N   UNL     1       0.011  -1.780   2.311  0.00  0.00    -0.285 N 
ATOM     29  H   UNL     1       0.102  -1.012   1.725  0.00  0.00    +0.155 HD
BRANCH  26  31
ATOM     30  C   UNL     1      -3.560  -2.838   1.886  0.00  0.00    +0.013 C 
ATOM     31  C   UNL     1      -2.365  -1.916   1.636  0.00  0.00    +0.093 C 
ENDBRANCH  26  31
ENDBRANCH  20  28
ENDBRANCH   1  24
TORSDOF 5
