REMARK  Name = ZINC59844394
REMARK  11 active torsions:
REMARK  status: ('A' for Active; 'I' for Inactive)
REMARK    1  A    between atoms: C_1  and  C_2
REMARK    2  A    between atoms: C_2  and  C_32
REMARK    3  A    between atoms: C_4  and  N_10
REMARK    4  A    between atoms: C_6  and  C_8
REMARK    5  A    between atoms: C_6  and  C_9
REMARK    6  A    between atoms: C_11  and  C_13
REMARK    7  A    between atoms: C_13  and  S_14
REMARK    8  A    between atoms: S_14  and  C_15
REMARK    9  A    between atoms: N_20  and  N_21
REMARK   10  A    between atoms: C_22  and  C_23
REMARK   11  A    between atoms: C_28  and  N_29
REMARK                            x       y       z     vdW  Elec       q    Type
REMARK                         _______ _______ _______ _____ _____    ______ ____
ROOT
ATOM      1  C   UNL     1       6.470  -0.876  -6.245  0.00  0.00    +0.211 A 
ATOM      2  N   UNL     1       7.557  -0.540  -6.947  0.00  0.00    -0.186 NA
ATOM      3  C   UNL     1       7.610  -1.254  -8.051  0.00  0.00    +0.232 A 
ATOM      4  N   UNL     1       6.537  -2.072  -8.070  0.00  0.00    -0.245 N 
ATOM      5  N   UNL     1       5.819  -1.814  -6.892  0.00  0.00    -0.144 NA
ATOM      6  N   UNL     1       8.593  -1.180  -9.021  0.00  0.00    -0.205 N 
ATOM      7  H   UNL     1       8.545  -1.750  -9.805  0.00  0.00    +0.177 HD
ATOM      8  H   UNL     1       6.308  -2.715  -8.761  0.00  0.00    +0.192 HD
ENDROOT
BRANCH   6   9
ATOM      9  N   UNL     1       9.658  -0.281  -8.873  0.00  0.00    -0.187 NA
ATOM     10  C   UNL     1      10.580  -0.212  -9.784  0.00  0.00    +0.140 C 
BRANCH  10  11
ATOM     11  C   UNL     1      11.700   0.734  -9.627  0.00  0.00    +0.025 A 
ATOM     12  C   UNL     1      11.710   1.641  -8.564  0.00  0.00    +0.012 A 
ATOM     13  C   UNL     1      12.761   2.523  -8.424  0.00  0.00    +0.001 A 
ATOM     14  C   UNL     1      13.805   2.510  -9.333  0.00  0.00    +0.002 A 
ATOM     15  C   UNL     1      13.802   1.615 -10.388  0.00  0.00    +0.033 A 
ATOM     16  C   UNL     1      12.760   0.724 -10.537  0.00  0.00    +0.135 A 
BRANCH  16  17
ATOM     17  N   UNL     1      12.761  -0.238 -11.663  0.00  0.00    +0.057 N 
ATOM     18  O   UNL     1      13.727  -0.321 -12.386  0.00  0.00    -0.126 OA
ATOM     19  O   UNL     1      11.797  -0.940 -11.860  0.00  0.00    -0.126 OA
ENDBRANCH  16  17
ENDBRANCH  10  11
ENDBRANCH   6   9
BRANCH   1  20
ATOM     20  S   UNL     1       5.993  -0.178  -4.699  0.00  0.00    -0.075 S 
BRANCH  20  21
ATOM     21  C   UNL     1       4.460  -1.052  -4.278  0.00  0.00    +0.173 C 
BRANCH  21  23
ATOM     22  N   UNL     1       2.801  -1.051  -2.442  0.00  0.00    -0.312 N 
ATOM     23  C   UNL     1       3.938  -0.543  -2.959  0.00  0.00    +0.224 C 
ATOM     24  O   UNL     1       4.541   0.324  -2.362  0.00  0.00    -0.275 OA
ATOM     25  H   UNL     1       2.319  -1.744  -2.920  0.00  0.00    +0.149 HD
BRANCH  22  29
ATOM     26  C   UNL     1       0.188   1.226   0.275  0.00  0.00    -0.010 C 
ATOM     27  C   UNL     1       0.232  -0.306   0.249  0.00  0.00    -0.072 C 
ATOM     28  C   UNL     1       0.783  -0.783  -1.091  0.00  0.00    +0.009 C 
ATOM     29  C   UNL     1       2.293  -0.555  -1.157  0.00  0.00    +0.070 C 
ATOM     30  C   UNL     1       2.944  -1.343  -0.020  0.00  0.00    +0.009 C 
ATOM     31  C   UNL     1       2.409  -0.871   1.328  0.00  0.00    -0.072 C 
ATOM     32  N   UNL     1       0.959  -0.833   1.390  0.00  0.00    +0.386 N 
ATOM     33  C   UNL     1       3.018   0.491   1.678  0.00  0.00    -0.010 C 
ATOM     34  C   UNL     1       2.900  -1.875   2.397  0.00  0.00    -0.010 C 
ATOM     35  C   UNL     1      -1.229  -0.803   0.351  0.00  0.00    -0.010 C 
ATOM     36  H   UNL     1       0.687  -0.296   2.220  0.00  0.00    -0.084 HD
ATOM     37  H   UNL     1       0.622  -1.783   1.574  0.00  0.00    -0.084 HD
ENDBRANCH  22  29
ENDBRANCH  21  23
ENDBRANCH  20  21
ENDBRANCH   1  20
TORSDOF 7
