REMARK  Name = ZINC54220886
REMARK  11 active torsions:
REMARK  status: ('A' for Active; 'I' for Inactive)
REMARK    1  A    between atoms: C_1  and  O_2
REMARK    2  A    between atoms: O_2  and  C_3
REMARK    3  A    between atoms: C_8  and  C_9
REMARK    4  A    between atoms: C_9  and  C_14
REMARK    5  A    between atoms: C_14  and  N_15
REMARK    6  A    between atoms: C_16  and  C_18
REMARK    7  A    between atoms: C_18  and  C_20
REMARK    8  A    between atoms: C_18  and  N_24
REMARK    9  A    between atoms: C_20  and  C_21
REMARK   10  A    between atoms: C_21  and  S_22
REMARK   11  A    between atoms: S_22  and  C_23
REMARK                            x       y       z     vdW  Elec       q    Type
REMARK                         _______ _______ _______ _____ _____    ______ ____
ROOT
ATOM      1  N   UNL     1       0.583  -1.183   1.697  0.00  0.00    -0.313 N 
ATOM      2  C   UNL     1       1.219  -0.704   2.784  0.00  0.00    +0.233 C 
ATOM      3  O   UNL     1       1.956  -1.424   3.423  0.00  0.00    -0.274 OA
ATOM      4  H   UNL     1      -0.007  -0.607   1.186  0.00  0.00    +0.149 HD
ENDROOT
BRANCH   1   5
ATOM      5  C   UNL     1       0.781  -2.576   1.288  0.00  0.00    +0.116 C 
BRANCH   5   6
ATOM      6  C   UNL     1      -0.110  -2.885   0.083  0.00  0.00    +0.015 C 
ATOM      7  C   UNL     1      -1.583  -2.602   0.429  0.00  0.00    +0.013 C 
ATOM      8  C   UNL     1      -2.336  -3.939   0.274  0.00  0.00    +0.001 C 
ATOM      9  C   UNL     1      -1.238  -5.017   0.449  0.00  0.00    +0.001 C 
ATOM     10  C   UNL     1      -0.021  -4.385  -0.270  0.00  0.00    +0.013 C 
BRANCH   6  16
ATOM     11  C   UNL     1      -0.422  -2.092  -2.275  0.00  0.00    +0.124 A 
ATOM     12  C   UNL     1      -0.033  -1.318  -3.360  0.00  0.00    +0.046 A 
ATOM     13  C   UNL     1       1.086  -0.514  -3.267  0.00  0.00    +0.004 A 
ATOM     14  C   UNL     1       1.819  -0.479  -2.095  0.00  0.00    +0.001 A 
ATOM     15  C   UNL     1       1.434  -1.249  -1.013  0.00  0.00    +0.008 A 
ATOM     16  C   UNL     1       0.312  -2.051  -1.099  0.00  0.00    +0.002 A 
BRANCH  11  18
ATOM     17  C   UNL     1      -2.230  -2.875  -3.605  0.00  0.00    +0.277 C 
ATOM     18  O   UNL     1      -1.523  -2.883  -2.363  0.00  0.00    -0.495 OA
ENDBRANCH  11  18
ENDBRANCH   6  16
ENDBRANCH   5   6
ENDBRANCH   1   5
BRANCH   2  19
ATOM     19  C   UNL     1       1.015   0.729   3.205  0.00  0.00    +0.161 C 
BRANCH  19  20
ATOM     20  N   UNL     1       2.122   1.146   4.069  0.00  0.00    -0.288 N 
ATOM     21  C   UNL     1       2.355   0.496   5.227  0.00  0.00    +0.298 C 
ATOM     22  O   UNL     1       1.647  -0.436   5.554  0.00  0.00    -0.253 OA
ATOM     23  N   UNL     1       3.373   0.880   6.022  0.00  0.00    -0.313 N 
ATOM     24  H   UNL     1       2.687   1.890   3.808  0.00  0.00    +0.151 HD
ATOM     25  H   UNL     1       3.938   1.624   5.761  0.00  0.00    +0.146 HD
ATOM     26  H   UNL     1       3.541   0.413   6.855  0.00  0.00    +0.146 HD
ENDBRANCH  19  20
BRANCH  19  27
ATOM     27  C   UNL     1      -0.304   0.853   3.970  0.00  0.00    +0.042 C 
BRANCH  27  28
ATOM     28  C   UNL     1      -0.573   2.325   4.290  0.00  0.00    +0.071 C 
BRANCH  28  29
ATOM     29  S   UNL     1      -2.136   2.471   5.197  0.00  0.00    -0.164 S 
ATOM     30  C   UNL     1      -2.306   4.253   5.495  0.00  0.00    +0.084 C 
ENDBRANCH  28  29
ENDBRANCH  27  28
ENDBRANCH  19  27
ENDBRANCH   2  19
TORSDOF 9
