REMARK  Name = ZINC43618819
REMARK  4 active torsions:
REMARK  status: ('A' for Active; 'I' for Inactive)
REMARK    1  A    between atoms: C_1  and  C_2
REMARK    2  A    between atoms: C_8  and  C_23
REMARK    3  A    between atoms: C_9  and  O_22
REMARK    4  A    between atoms: C_15  and  O_21
REMARK                            x       y       z     vdW  Elec       q    Type
REMARK                         _______ _______ _______ _____ _____    ______ ____
ROOT
ATOM      1  C   UNL     1      -0.019   1.526   0.010  0.00  0.00    +0.019 C 
ATOM      2  C   UNL     1       0.002  -0.004   0.002  0.00  0.00    +0.101 C 
ATOM      3  C   UNL     1       0.661  -0.536  -1.307  0.00  0.00    +0.046 C 
ATOM      4  C   UNL     1       1.573   0.582  -1.817  0.00  0.00    +0.009 C 
ATOM      5  C   UNL     1       2.597   0.035  -2.808  0.00  0.00    +0.013 C 
ATOM      6  C   UNL     1       3.487  -0.982  -2.085  0.00  0.00    +0.030 C 
ATOM      7  C   UNL     1       4.551  -1.496  -3.057  0.00  0.00    +0.124 C 
ATOM      8  C   UNL     1       3.879  -2.053  -4.313  0.00  0.00    +0.036 C 
ATOM      9  C   UNL     1       3.019  -3.264  -3.936  0.00  0.00    +0.036 C 
ATOM     10  C   UNL     1       2.055  -2.849  -2.846  0.00  0.00    -0.041 C 
ATOM     11  C   UNL     1       0.772  -3.089  -2.956  0.00  0.00    +0.010 C 
ATOM     12  C   UNL     1       2.611  -2.149  -1.627  0.00  0.00    +0.131 C 
ATOM     13  C   UNL     1       1.479  -1.706  -0.725  0.00  0.00    +0.216 C 
ATOM     14  O   UNL     1       1.934  -1.207   0.538  0.00  0.00    -0.458 OA
ATOM     15  C   UNL     1       0.904  -0.531   1.103  0.00  0.00    +0.311 C 
ATOM     16  O   UNL     1       0.731  -0.372   2.289  0.00  0.00    -0.251 OA
ATOM     17  C   UNL     1       4.144  -0.322  -0.871  0.00  0.00    +0.017 C 
ENDROOT
BRANCH  12  18
ATOM     18  O   UNL     1       3.422  -3.072  -0.897  0.00  0.00    -0.380 OA
ATOM     19  H   UNL     1       2.941  -3.845  -0.570  0.00  0.00    +0.211 HD
ENDBRANCH  12  18
BRANCH   7  20
ATOM     20  O   UNL     1       5.310  -2.530  -2.426  0.00  0.00    -0.391 OA
ATOM     21  H   UNL     1       6.006  -2.904  -2.985  0.00  0.00    +0.210 HD
ENDBRANCH   7  20
TORSDOF 2
