REMARK  Name = ZINC01146678
REMARK  10 active torsions:
REMARK  status: ('A' for Active; 'I' for Inactive)
REMARK    1  A    between atoms: C_1  and  C_2
REMARK    2  A    between atoms: C_5  and  C_30
REMARK    3  A    between atoms: C_6  and  N_8
REMARK    4  A    between atoms: C_9  and  C_11
REMARK    5  A    between atoms: C_12  and  C_29
REMARK    6  A    between atoms: C_17  and  C_19
REMARK    7  A    between atoms: C_21  and  O_27
REMARK    8  A    between atoms: C_24  and  O_25
REMARK    9  A    between atoms: O_25  and  C_26
REMARK   10  A    between atoms: O_27  and  C_28
REMARK                            x       y       z     vdW  Elec       q    Type
REMARK                         _______ _______ _______ _____ _____    ______ ____
ROOT
ATOM      1  C   UNL     1       2.950   1.833   0.228  0.00  0.00    +0.056 C 
ATOM      2  C   UNL     1       4.060   2.529   0.550  0.00  0.00    +0.017 C 
ATOM      3  N   UNL     1       5.302   2.072   0.211  0.00  0.00    -0.300 N 
ATOM      4  C   UNL     1       5.516   0.933  -0.459  0.00  0.00    +0.135 C 
ATOM      5  S   UNL     1       7.125   0.479  -0.827  0.00  0.00    -0.019 S 
ATOM      6  N   UNL     1       4.506   0.132  -0.854  0.00  0.00    -0.315 N 
ATOM      7  C   UNL     1       3.127   0.534  -0.532  0.00  0.00    +0.143 C 
ATOM      8  C   UNL     1       3.929   3.830   1.300  0.00  0.00    +0.061 C 
ATOM      9  H   UNL     1       6.071   2.604   0.468  0.00  0.00    +0.154 HD
ATOM     10  H   UNL     1       4.684  -0.689  -1.339  0.00  0.00    +0.149 HD
ENDROOT
BRANCH   7  11
ATOM     11  C   UNL     1       2.500  -0.569   0.281  0.00  0.00    +0.022 A 
ATOM     12  C   UNL     1       3.252  -1.251   1.218  0.00  0.00    +0.055 A 
ATOM     13  C   UNL     1       2.675  -2.266   1.966  0.00  0.00    +0.121 A 
ATOM     14  C   UNL     1       1.342  -2.596   1.774  0.00  0.00    +0.049 A 
ATOM     15  C   UNL     1       0.589  -1.915   0.838  0.00  0.00    +0.049 A 
ATOM     16  C   UNL     1       1.165  -0.896   0.093  0.00  0.00    +0.126 A 
BRANCH  16  17
ATOM     17  O   UNL     1       0.423  -0.222  -0.825  0.00  0.00    -0.495 OA
ATOM     18  C   UNL     1      -0.964  -0.557  -0.910  0.00  0.00    +0.277 C 
ENDBRANCH  16  17
BRANCH  13  19
ATOM     19  O   UNL     1       3.416  -2.937   2.888  0.00  0.00    -0.495 OA
ATOM     20  C   UNL     1       2.757  -3.970   3.622  0.00  0.00    +0.277 C 
ENDBRANCH  13  19
ENDBRANCH   7  11
BRANCH   1  22
ATOM     21  N   UNL     1       1.167   2.049   1.812  0.00  0.00    -0.281 N 
ATOM     22  C   UNL     1       1.662   2.303   0.584  0.00  0.00    +0.248 C 
ATOM     23  O   UNL     1       1.002   2.937  -0.219  0.00  0.00    -0.270 OA
ATOM     24  H   UNL     1       1.678   1.514   2.439  0.00  0.00    +0.155 HD
BRANCH  21  30
ATOM     25  C   UNL     1      -3.313   3.605   0.518  0.00  0.00    +0.044 C 
ATOM     26  C   UNL     1      -2.276   3.316   1.573  0.00  0.00    -0.049 A 
ATOM     27  C   UNL     1      -2.562   3.547   2.906  0.00  0.00    +0.004 A 
ATOM     28  C   UNL     1      -1.613   3.283   3.876  0.00  0.00    +0.005 A 
ATOM     29  C   UNL     1      -0.378   2.781   3.517  0.00  0.00    -0.029 A 
ATOM     30  C   UNL     1      -0.085   2.552   2.179  0.00  0.00    +0.037 A 
ATOM     31  C   UNL     1      -1.040   2.819   1.207  0.00  0.00    +0.027 A 
ATOM     32  C   UNL     1       0.653   2.487   4.576  0.00  0.00    +0.045 C 
ENDBRANCH  21  30
ENDBRANCH   1  22
TORSDOF 5
