REMARK  Name = ZINC39408511
REMARK  4 active torsions:
REMARK  status: ('A' for Active; 'I' for Inactive)
REMARK    1  A    between atoms: N_9  and  C_14
REMARK    2  A    between atoms: C_14  and  C_15
REMARK    3  A    between atoms: C_15  and  S_16
REMARK    4  A    between atoms: S_16  and  C_17
REMARK                            x       y       z     vdW  Elec       q    Type
REMARK                         _______ _______ _______ _____ _____    ______ ____
ROOT
ATOM      1  C   UNL     1      -0.017   1.375   0.010  0.00  0.00    +0.001 A 
ATOM      2  C   UNL     1       1.169   2.093   0.002  0.00  0.00    +0.002 A 
ATOM      3  C   UNL     1       2.386   1.442  -0.013  0.00  0.00    +0.026 A 
ATOM      4  C   UNL     1       2.425   0.056  -0.021  0.00  0.00    +0.056 A 
ATOM      5  C   UNL     1       1.223  -0.673  -0.013  0.00  0.00    +0.063 A 
ATOM      6  C   UNL     1       0.002  -0.004   0.002  0.00  0.00    +0.015 A 
ATOM      7  C   UNL     1       1.301  -2.145  -0.021  0.00  0.00    +0.264 A 
ATOM      8  O   UNL     1       0.291  -2.823  -0.016  0.00  0.00    -0.267 OA
ATOM      9  N   UNL     1       2.522  -2.722  -0.036  0.00  0.00    -0.260 N 
ATOM     10  C   UNL     1       3.642  -1.982  -0.043  0.00  0.00    +0.330 A 
ATOM     11  O   UNL     1       4.716  -2.551  -0.056  0.00  0.00    -0.246 OA
ATOM     12  N   UNL     1       3.627  -0.638  -0.036  0.00  0.00    -0.307 N 
ATOM     13  H   UNL     1       4.464  -0.148  -0.041  0.00  0.00    +0.170 HD
ENDROOT
BRANCH   9  14
ATOM     14  C   UNL     1       2.627  -4.183  -0.044  0.00  0.00    +0.141 C 
BRANCH  14  15
ATOM     15  C   UNL     1       2.650  -4.685  -1.489  0.00  0.00    +0.096 C 
BRANCH  15  16
ATOM     16  S   UNL     1       2.779  -6.494  -1.498  0.00  0.00    -0.096 S 
BRANCH  16  17
ATOM     17  C   UNL     1       2.794  -6.924  -3.261  0.00  0.00    +0.322 C 
ATOM     18  N   UNL     1       1.568  -6.440  -3.910  0.00  0.00    -0.298 N 
ATOM     19  C   UNL     1       1.978  -5.536  -4.899  0.00  0.00    +0.073 A 
ATOM     20  C   UNL     1       1.245  -4.785  -5.809  0.00  0.00    +0.027 A 
ATOM     21  C   UNL     1       1.893  -3.950  -6.699  0.00  0.00    +0.002 A 
ATOM     22  C   UNL     1       3.272  -3.862  -6.685  0.00  0.00    +0.004 A 
ATOM     23  C   UNL     1       4.008  -4.606  -5.782  0.00  0.00    +0.047 A 
ATOM     24  C   UNL     1       3.366  -5.448  -4.883  0.00  0.00    +0.145 A 
ATOM     25  O   UNL     1       3.877  -6.263  -3.920  0.00  0.00    -0.460 OA
ATOM     26  H   UNL     1       0.656  -6.696  -3.696  0.00  0.00    +0.150 HD
ENDBRANCH  16  17
ENDBRANCH  15  16
ENDBRANCH  14  15
ENDBRANCH   9  14
TORSDOF 4
