REMARK  Name = ZINC09793850
REMARK  7 active torsions:
REMARK  status: ('A' for Active; 'I' for Inactive)
REMARK    1  A    between atoms: C_1  and  C_2
REMARK    2  A    between atoms: C_5  and  C_8
REMARK    3  A    between atoms: C_8  and  N_9
REMARK    4  A    between atoms: N_9  and  C_10
REMARK    5  A    between atoms: N_13  and  N_14
REMARK    6  A    between atoms: C_15  and  C_17
REMARK    7  A    between atoms: C_24  and  C_27
REMARK                            x       y       z     vdW  Elec       q    Type
REMARK                         _______ _______ _______ _____ _____    ______ ____
ROOT
ATOM      1  N   UNL     1       6.489   8.508  -1.413  0.00  0.00    -0.283 N 
ATOM      2  C   UNL     1       7.862   8.009  -1.298  0.00  0.00    +0.134 C 
ATOM      3  C   UNL     1       5.450   7.680  -1.190  0.00  0.00    +0.319 C 
ATOM      4  O   UNL     1       4.312   8.069  -1.373  0.00  0.00    -0.251 OA
ATOM      5  N   UNL     1       5.671   6.420  -0.765  0.00  0.00    -0.218 N 
ATOM      6  H   UNL     1       6.572   6.132  -0.550  0.00  0.00    +0.174 HD
ENDROOT
BRANCH   5   7
ATOM      7  N   UNL     1       4.599   5.527  -0.635  0.00  0.00    -0.229 N 
ATOM      8  C   UNL     1       4.831   4.240  -0.308  0.00  0.00    +0.267 C 
ATOM      9  O   UNL     1       5.971   3.854  -0.126  0.00  0.00    -0.268 OA
ATOM     10  H   UNL     1       3.691   5.835  -0.780  0.00  0.00    +0.173 HD
BRANCH   8  11
ATOM     11  C   UNL     1       3.710   3.305  -0.172  0.00  0.00    +0.076 A 
ATOM     12  C   UNL     1       3.730   1.961   0.153  0.00  0.00    +0.024 A 
ATOM     13  C   UNL     1       2.522   1.287   0.220  0.00  0.00    -0.036 A 
ATOM     14  C   UNL     1       1.396   2.014  -0.043  0.00  0.00    -0.006 A 
ATOM     15  S   UNL     1       1.963   3.605  -0.380  0.00  0.00    -0.088 S 
ATOM     16  C   UNL     1      -0.019   1.522  -0.037  0.00  0.00    +0.043 C 
ATOM     17  C   UNL     1       0.003  -0.014  -0.054  0.00  0.00    +0.009 C 
ATOM     18  C   UNL     1       0.991  -0.504   1.008  0.00  0.00    -0.009 C 
ATOM     19  C   UNL     1       2.423  -0.196   0.570  0.00  0.00    +0.039 C 
ATOM     20  C   UNL     1       0.830  -2.014   1.193  0.00  0.00    +0.008 C 
ENDBRANCH   8  11
ENDBRANCH   5   7
BRANCH   1  21
ATOM     21  C   UNL     1       6.247   9.909  -1.769  0.00  0.00    +0.144 C 
BRANCH  21  26
ATOM     22  C   UNL     1       5.979  13.103   3.039  0.00  0.00    +0.044 C 
ATOM     23  C   UNL     1       6.048  12.270   1.785  0.00  0.00    -0.050 A 
ATOM     24  C   UNL     1       7.261  12.076   1.150  0.00  0.00    +0.003 A 
ATOM     25  C   UNL     1       7.326  11.312   0.000  0.00  0.00    +0.005 A 
ATOM     26  C   UNL     1       6.177  10.741  -0.515  0.00  0.00    -0.030 A 
ATOM     27  C   UNL     1       4.963  10.939   0.116  0.00  0.00    +0.005 A 
ATOM     28  C   UNL     1       4.900  11.699   1.269  0.00  0.00    +0.003 A 
ENDBRANCH  21  26
ENDBRANCH   1  21
TORSDOF 4
