REMARK  Name = ZINC39359536
REMARK  3 active torsions:
REMARK  status: ('A' for Active; 'I' for Inactive)
REMARK    1  A    between atoms: C_6  and  C_7
REMARK    2  A    between atoms: C_19  and  N_23
REMARK    3  A    between atoms: C_20  and  C_21
REMARK                            x       y       z     vdW  Elec       q    Type
REMARK                         _______ _______ _______ _____ _____    ______ ____
ROOT
ATOM      1  C   UNL     1      -1.293  -0.775   0.010  0.00  0.00    +0.082 C 
ATOM      2  C   UNL     1      -1.351  -1.655   1.261  0.00  0.00    +0.155 C 
ATOM      3  C   UNL     1      -0.397  -2.809   0.991  0.00  0.00    +0.137 C 
ATOM      4  N   UNL     1       0.600  -2.998   1.807  0.00  0.00    -0.204 NA
ATOM      5  C   UNL     1       0.819  -2.189   2.849  0.00  0.00    +0.206 C 
ATOM      6  N   UNL     1       0.086  -1.133   3.154  0.00  0.00    -0.147 NA
ATOM      7  C   UNL     1      -0.999  -0.775   2.447  0.00  0.00    +0.250 C 
ATOM      8  O   UNL     1      -1.663   0.202   2.733  0.00  0.00    -0.273 OA
ATOM      9  N   UNL     1       1.882  -2.477   3.660  0.00  0.00    -0.329 N 
ATOM     10  N   UNL     1      -0.627  -3.573  -0.110  0.00  0.00    -0.185 NA
ATOM     11  C   UNL     1      -1.053  -2.921  -1.252  0.00  0.00    +0.106 C 
ATOM     12  C   UNL     1      -1.373  -1.626  -1.225  0.00  0.00    +0.073 C 
ATOM     13  H   UNL     1       2.444  -3.244   3.470  0.00  0.00    +0.145 HD
ATOM     14  H   UNL     1       2.074  -1.914   4.427  0.00  0.00    +0.145 HD
ENDROOT
BRANCH   1  20
ATOM     15  C   UNL     1      -0.017   1.378   0.010  0.00  0.00    +0.007 A 
ATOM     16  C   UNL     1       1.170   2.086   0.002  0.00  0.00    +0.038 A 
ATOM     17  C   UNL     1       2.379   1.410  -0.013  0.00  0.00    +0.123 A 
ATOM     18  C   UNL     1       2.396   0.026  -0.021  0.00  0.00    +0.038 A 
ATOM     19  C   UNL     1       1.208  -0.680  -0.013  0.00  0.00    +0.007 A 
ATOM     20  C   UNL     1       0.002  -0.004   0.002  0.00  0.00    -0.038 A 
ATOM     21  F   UNL     1       3.540   2.101  -0.021  0.00  0.00    -0.205 F 
ENDBRANCH   1  20
BRANCH  11  22
ATOM     22  N   UNL     1      -1.149  -3.630  -2.453  0.00  0.00    -0.403 NA
ATOM     23  H   UNL     1      -0.872  -4.588  -2.300  0.00  0.00    +0.122 HD
ATOM     24  H   UNL     1      -2.102  -3.604  -2.784  0.00  0.00    +0.122 HD
ATOM     25  H   UNL     1      -0.542  -3.210  -3.141  0.00  0.00    +0.122 HD
ENDBRANCH  11  22
BRANCH  12  26
ATOM     26  C   UNL     1      -1.818  -1.016  -2.443  0.00  0.00    +0.099 C 
ATOM     27  N   UNL     1      -2.170  -0.532  -3.408  0.00  0.00    -0.191 NA
ENDBRANCH  12  26
TORSDOF 3
