REMARK  Name = ZINC09809015
REMARK  18 active torsions:
REMARK  status: ('A' for Active; 'I' for Inactive)
REMARK    1  A    between atoms: C_1  and  C_2
REMARK    2  A    between atoms: C_2  and  C_3
REMARK    3  A    between atoms: C_2  and  C_4
REMARK    4  A    between atoms: C_2  and  C_5
REMARK    5  A    between atoms: C_7  and  C_16
REMARK    6  A    between atoms: C_9  and  C_12
REMARK    7  A    between atoms: C_10  and  O_11
REMARK    8  A    between atoms: C_12  and  C_13
REMARK    9  A    between atoms: C_12  and  C_14
REMARK   10  A    between atoms: C_12  and  C_15
REMARK   11  A    between atoms: C_16  and  C_17
REMARK   12  A    between atoms: C_17  and  C_18
REMARK   13  A    between atoms: C_18  and  O_20
REMARK   14  A    between atoms: O_20  and  C_21
REMARK   15  A    between atoms: C_21  and  C_22
REMARK   16  A    between atoms: N_24  and  C_25
REMARK   17  A    between atoms: C_29  and  S_31
REMARK   18  A    between atoms: S_31  and  N_34
REMARK                            x       y       z     vdW  Elec       q    Type
REMARK                         _______ _______ _______ _____ _____    ______ ____
ROOT
ATOM      1  C   UNL     1       5.556  -0.942   3.473  0.00  0.00    +0.308 C 
ATOM      2  O   UNL     1       5.428  -2.127   3.274  0.00  0.00    -0.251 OA
ENDROOT
BRANCH   1   3
ATOM      3  C   UNL     1       4.354  -0.104   3.826  0.00  0.00    +0.125 C 
BRANCH   3   4
ATOM      4  C   UNL     1       3.108  -0.991   3.866  0.00  0.00    +0.046 C 
BRANCH   4   7
ATOM      5  C   UNL     1       0.064   1.217   3.538  0.00  0.00    -0.000 A 
ATOM      6  C   UNL     1       1.165   0.448   3.217  0.00  0.00    +0.011 A 
ATOM      7  C   UNL     1       1.906  -0.152   4.218  0.00  0.00    -0.046 A 
ATOM      8  C   UNL     1       1.547   0.016   5.543  0.00  0.00    +0.011 A 
ATOM      9  C   UNL     1       0.447   0.784   5.869  0.00  0.00    -0.000 A 
ATOM     10  C   UNL     1      -0.296   1.392   4.867  0.00  0.00    +0.124 A 
BRANCH   5  12
ATOM     11  C   UNL     1      -0.134   1.527   1.086  0.00  0.00    +0.015 C 
ATOM     12  C   UNL     1      -0.743   1.871   2.446  0.00  0.00    -0.009 C 
ATOM     13  C   UNL     1      -0.730   3.389   2.642  0.00  0.00    +0.015 C 
ATOM     14  C   UNL     1      -2.185   1.363   2.503  0.00  0.00    +0.015 C 
ENDBRANCH   5  12
BRANCH   9  15
ATOM     15  C   UNL     1       0.056   0.968   7.313  0.00  0.00    -0.009 C 
ATOM     16  C   UNL     1       1.035   0.204   8.207  0.00  0.00    +0.015 C 
ATOM     17  C   UNL     1       0.096   2.455   7.668  0.00  0.00    +0.015 C 
ATOM     18  C   UNL     1      -1.360   0.429   7.531  0.00  0.00    +0.015 C 
ENDBRANCH   9  15
BRANCH  10  19
ATOM     19  O   UNL     1      -1.376   2.152   5.185  0.00  0.00    -0.506 OA
ATOM     20  H   UNL     1      -2.206   1.658   5.232  0.00  0.00    +0.292 HD
ENDBRANCH  10  19
ENDBRANCH   4   7
ENDBRANCH   3   4
ENDBRANCH   1   3
BRANCH   1  21
ATOM     21  O   UNL     1       6.768  -0.373   3.380  0.00  0.00    -0.455 OA
BRANCH  21  22
ATOM     22  C   UNL     1       7.880  -1.241   3.036  0.00  0.00    +0.328 C 
BRANCH  22  23
ATOM     23  C   UNL     1       9.149  -0.432   2.978  0.00  0.00    +0.255 C 
ATOM     24  O   UNL     1       9.120   0.760   3.205  0.00  0.00    -0.272 OA
ATOM     25  N   UNL     1      10.318  -1.032   2.675  0.00  0.00    -0.283 N 
ATOM     26  H   UNL     1      10.355  -1.995   2.570  0.00  0.00    +0.155 HD
BRANCH  25  27
ATOM     27  C   UNL     1      11.477  -0.265   2.513  0.00  0.00    +0.035 A 
ATOM     28  C   UNL     1      11.395   1.015   1.980  0.00  0.00    +0.023 A 
ATOM     29  C   UNL     1      12.540   1.772   1.826  0.00  0.00    +0.004 A 
ATOM     30  C   UNL     1      13.769   1.252   2.192  0.00  0.00    +0.028 A 
ATOM     31  C   UNL     1      13.854  -0.024   2.718  0.00  0.00    +0.107 A 
ATOM     32  C   UNL     1      12.711  -0.784   2.879  0.00  0.00    +0.051 A 
BRANCH  31  33
ATOM     33  S   UNL     1      15.421  -0.682   3.182  0.00  0.00    +0.056 S 
ATOM     34  O   UNL     1      16.268   0.430   3.439  0.00  0.00    -0.153 OA
ATOM     35  O   UNL     1      15.168  -1.688   4.153  0.00  0.00    -0.153 OA
BRANCH  33  36
ATOM     36  N   UNL     1      16.041  -1.452   1.854  0.00  0.00    -0.204 NA
ATOM     37  H   UNL     1      15.538  -1.470   1.024  0.00  0.00    +0.144 HD
ATOM     38  H   UNL     1      16.908  -1.885   1.905  0.00  0.00    +0.144 HD
ENDBRANCH  33  36
ENDBRANCH  31  33
ENDBRANCH  25  27
ENDBRANCH  22  23
ENDBRANCH  21  22
ENDBRANCH   1  21
TORSDOF 12
