REMARK  Name = ZINC38600133
REMARK  5 active torsions:
REMARK  status: ('A' for Active; 'I' for Inactive)
REMARK    1  A    between atoms: C_1  and  C_2
REMARK    2  A    between atoms: C_2  and  C_3
REMARK    3  A    between atoms: C_5  and  C_17
REMARK    4  A    between atoms: C_7  and  C_15
REMARK    5  A    between atoms: C_8  and  N_14
REMARK                            x       y       z     vdW  Elec       q    Type
REMARK                         _______ _______ _______ _____ _____    ______ ____
ROOT
ATOM      1  C   UNL     1       0.682  -0.827  -0.912  0.00  0.00    +0.069 C 
ATOM      2  C   UNL     1       1.973  -1.042  -0.982  0.00  0.00    +0.030 C 
ATOM      3  C   UNL     1       3.117  -0.802  -0.035  0.00  0.00    +0.100 C 
ATOM      4  C   UNL     1       4.242  -0.246  -0.888  0.00  0.00    +0.098 C 
ATOM      5  C   UNL     1       4.166  -0.224  -2.235  0.00  0.00    +0.195 C 
ATOM      6  O   UNL     1       3.133  -0.640  -2.989  0.00  0.00    -0.448 OA
ATOM      7  C   UNL     1       2.215  -1.565  -2.398  0.00  0.00    +0.343 C 
ATOM      8  N   UNL     1       0.876  -1.471  -2.990  0.00  0.00    -0.138 NA
ATOM      9  N   UNL     1       0.096  -1.089  -2.108  0.00  0.00    -0.155 NA
ENDROOT
BRANCH   3  10
ATOM     10  C   UNL     1       2.717   0.197   1.021  0.00  0.00    +0.002 A 
ATOM     11  C   UNL     1       2.412   1.498   0.663  0.00  0.00    +0.046 A 
ATOM     12  C   UNL     1       2.046   2.414   1.632  0.00  0.00    +0.020 A 
ATOM     13  C   UNL     1       1.985   2.030   2.959  0.00  0.00    +0.003 A 
ATOM     14  C   UNL     1       2.290   0.731   3.317  0.00  0.00    +0.020 A 
ATOM     15  C   UNL     1       2.651  -0.188   2.348  0.00  0.00    +0.046 A 
ATOM     16 CL   UNL     1       3.026  -1.822   2.797  0.00  0.00    -0.083 Cl
ATOM     17 CL   UNL     1       2.490   1.980  -1.003  0.00  0.00    -0.083 Cl
ENDBRANCH   3  10
BRANCH   5  18
ATOM     18  N   UNL     1       5.255   0.274  -2.905  0.00  0.00    -0.329 N 
ATOM     19  H   UNL     1       6.028   0.588  -2.409  0.00  0.00    +0.145 HD
ATOM     20  H   UNL     1       5.253   0.312  -3.874  0.00  0.00    +0.145 HD
ENDBRANCH   5  18
BRANCH   1  22
ATOM     21  C   UNL     1      -0.530  -1.575   1.117  0.00  0.00    +0.010 C 
ATOM     22  C   UNL     1      -0.048  -0.361   0.321  0.00  0.00    +0.054 C 
ENDBRANCH   1  22
BRANCH   4  23
ATOM     23  C   UNL     1       5.414   0.270  -0.247  0.00  0.00    +0.101 C 
ATOM     24  N   UNL     1       6.344   0.679   0.262  0.00  0.00    -0.191 NA
ENDBRANCH   4  23
TORSDOF 4
