REMARK  Name = ZINC67354218
REMARK  8 active torsions:
REMARK  status: ('A' for Active; 'I' for Inactive)
REMARK    1  A    between atoms: C_1  and  C_2
REMARK    2  A    between atoms: C_2  and  C_4
REMARK    3  A    between atoms: C_2  and  N_12
REMARK    4  A    between atoms: C_4  and  C_5
REMARK    5  A    between atoms: C_8  and  O_11
REMARK    6  A    between atoms: N_15  and  C_16
REMARK    7  A    between atoms: C_19  and  S_23
REMARK    8  A    between atoms: S_23  and  C_26
REMARK                            x       y       z     vdW  Elec       q    Type
REMARK                         _______ _______ _______ _____ _____    ______ ____
ROOT
ATOM      1  N   UNL     1      -1.426  -0.357   0.016  0.00  0.00    -0.296 N 
ATOM      2  C   UNL     1      -2.097  -0.501   1.176  0.00  0.00    +0.304 C 
ATOM      3  O   UNL     1      -1.623  -0.070   2.210  0.00  0.00    -0.253 OA
ATOM      4  N   UNL     1      -3.293  -1.122   1.190  0.00  0.00    -0.269 N 
ATOM      5  H   UNL     1      -1.804  -0.700  -0.809  0.00  0.00    +0.151 HD
ATOM      6  H   UNL     1      -3.707  -1.396   0.357  0.00  0.00    +0.156 HD
ENDROOT
BRANCH   4   7
ATOM      7  C   UNL     1      -3.938  -1.370   2.407  0.00  0.00    +0.040 A 
ATOM      8  C   UNL     1      -5.324  -1.347   2.477  0.00  0.00    +0.063 A 
ATOM      9  C   UNL     1      -5.960  -1.593   3.681  0.00  0.00    +0.153 A 
ATOM     10  C   UNL     1      -5.214  -1.863   4.816  0.00  0.00    +0.158 A 
ATOM     11  C   UNL     1      -3.832  -1.887   4.748  0.00  0.00    +0.153 A 
ATOM     12  C   UNL     1      -3.192  -1.647   3.545  0.00  0.00    +0.063 A 
ATOM     13  F   UNL     1      -3.106  -2.150   5.857  0.00  0.00    -0.203 F 
ATOM     14  F   UNL     1      -7.309  -1.569   3.749  0.00  0.00    -0.203 F 
BRANCH  10  15
ATOM     15  S   UNL     1      -6.026  -2.175   6.348  0.00  0.00    -0.000 S 
ATOM     16  O   UNL     1      -5.081  -1.802   7.342  0.00  0.00    -0.169 OA
ATOM     17  O   UNL     1      -7.272  -1.499   6.243  0.00  0.00    -0.169 OA
ATOM     18  C   UNL     1      -6.290  -3.970   6.378  0.00  0.00    +0.200 C 
ENDBRANCH  10  15
ENDBRANCH   4   7
BRANCH   1  20
ATOM     19  C   UNL     1      -0.338   1.830  -0.104  0.00  0.00    +0.028 C 
ATOM     20  C   UNL     1      -0.126   0.318   0.001  0.00  0.00    +0.076 C 
BRANCH  20  21
ATOM     21  C   UNL     1       0.686  -0.167  -1.202  0.00  0.00    +0.057 C 
BRANCH  21  22
ATOM     22  C   UNL     1       1.000  -1.632  -1.038  0.00  0.00    -0.045 A 
ATOM     23  C   UNL     1       2.155  -2.022  -0.386  0.00  0.00    +0.007 A 
ATOM     24  C   UNL     1       2.444  -3.364  -0.234  0.00  0.00    +0.045 A 
ATOM     25  C   UNL     1       1.575  -4.321  -0.737  0.00  0.00    +0.117 A 
ATOM     26  C   UNL     1       0.416  -3.927  -1.391  0.00  0.00    +0.045 A 
ATOM     27  C   UNL     1       0.129  -2.584  -1.535  0.00  0.00    +0.007 A 
BRANCH  25  28
ATOM     28  O   UNL     1       1.858  -5.642  -0.590  0.00  0.00    -0.507 OA
ATOM     29  H   UNL     1       1.504  -6.032   0.221  0.00  0.00    +0.292 HD
ENDBRANCH  25  28
ENDBRANCH  21  22
ENDBRANCH  20  21
ENDBRANCH   1  20
TORSDOF 6
