REMARK  Name = ZINC37767023
REMARK  10 active torsions:
REMARK  status: ('A' for Active; 'I' for Inactive)
REMARK    1  A    between atoms: C_1  and  C_2
REMARK    2  A    between atoms: C_2  and  C_3
REMARK    3  A    between atoms: C_3  and  C_4
REMARK    4  A    between atoms: C_4  and  C_5
REMARK    5  A    between atoms: C_4  and  C_6
REMARK    6  A    between atoms: C_4  and  N_19
REMARK    7  A    between atoms: N_8  and  C_9
REMARK    8  A    between atoms: C_10  and  C_18
REMARK    9  A    between atoms: C_14  and  O_15
REMARK   10  A    between atoms: O_15  and  C_16
REMARK                            x       y       z     vdW  Elec       q    Type
REMARK                         _______ _______ _______ _____ _____    ______ ____
ROOT
ATOM      1  C   UNL     1       1.917  -3.689  -1.880  0.00  0.00    +0.206 C 
ATOM      2  O   UNL     1       3.062  -4.089  -1.897  0.00  0.00    -0.277 OA
ATOM      3  N   UNL     1       1.170  -3.736  -3.001  0.00  0.00    -0.284 N 
ATOM      4  H   UNL     1       0.234  -3.486  -2.970  0.00  0.00    +0.155 HD
ENDROOT
BRANCH   3   5
ATOM      5  C   UNL     1       1.747  -4.148  -4.210  0.00  0.00    +0.079 A 
ATOM      6  C   UNL     1       1.632  -5.468  -4.622  0.00  0.00    -0.025 A 
ATOM      7  C   UNL     1       2.201  -5.871  -5.815  0.00  0.00    +0.020 A 
ATOM      8  C   UNL     1       2.885  -4.961  -6.601  0.00  0.00    +0.022 A 
ATOM      9  C   UNL     1       3.003  -3.644  -6.197  0.00  0.00    +0.062 A 
ATOM     10  C   UNL     1       2.431  -3.231  -5.005  0.00  0.00    +0.142 A 
ATOM     11 BR   UNL     1       3.661  -5.521  -8.232  0.00  0.00    -0.050 Br
ATOM     12  C   UNL     1       0.888  -6.461  -3.767  0.00  0.00    +0.046 C 
BRANCH  10  13
ATOM     13  O   UNL     1       2.542  -1.935  -4.609  0.00  0.00    -0.493 OA
ATOM     14  C   UNL     1       3.257  -1.051  -5.474  0.00  0.00    +0.277 C 
ENDBRANCH  10  13
ENDBRANCH   3   5
BRANCH   1  15
ATOM     15  C   UNL     1       1.330  -3.140  -0.605  0.00  0.00    +0.005 C 
ATOM     16  C   UNL     1       0.569  -4.248   0.125  0.00  0.00    -0.001 C 
BRANCH  15  17
ATOM     17  N   UNL     1       0.409  -2.041  -0.924  0.00  0.00    +0.387 N 
ATOM     18  H   UNL     1       0.911  -1.310  -1.406  0.00  0.00    -0.089 HD
ATOM     19  H   UNL     1      -0.333  -2.385  -1.516  0.00  0.00    -0.089 HD
ATOM     20  H   UNL     1       0.016  -1.673  -0.071  0.00  0.00    -0.089 HD
ENDBRANCH  15  17
BRANCH  15  21
ATOM     21  C   UNL     1       2.455  -2.618   0.291  0.00  0.00    -0.004 C 
BRANCH  21  23
ATOM     22  C   UNL     1       2.984  -1.539   2.482  0.00  0.00    +0.004 C 
ATOM     23  C   UNL     1       1.859  -2.061   1.585  0.00  0.00    -0.004 C 
ENDBRANCH  21  23
ENDBRANCH  15  21
ENDBRANCH   1  15
TORSDOF 6
