REMARK  Name = ZINC37009160
REMARK  7 active torsions:
REMARK  status: ('A' for Active; 'I' for Inactive)
REMARK    1  A    between atoms: C_1  and  C_2
REMARK    2  A    between atoms: N_4  and  C_5
REMARK    3  A    between atoms: C_8  and  C_11
REMARK    4  A    between atoms: C_21  and  N_27
REMARK    5  A    between atoms: O_23  and  C_24
REMARK    6  A    between atoms: C_24  and  C_26
REMARK    7  A    between atoms: C_31  and  C_33
REMARK                            x       y       z     vdW  Elec       q    Type
REMARK                         _______ _______ _______ _____ _____    ______ ____
ROOT
ATOM      1  C   UNL     1      -1.438  -6.249  -7.591  0.00  0.00    +0.317 C 
ATOM      2  N   UNL     1      -2.419  -6.942  -8.443  0.00  0.00    -0.156 N 
ATOM      3  N   UNL     1      -3.346  -7.512  -7.558  0.00  0.00    -0.105 NA
ATOM      4  C   UNL     1      -2.999  -7.219  -6.298  0.00  0.00    +0.232 C 
ATOM      5  O   UNL     1      -1.886  -6.476  -6.248  0.00  0.00    -0.449 OA
ATOM      6  C   UNL     1      -3.724  -7.641  -5.155  0.00  0.00    +0.081 C 
ATOM      7  C   UNL     1      -3.291  -7.282  -3.870  0.00  0.00    +0.032 C 
ATOM      8  C   UNL     1      -3.999  -7.696  -2.766  0.00  0.00    +0.021 C 
ATOM      9  C   UNL     1      -5.144  -8.470  -2.912  0.00  0.00    +0.051 C 
ATOM     10  C   UNL     1      -5.588  -8.836  -4.162  0.00  0.00    +0.170 C 
ATOM     11  C   UNL     1      -4.892  -8.424  -5.300  0.00  0.00    +0.174 C 
ATOM     12  O   UNL     1      -5.324  -8.772  -6.520  0.00  0.00    -0.423 OA
ATOM     13 BR   UNL     1      -3.411  -7.208  -1.036  0.00  0.00    -0.050 Br
ATOM     14  C   UNL     1      -2.424  -7.013  -9.789  0.00  0.00    +0.233 C 
ATOM     15  O   UNL     1      -1.551  -6.466 -10.428  0.00  0.00    -0.274 OA
ATOM     16  C   UNL     1      -3.515  -7.773 -10.499  0.00  0.00    +0.111 C 
ENDROOT
BRANCH   1  20
ATOM     17  C   UNL     1       2.459  -7.907  -8.159  0.00  0.00    +0.033 A 
ATOM     18  C   UNL     1       2.317  -6.578  -7.783  0.00  0.00    +0.024 A 
ATOM     19  C   UNL     1       1.056  -6.045  -7.601  0.00  0.00    +0.011 A 
ATOM     20  C   UNL     1      -0.064  -6.834  -7.791  0.00  0.00    +0.013 A 
ATOM     21  C   UNL     1       0.075  -8.158  -8.164  0.00  0.00    +0.011 A 
ATOM     22  C   UNL     1       1.333  -8.695  -8.355  0.00  0.00    +0.024 A 
BRANCH  17  26
ATOM     23  C   UNL     1       5.337  -9.880  -9.573  0.00  0.00    +0.109 C 
ATOM     24  C   UNL     1       3.948  -9.354  -9.322  0.00  0.00    +0.214 C 
ATOM     25  O   UNL     1       3.020  -9.743  -9.999  0.00  0.00    -0.276 OA
ATOM     26  N   UNL     1       3.736  -8.450  -8.345  0.00  0.00    -0.286 N 
ATOM     27  H   UNL     1       4.468  -8.176  -7.770  0.00  0.00    +0.155 HD
ENDBRANCH  17  26
ENDBRANCH   1  20
BRANCH  12  28
ATOM     28  C   UNL     1      -6.175  -9.646  -6.514  0.00  0.00    +0.309 C 
ATOM     29  O   UNL     1      -5.845 -10.816  -6.512  0.00  0.00    -0.251 OA
ATOM     30  C   UNL     1      -7.636  -9.275  -6.508  0.00  0.00    +0.136 C 
ENDBRANCH  12  28
BRANCH  10  31
ATOM     31  N   UNL     1      -6.809  -9.662  -4.301  0.00  0.00    +0.060 N 
ATOM     32  O   UNL     1      -6.715 -10.856  -4.468  0.00  0.00    -0.126 OA
ATOM     33  O   UNL     1      -7.899  -9.143  -4.248  0.00  0.00    -0.126 OA
ENDBRANCH  10  31
TORSDOF 4
