REMARK  Name = ZINC09154083
REMARK  6 active torsions:
REMARK  status: ('A' for Active; 'I' for Inactive)
REMARK    1  A    between atoms: C_1  and  C_2
REMARK    2  A    between atoms: C_2  and  C_4
REMARK    3  A    between atoms: C_2  and  N_18
REMARK    4  A    between atoms: N_6  and  C_7
REMARK    5  A    between atoms: C_8  and  C_15
REMARK    6  A    between atoms: N_18  and  C_19
REMARK                            x       y       z     vdW  Elec       q    Type
REMARK                         _______ _______ _______ _____ _____    ______ ____
ROOT
ATOM      1  C   UNL     1       1.147   1.655   0.000  0.00  0.00    +0.238 C 
ATOM      2  O   UNL     1       1.130   2.868   0.007  0.00  0.00    -0.273 OA
ATOM      3  N   UNL     1      -0.011   0.966   0.007  0.00  0.00    -0.278 N 
ATOM      4  H   UNL     1       0.002  -0.004   0.002  0.00  0.00    +0.155 HD
ENDROOT
BRANCH   3   5
ATOM      5  C   UNL     1      -1.221   1.643   0.017  0.00  0.00    +0.084 A 
ATOM      6  C   UNL     1      -2.502   1.116   0.014  0.00  0.00    +0.068 A 
ATOM      7  C   UNL     1      -3.621   2.057   0.030  0.00  0.00    -0.023 A 
ATOM      8  C   UNL     1      -3.274   3.357   0.036  0.00  0.00    -0.004 A 
ATOM      9  S   UNL     1      -1.498   3.351   0.027  0.00  0.00    -0.077 S 
ATOM     10  C   UNL     1      -4.476   4.262   0.050  0.00  0.00    +0.043 C 
ATOM     11  C   UNL     1      -5.644   3.350   0.488  0.00  0.00    +0.010 C 
ATOM     12  C   UNL     1      -5.147   1.963   0.035  0.00  0.00    +0.037 C 
BRANCH   6  13
ATOM     13  C   UNL     1      -2.727  -0.332   0.001  0.00  0.00    +0.244 C 
ATOM     14  O   UNL     1      -2.819  -0.944   1.049  0.00  0.00    -0.270 OA
ATOM     15  N   UNL     1      -2.833  -0.987  -1.172  0.00  0.00    -0.325 N 
ATOM     16  H   UNL     1      -2.760  -0.500  -2.008  0.00  0.00    +0.145 HD
ATOM     17  H   UNL     1      -2.982  -1.946  -1.181  0.00  0.00    +0.145 HD
ENDBRANCH   6  13
ENDBRANCH   3   5
BRANCH   1  19
ATOM     18  C   UNL     1       2.567   0.035   1.227  0.00  0.00    +0.038 C 
ATOM     19  C   UNL     1       2.462   0.920  -0.017  0.00  0.00    +0.154 C 
BRANCH  19  20
ATOM     20  N   UNL     1       3.562   1.887  -0.022  0.00  0.00    -0.333 N 
ATOM     21  H   UNL     1       3.428   2.777   0.339  0.00  0.00    +0.147 HD
BRANCH  20  22
ATOM     22  C   UNL     1       4.806   1.527  -0.547  0.00  0.00    +0.028 A 
ATOM     23  C   UNL     1       5.002   0.251  -1.059  0.00  0.00    +0.024 A 
ATOM     24  C   UNL     1       6.231  -0.100  -1.582  0.00  0.00    +0.017 A 
ATOM     25  C   UNL     1       7.270   0.814  -1.586  0.00  0.00    +0.018 A 
ATOM     26  C   UNL     1       7.079   2.084  -1.072  0.00  0.00    +0.017 A 
ATOM     27  C   UNL     1       5.851   2.443  -0.553  0.00  0.00    +0.024 A 
ATOM     28 BR   UNL     1       8.953   0.327  -2.297  0.00  0.00    -0.050 Br
ENDBRANCH  20  22
ENDBRANCH  19  20
ENDBRANCH   1  19
TORSDOF 5
