REMARK  Name = ZINC00047822
REMARK  2 active torsions:
REMARK  status: ('A' for Active; 'I' for Inactive)
REMARK    1  A    between atoms: C_9  and  O_16
REMARK    2  A    between atoms: C_10  and  O_15
REMARK                            x       y       z     vdW  Elec       q    Type
REMARK                         _______ _______ _______ _____ _____    ______ ____
ROOT
ATOM      1  C   UNL     1       1.178   1.782   0.000  0.00  0.00    +0.001 A 
ATOM      2  C   UNL     1      -0.013   1.076   0.008  0.00  0.00    +0.000 A 
ATOM      3  C   UNL     1      -1.220   1.749   0.017  0.00  0.00    +0.009 A 
ATOM      4  C   UNL     1      -1.250   3.131   0.030  0.00  0.00    +0.018 A 
ATOM      5  C   UNL     1      -0.056   3.851   0.021  0.00  0.00    +0.030 A 
ATOM      6  C   UNL     1       1.165   3.159   0.007  0.00  0.00    +0.012 A 
ATOM      7  C   UNL     1      -0.322   5.299   0.029  0.00  0.00    +0.218 C 
ATOM      8  O   UNL     1       0.516   6.175   0.025  0.00  0.00    -0.287 OA
ATOM      9  C   UNL     1      -1.816   5.505   0.041  0.00  0.00    +0.248 C 
ATOM     10  C   UNL     1      -2.420   4.084   0.046  0.00  0.00    +0.214 C 
ATOM     11  N   UNL     1      -3.108   4.014   1.359  0.00  0.00    -0.291 N 
ATOM     12  C   UNL     1      -2.950   5.176   2.006  0.00  0.00    +0.135 C 
ATOM     13  S   UNL     1      -3.611   5.479   3.556  0.00  0.00    -0.019 S 
ATOM     14  N   UNL     1      -2.229   6.080   1.330  0.00  0.00    -0.289 N 
ATOM     15  H   UNL     1      -3.599   3.247   1.694  0.00  0.00    +0.151 HD
ATOM     16  H   UNL     1      -2.014   6.973   1.641  0.00  0.00    +0.151 HD
ENDROOT
BRANCH  10  17
ATOM     17  O   UNL     1      -3.314   3.877  -1.049  0.00  0.00    -0.364 OA
ATOM     18  H   UNL     1      -3.709   2.995  -1.073  0.00  0.00    +0.213 HD
ENDBRANCH  10  17
BRANCH   9  19
ATOM     19  O   UNL     1      -2.265   6.285  -1.069  0.00  0.00    -0.362 OA
ATOM     20  H   UNL     1      -1.893   7.177  -1.099  0.00  0.00    +0.213 HD
ENDBRANCH   9  19
TORSDOF 2
