REMARK  Name = ZINC10149977
REMARK  13 active torsions:
REMARK  status: ('A' for Active; 'I' for Inactive)
REMARK    1  A    between atoms: C_1  and  C_2
REMARK    2  A    between atoms: C_2  and  C_3
REMARK    3  A    between atoms: C_3  and  C_4
REMARK    4  A    between atoms: C_4  and  O_5
REMARK    5  A    between atoms: O_5  and  C_6
REMARK    6  A    between atoms: C_9  and  C_13
REMARK    7  A    between atoms: N_15  and  C_16
REMARK    8  A    between atoms: C_16  and  N_18
REMARK    9  A    between atoms: N_18  and  C_19
REMARK   10  A    between atoms: C_20  and  C_27
REMARK   11  A    between atoms: C_21  and  C_25
REMARK   12  A    between atoms: C_22  and  C_24
REMARK   13  A    between atoms: C_25  and  C_26
REMARK                            x       y       z     vdW  Elec       q    Type
REMARK                         _______ _______ _______ _____ _____    ______ ____
ROOT
ATOM      1  C   UNL     1      -4.853   3.840   0.069  0.00  0.00    +0.141 C 
ATOM      2  S   UNL     1      -4.873   5.552   0.079  0.00  0.00    -0.018 S 
ENDROOT
BRANCH   1   5
ATOM      3  C   UNL     1      -2.519   3.867   0.047  0.00  0.00    +0.250 C 
ATOM      4  O   UNL     1      -2.533   5.083   0.054  0.00  0.00    -0.270 OA
ATOM      5  N   UNL     1      -3.678   3.180   0.054  0.00  0.00    -0.264 N 
ATOM      6  H   UNL     1      -3.667   2.210   0.049  0.00  0.00    +0.157 HD
BRANCH   3  10
ATOM      7  C   UNL     1       1.182   1.786   0.000  0.00  0.00    +0.134 A 
ATOM      8  C   UNL     1      -0.013   1.076   0.008  0.00  0.00    +0.047 A 
ATOM      9  C   UNL     1      -1.215   1.747   0.017  0.00  0.00    +0.017 A 
ATOM     10  C   UNL     1      -1.233   3.145   0.030  0.00  0.00    +0.038 A 
ATOM     11  C   UNL     1      -0.030   3.856   0.023  0.00  0.00    +0.032 A 
ATOM     12  C   UNL     1       1.169   3.177   0.007  0.00  0.00    +0.060 A 
ATOM     13 BR   UNL     1       2.798   4.137  -0.003  0.00  0.00    -0.046 Br
BRANCH   7  14
ATOM     14  O   UNL     1       2.365   1.121  -0.015  0.00  0.00    -0.491 OA
BRANCH  14  15
ATOM     15  C   UNL     1       2.306  -0.307  -0.022  0.00  0.00    +0.229 C 
BRANCH  15  16
ATOM     16  C   UNL     1       3.726  -0.876  -0.038  0.00  0.00    +0.041 C 
BRANCH  16  18
ATOM     17  C   UNL     1       5.083  -2.974  -0.062  0.00  0.00    +0.004 C 
ATOM     18  C   UNL     1       3.663  -2.405  -0.046  0.00  0.00    -0.000 C 
ENDBRANCH  16  18
ENDBRANCH  15  16
ENDBRANCH  14  15
ENDBRANCH   7  14
ENDBRANCH   3  10
ENDBRANCH   1   5
BRANCH   1  19
ATOM     19  N   UNL     1      -6.013   3.153   0.077  0.00  0.00    -0.291 N 
ATOM     20  H   UNL     1      -6.001   2.183   0.071  0.00  0.00    +0.154 HD
BRANCH  19  21
ATOM     21  C   UNL     1      -7.220   3.831   0.092  0.00  0.00    +0.084 A 
ATOM     22  C   UNL     1      -8.507   3.305   0.102  0.00  0.00    +0.068 A 
ATOM     23  C   UNL     1      -9.596   4.252   0.118  0.00  0.00    -0.024 A 
ATOM     24  C   UNL     1      -9.274   5.558   0.123  0.00  0.00    -0.008 A 
ATOM     25  S   UNL     1      -7.493   5.541   0.112  0.00  0.00    -0.078 S 
ATOM     26  C   UNL     1     -10.197   6.749   0.139  0.00  0.00    +0.052 C 
BRANCH  22  27
ATOM     27  C   UNL     1      -8.746   1.859   0.095  0.00  0.00    +0.244 C 
ATOM     28  O   UNL     1      -8.835   1.252   1.146  0.00  0.00    -0.270 OA
ATOM     29  N   UNL     1      -8.867   1.201  -1.075  0.00  0.00    -0.325 N 
ATOM     30  H   UNL     1      -8.796   1.685  -1.913  0.00  0.00    +0.145 HD
ATOM     31  H   UNL     1      -9.025   0.244  -1.080  0.00  0.00    +0.145 HD
ENDBRANCH  22  27
BRANCH  23  32
ATOM     32  C   UNL     1     -11.033   3.798   0.129  0.00  0.00    +0.033 C 
ATOM     33  C   UNL     1     -11.505   3.635   1.575  0.00  0.00    +0.009 C 
ENDBRANCH  23  32
ENDBRANCH  19  21
ENDBRANCH   1  19
TORSDOF 10
