REMARK  Name = ZINC49067648
REMARK  3 active torsions:
REMARK  status: ('A' for Active; 'I' for Inactive)
REMARK    1  A    between atoms: C_3  and  O_21
REMARK    2  A    between atoms: C_4  and  O_20
REMARK    3  A    between atoms: C_6  and  C_7
REMARK                            x       y       z     vdW  Elec       q    Type
REMARK                         _______ _______ _______ _____ _____    ______ ____
ROOT
ATOM      1  C   UNL     1      -1.294  -0.774   0.010  0.00  0.00    +0.190 C 
ATOM      2  N   UNL     1      -2.320   0.009   0.710  0.00  0.00    -0.322 N 
ATOM      3  C   UNL     1      -2.276   0.070   2.099  0.00  0.00    +0.041 A 
ATOM      4  C   UNL     1      -2.743   1.169   2.799  0.00  0.00    +0.025 A 
ATOM      5  C   UNL     1      -2.674   1.181   4.179  0.00  0.00    +0.022 A 
ATOM      6  C   UNL     1      -2.141   0.101   4.867  0.00  0.00    +0.042 A 
ATOM      7  C   UNL     1      -1.672  -1.003   4.183  0.00  0.00    +0.035 A 
ATOM      8  C   UNL     1      -1.738  -1.028   2.792  0.00  0.00    +0.059 A 
ATOM      9  C   UNL     1      -1.260  -2.185   2.014  0.00  0.00    +0.247 C 
ATOM     10  O   UNL     1      -1.022  -3.242   2.566  0.00  0.00    -0.270 OA
ATOM     11  N   UNL     1      -1.091  -2.056   0.685  0.00  0.00    -0.289 N 
ATOM     12 CL   UNL     1      -2.062   0.138   6.601  0.00  0.00    -0.084 Cl
ATOM     13  H   UNL     1      -3.012   0.474   0.214  0.00  0.00    +0.148 HD
ATOM     14  H   UNL     1      -0.829  -2.831   0.164  0.00  0.00    +0.151 HD
ENDROOT
BRANCH   1  20
ATOM     15  C   UNL     1      -0.017   1.378   0.010  0.00  0.00    +0.011 A 
ATOM     16  C   UNL     1       1.170   2.089   0.002  0.00  0.00    +0.049 A 
ATOM     17  C   UNL     1       2.380   1.415  -0.013  0.00  0.00    +0.158 A 
ATOM     18  C   UNL     1       2.399   0.024  -0.021  0.00  0.00    +0.159 A 
ATOM     19  C   UNL     1       1.207  -0.682  -0.013  0.00  0.00    +0.056 A 
ATOM     20  C   UNL     1       0.002  -0.004   0.002  0.00  0.00    -0.006 A 
BRANCH  18  21
ATOM     21  O   UNL     1       3.585  -0.642  -0.036  0.00  0.00    -0.503 OA
ATOM     22  H   UNL     1       3.937  -0.839   0.843  0.00  0.00    +0.292 HD
ENDBRANCH  18  21
BRANCH  17  23
ATOM     23  O   UNL     1       3.548   2.113  -0.021  0.00  0.00    -0.503 OA
ATOM     24  H   UNL     1       3.894   2.310   0.860  0.00  0.00    +0.292 HD
ENDBRANCH  17  23
ENDBRANCH   1  20
TORSDOF 3
