REMARK  Name = ZINC08835172
REMARK  9 active torsions:
REMARK  status: ('A' for Active; 'I' for Inactive)
REMARK    1  A    between atoms: C_1  and  C_2
REMARK    2  A    between atoms: C_9  and  C_11
REMARK    3  A    between atoms: C_13  and  N_18
REMARK    4  A    between atoms: C_16  and  O_17
REMARK    5  A    between atoms: N_18  and  C_19
REMARK    6  A    between atoms: C_19  and  N_21
REMARK    7  A    between atoms: C_22  and  C_24
REMARK    8  A    between atoms: C_27  and  O_31
REMARK    9  A    between atoms: O_31  and  C_32
REMARK                            x       y       z     vdW  Elec       q    Type
REMARK                         _______ _______ _______ _____ _____    ______ ____
ROOT
ATOM      1  C   UNL     1       9.544   0.922   0.106  0.00  0.00    +0.080 A 
ATOM      2  C   UNL     1       8.373   1.680   0.067  0.00  0.00    +0.040 A 
ATOM      3  C   UNL     1       7.144   1.045  -0.006  0.00  0.00    +0.034 A 
ATOM      4  C   UNL     1       7.076  -0.343  -0.034  0.00  0.00    +0.027 A 
ATOM      5  C   UNL     1       8.232  -1.098  -0.001  0.00  0.00    +0.048 A 
ATOM      6  C   UNL     1       9.468  -0.476   0.072  0.00  0.00    +0.129 A 
ENDROOT
BRANCH   1  15
ATOM      7  C   UNL     1      16.642   2.935   0.489  0.00  0.00    +0.044 C 
ATOM      8  C   UNL     1      15.138   3.002   0.418  0.00  0.00    -0.047 A 
ATOM      9  C   UNL     1      14.503   4.235   0.415  0.00  0.00    +0.005 A 
ATOM     10  C   UNL     1      13.130   4.312   0.351  0.00  0.00    +0.032 A 
ATOM     11  C   UNL     1      12.372   3.140   0.289  0.00  0.00    +0.110 A 
ATOM     12  C   UNL     1      13.019   1.894   0.293  0.00  0.00    +0.156 A 
ATOM     13  C   UNL     1      14.403   1.836   0.358  0.00  0.00    +0.052 A 
ATOM     14  O   UNL     1      12.046   0.958   0.231  0.00  0.00    -0.435 OA
ATOM     15  C   UNL     1      10.858   1.591   0.183  0.00  0.00    +0.232 A 
ATOM     16  N   UNL     1      11.040   2.888   0.220  0.00  0.00    -0.209 NA
ENDBRANCH   1  15
BRANCH   6  17
ATOM     17  O   UNL     1      10.604  -1.221   0.110  0.00  0.00    -0.506 OA
ATOM     18  H   UNL     1      10.890  -1.456   1.004  0.00  0.00    +0.292 HD
ENDBRANCH   6  17
BRANCH   3  19
ATOM     19  N   UNL     1       5.967   1.804  -0.045  0.00  0.00    -0.297 N 
ATOM     20  H   UNL     1       5.871   2.581   0.528  0.00  0.00    +0.154 HD
BRANCH  19  21
ATOM     21  C   UNL     1       4.968   1.454  -0.879  0.00  0.00    +0.141 C 
ATOM     22  S   UNL     1       5.190   0.171  -1.990  0.00  0.00    -0.018 S 
BRANCH  21  23
ATOM     23  N   UNL     1       3.794   2.115  -0.839  0.00  0.00    -0.264 N 
ATOM     24  C   UNL     1       2.794   1.765  -1.673  0.00  0.00    +0.250 C 
ATOM     25  O   UNL     1       2.952   0.854  -2.461  0.00  0.00    -0.270 OA
ATOM     26  H   UNL     1       3.668   2.842  -0.209  0.00  0.00    +0.157 HD
BRANCH  24  27
ATOM     27  C   UNL     1       1.509   2.488  -1.628  0.00  0.00    +0.040 A 
ATOM     28  C   UNL     1       0.472   2.127  -2.492  0.00  0.00    +0.036 A 
ATOM     29  C   UNL     1      -0.725   2.809  -2.451  0.00  0.00    +0.085 A 
ATOM     30  C   UNL     1      -0.905   3.848  -1.545  0.00  0.00    +0.157 A 
ATOM     31  C   UNL     1       0.125   4.210  -0.684  0.00  0.00    +0.085 A 
ATOM     32  C   UNL     1       1.326   3.537  -0.722  0.00  0.00    +0.036 A 
ATOM     33 CL   UNL     1      -0.104   5.512   0.442  0.00  0.00    -0.080 Cl
ATOM     34 CL   UNL     1      -2.012   2.365  -3.529  0.00  0.00    -0.080 Cl
BRANCH  30  35
ATOM     35  O   UNL     1      -2.088   4.513  -1.504  0.00  0.00    -0.492 OA
ATOM     36  C   UNL     1      -2.218   5.657  -2.351  0.00  0.00    +0.277 C 
ENDBRANCH  30  35
ENDBRANCH  24  27
ENDBRANCH  21  23
ENDBRANCH  19  21
ENDBRANCH   3  19
TORSDOF 7
