REMARK  Name = ZINC19930079
REMARK  5 active torsions:
REMARK  status: ('A' for Active; 'I' for Inactive)
REMARK    1  A    between atoms: C_1  and  C_2
REMARK    2  A    between atoms: C_3  and  C_16
REMARK    3  A    between atoms: C_5  and  C_7
REMARK    4  A    between atoms: C_7  and  C_9
REMARK    5  A    between atoms: C_7  and  N_15
REMARK                            x       y       z     vdW  Elec       q    Type
REMARK                         _______ _______ _______ _____ _____    ______ ____
ROOT
ATOM      1  C   UNL     1      -2.530   3.893   0.046  0.00  0.00    +0.138 C 
ENDROOT
BRANCH   1   6
ATOM      2  C   UNL     1      -4.828   2.095  -4.018  0.00  0.00    +0.066 C 
ATOM      3  C   UNL     1      -4.145   3.196  -3.250  0.00  0.00    +0.049 A 
ATOM      4  C   UNL     1      -3.975   4.426  -3.800  0.00  0.00    +0.009 A 
ATOM      5  S   UNL     1      -3.137   5.270  -2.466  0.00  0.00    -0.075 S 
ATOM      6  C   UNL     1      -3.101   3.942  -1.348  0.00  0.00    +0.100 A 
ATOM      7  N   UNL     1      -3.693   2.989  -2.031  0.00  0.00    -0.247 NA
ATOM      8  C   UNL     1      -4.380   4.936  -5.159  0.00  0.00    +0.053 C 
ENDBRANCH   1   6
BRANCH   1   9
ATOM      9  C   UNL     1      -1.231   3.129   0.030  0.00  0.00    -0.021 A 
ATOM     10  C   UNL     1      -1.223   1.742   0.017  0.00  0.00    +0.025 A 
ATOM     11  C   UNL     1      -0.013   1.076   0.008  0.00  0.00    +0.111 A 
ATOM     12  N   UNL     1       1.125   1.743   0.001  0.00  0.00    -0.263 NA
ATOM     13  C   UNL     1       1.155   3.061   0.007  0.00  0.00    +0.111 A 
ATOM     14  C   UNL     1      -0.015   3.796   0.022  0.00  0.00    +0.025 A 
ENDBRANCH   1   9
BRANCH   1  15
ATOM     15  N   UNL     1      -3.482   3.223   0.942  0.00  0.00    -0.318 NA
ATOM     16  H   UNL     1      -3.065   3.187   1.959  0.00  0.00    +0.119 HD
ATOM     17  H   UNL     1      -4.430   3.780   0.953  0.00  0.00    +0.119 HD
ENDBRANCH   1  15
TORSDOF 3
