REMARK  Name = ZINC05734024
REMARK  8 active torsions:
REMARK  status: ('A' for Active; 'I' for Inactive)
REMARK    1  A    between atoms: C_1  and  C_2
REMARK    2  A    between atoms: C_2  and  N_3
REMARK    3  A    between atoms: C_7  and  N_8
REMARK    4  A    between atoms: N_8  and  C_9
REMARK    5  A    between atoms: N_17  and  N_18
REMARK    6  A    between atoms: C_21  and  C_24
REMARK    7  A    between atoms: C_27  and  O_31
REMARK    8  A    between atoms: C_28  and  O_30
REMARK                            x       y       z     vdW  Elec       q    Type
REMARK                         _______ _______ _______ _____ _____    ______ ____
ROOT
ATOM      1  N   UNL     1      -0.012   1.230  -0.749  0.00  0.00    -0.245 N 
ATOM      2  C   UNL     1       1.101   1.936  -0.848  0.00  0.00    +0.260 C 
ATOM      3  O   UNL     1       1.080   3.074  -1.283  0.00  0.00    -0.269 OA
ATOM      4  C   UNL     1       2.326   1.337  -0.435  0.00  0.00    +0.091 C 
ATOM      5  C   UNL     1       3.577   1.856  -0.441  0.00  0.00    +0.092 C 
ATOM      6  S   UNL     1       1.776  -0.279   0.094  0.00  0.00    -0.046 S 
ATOM      7  C   UNL     1       0.036  -0.068  -0.249  0.00  0.00    +0.185 C 
ATOM      8  N   UNL     1      -0.940  -0.914  -0.077  0.00  0.00    -0.157 NA
ENDROOT
BRANCH   8   9
ATOM      9  N   UNL     1      -2.268  -0.479  -0.168  0.00  0.00    -0.213 N 
ATOM     10  C   UNL     1      -3.300  -1.395  -0.107  0.00  0.00    +0.178 A 
ATOM     11  N   UNL     1      -4.605  -1.191  -0.172  0.00  0.00    -0.224 NA
ATOM     12  C   UNL     1      -5.462  -2.199  -0.096  0.00  0.00    +0.080 A 
ATOM     13  C   UNL     1      -4.990  -3.472   0.054  0.00  0.00    +0.077 A 
ATOM     14  S   UNL     1      -3.227  -3.172   0.074  0.00  0.00    -0.059 S 
ATOM     15  H   UNL     1      -2.463   0.465  -0.273  0.00  0.00    +0.177 HD
BRANCH  12  16
ATOM     16  C   UNL     1      -6.922  -1.947  -0.171  0.00  0.00    +0.005 A 
ATOM     17  C   UNL     1      -7.819  -3.011  -0.095  0.00  0.00    +0.014 A 
ATOM     18  C   UNL     1      -9.178  -2.776  -0.159  0.00  0.00    +0.050 A 
ATOM     19  C   UNL     1      -9.653  -1.482  -0.311  0.00  0.00    +0.158 A 
ATOM     20  C   UNL     1      -8.762  -0.416  -0.393  0.00  0.00    +0.159 A 
ATOM     21  C   UNL     1      -7.399  -0.646  -0.323  0.00  0.00    +0.059 A 
BRANCH  20  22
ATOM     22  O   UNL     1      -9.230   0.852  -0.542  0.00  0.00    -0.503 OA
ATOM     23  H   UNL     1      -9.336   1.127  -1.463  0.00  0.00    +0.292 HD
ENDBRANCH  20  22
BRANCH  19  24
ATOM     24  O   UNL     1     -10.992  -1.255  -0.379  0.00  0.00    -0.503 OA
ATOM     25  H   UNL     1     -11.350  -1.281  -1.277  0.00  0.00    +0.292 HD
ENDBRANCH  19  24
ENDBRANCH  12  16
ENDBRANCH   8   9
BRANCH   1  27
ATOM     26  C   UNL     1      -1.983   2.445   0.038  0.00  0.00    +0.025 C 
ATOM     27  C   UNL     1      -1.290   1.809  -1.169  0.00  0.00    +0.112 C 
ENDBRANCH   1  27
BRANCH   5  28
ATOM     28  N   UNL     1       4.635   1.102   0.005  0.00  0.00    -0.319 N 
ATOM     29  H   UNL     1       4.486   0.199   0.325  0.00  0.00    +0.152 HD
BRANCH  28  30
ATOM     30  C   UNL     1       5.925   1.637  -0.001  0.00  0.00    +0.031 A 
ATOM     31  C   UNL     1       6.141   2.929  -0.464  0.00  0.00    +0.023 A 
ATOM     32  C   UNL     1       7.417   3.457  -0.462  0.00  0.00    +0.002 A 
ATOM     33  C   UNL     1       8.481   2.697  -0.013  0.00  0.00    +0.000 A 
ATOM     34  C   UNL     1       8.271   1.408   0.443  0.00  0.00    +0.002 A 
ATOM     35  C   UNL     1       6.996   0.876   0.451  0.00  0.00    +0.023 A 
ENDBRANCH  28  30
ENDBRANCH   5  28
TORSDOF 7
