REMARK  Name = ZINC45661044
REMARK  10 active torsions:
REMARK  status: ('A' for Active; 'I' for Inactive)
REMARK    1  A    between atoms: C_1  and  C_2
REMARK    2  A    between atoms: C_2  and  O_3
REMARK    3  A    between atoms: O_3  and  C_4
REMARK    4  A    between atoms: C_4  and  C_6
REMARK    5  A    between atoms: C_7  and  C_21
REMARK    6  A    between atoms: C_12  and  C_14
REMARK    7  A    between atoms: C_21  and  O_22
REMARK    8  A    between atoms: O_22  and  C_23
REMARK    9  A    between atoms: C_23  and  C_25
REMARK   10  A    between atoms: C_30  and  N_31
REMARK                            x       y       z     vdW  Elec       q    Type
REMARK                         _______ _______ _______ _____ _____    ______ ____
ROOT
ATOM      1  C   UNL     1       1.205  -2.267  -2.486  0.00  0.00    +0.081 C 
ATOM      2  C   UNL     1       1.530  -3.574  -2.592  0.00  0.00    +0.061 C 
ATOM      3  N   UNL     1       2.253  -4.036  -3.654  0.00  0.00    -0.269 N 
ATOM      4  C   UNL     1       2.690  -3.256  -4.651  0.00  0.00    +0.304 C 
ATOM      5  O   UNL     1       3.328  -3.760  -5.555  0.00  0.00    -0.252 OA
ATOM      6  N   UNL     1       2.445  -1.931  -4.685  0.00  0.00    -0.288 N 
ATOM      7  C   UNL     1       1.666  -1.334  -3.587  0.00  0.00    +0.144 C 
ATOM      8  H   UNL     1       2.462  -4.983  -3.688  0.00  0.00    +0.156 HD
ATOM      9  H   UNL     1       2.772  -1.385  -5.417  0.00  0.00    +0.151 HD
ENDROOT
BRANCH   7  10
ATOM     10  C   UNL     1       2.510  -0.255  -2.959  0.00  0.00    -0.022 A 
ATOM     11  C   UNL     1       3.833  -0.506  -2.647  0.00  0.00    +0.007 A 
ATOM     12  C   UNL     1       4.607   0.484  -2.071  0.00  0.00    +0.020 A 
ATOM     13  C   UNL     1       4.057   1.726  -1.807  0.00  0.00    +0.041 A 
ATOM     14  C   UNL     1       2.733   1.977  -2.120  0.00  0.00    +0.020 A 
ATOM     15  C   UNL     1       1.962   0.988  -2.701  0.00  0.00    +0.007 A 
ATOM     16 CL   UNL     1       5.029   2.969  -1.083  0.00  0.00    -0.084 Cl
ENDBRANCH   7  10
BRANCH   1  17
ATOM     17  C   UNL     1       0.456  -1.786  -1.387  0.00  0.00    +0.339 C 
ATOM     18  O   UNL     1      -0.720  -1.506  -1.528  0.00  0.00    -0.245 OA
BRANCH  17  19
ATOM     19  O   UNL     1       1.044  -1.639  -0.181  0.00  0.00    -0.462 OA
BRANCH  19  21
ATOM     20  C   UNL     1       1.062  -1.049   2.162  0.00  0.00    +0.048 C 
ATOM     21  C   UNL     1       0.228  -1.149   0.884  0.00  0.00    +0.229 C 
ENDBRANCH  19  21
ENDBRANCH  17  19
ENDBRANCH   1  17
BRANCH   2  22
ATOM     22  C   UNL     1       1.087  -4.537  -1.521  0.00  0.00    +0.283 C 
BRANCH  22  23
ATOM     23  O   UNL     1       0.154  -5.468  -2.074  0.00  0.00    -0.455 OA
BRANCH  23  24
ATOM     24  C   UNL     1      -0.343  -6.404  -1.241  0.00  0.00    +0.341 C 
ATOM     25  O   UNL     1       0.006  -6.429  -0.077  0.00  0.00    -0.245 OA
BRANCH  24  26
ATOM     26  C   UNL     1      -1.308  -7.396  -1.741  0.00  0.00    +0.080 A 
ATOM     27  C   UNL     1      -1.618  -7.450  -3.104  0.00  0.00    +0.019 A 
ATOM     28  C   UNL     1      -2.521  -8.380  -3.566  0.00  0.00    +0.039 A 
ATOM     29  C   UNL     1      -3.128  -9.267  -2.685  0.00  0.00    +0.125 A 
ATOM     30  C   UNL     1      -2.832  -9.225  -1.336  0.00  0.00    +0.061 A 
ATOM     31  C   UNL     1      -1.919  -8.297  -0.853  0.00  0.00    +0.041 A 
ATOM     32  F   UNL     1      -4.014 -10.175  -3.150  0.00  0.00    -0.205 F 
BRANCH  31  33
ATOM     33  N   UNL     1      -1.615  -8.256   0.501  0.00  0.00    -0.357 N 
ATOM     34  H   UNL     1      -0.919  -7.663   0.824  0.00  0.00    +0.142 HD
ATOM     35  H   UNL     1      -2.099  -8.821   1.124  0.00  0.00    +0.142 HD
ENDBRANCH  31  33
ENDBRANCH  24  26
ENDBRANCH  23  24
ENDBRANCH  22  23
ENDBRANCH   2  22
TORSDOF 9
