REMARK  Name = ZINC08816599
REMARK  7 active torsions:
REMARK  status: ('A' for Active; 'I' for Inactive)
REMARK    1  A    between atoms: C_1  and  C_2
REMARK    2  A    between atoms: C_3  and  C_4
REMARK    3  A    between atoms: C_4  and  N_5
REMARK    4  A    between atoms: N_13  and  C_28
REMARK    5  A    between atoms: N_17  and  N_18
REMARK    6  A    between atoms: C_19  and  C_20
REMARK    7  A    between atoms: C_25  and  O_26
REMARK                            x       y       z     vdW  Elec       q    Type
REMARK                         _______ _______ _______ _____ _____    ______ ____
ROOT
ATOM      1  N   UNL     1      -0.912  -1.690   2.122  0.00  0.00    -0.301 N 
ATOM      2  C   UNL     1      -2.213  -1.947   2.531  0.00  0.00    +0.153 A 
ATOM      3  C   UNL     1      -2.845  -3.020   3.186  0.00  0.00    +0.280 A 
ATOM      4  O   UNL     1      -2.204  -4.003   3.517  0.00  0.00    -0.265 OA
ATOM      5  N   UNL     1      -4.167  -2.950   3.442  0.00  0.00    -0.273 N 
ATOM      6  H   UNL     1      -4.620  -3.711   3.907  0.00  0.00    +0.173 HD
ATOM      7  C   UNL     1      -4.886  -1.872   3.083  0.00  0.00    +0.331 A 
ATOM      8  O   UNL     1      -6.076  -1.844   3.332  0.00  0.00    -0.246 OA
ATOM      9  N   UNL     1      -4.321  -0.824   2.455  0.00  0.00    -0.280 N 
ATOM     10  C   UNL     1      -2.966  -0.837   2.164  0.00  0.00    +0.170 A 
ATOM     11  N   UNL     1      -2.144   0.030   1.573  0.00  0.00    -0.195 NA
ATOM     12  C   UNL     1      -0.922  -0.463   1.534  0.00  0.00    +0.218 A 
ATOM     13  N   UNL     1       0.173   0.168   0.991  0.00  0.00    -0.206 N 
ATOM     14  C   UNL     1      -5.139   0.332   2.080  0.00  0.00    +0.155 C 
ATOM     15  H   UNL     1       1.041  -0.266   1.008  0.00  0.00    +0.177 HD
ENDROOT
BRANCH  13  16
ATOM     16  N   UNL     1       0.036   1.436   0.412  0.00  0.00    -0.187 NA
ATOM     17  C   UNL     1       1.043   1.985  -0.196  0.00  0.00    +0.142 C 
BRANCH  17  18
ATOM     18  C   UNL     1       2.243   1.186  -0.503  0.00  0.00    +0.037 A 
ATOM     19  C   UNL     1       2.144  -0.199  -0.656  0.00  0.00    +0.028 A 
ATOM     20  C   UNL     1       3.271  -0.940  -0.948  0.00  0.00    +0.019 A 
ATOM     21  C   UNL     1       4.502  -0.318  -1.079  0.00  0.00    +0.019 A 
ATOM     22  C   UNL     1       4.612   1.052  -0.925  0.00  0.00    +0.047 A 
ATOM     23  C   UNL     1       3.490   1.811  -0.637  0.00  0.00    +0.126 A 
ATOM     24 BR   UNL     1       3.136  -2.814  -1.162  0.00  0.00    -0.050 Br
BRANCH  23  25
ATOM     25  O   UNL     1       3.599   3.157  -0.485  0.00  0.00    -0.506 OA
ATOM     26  H   UNL     1       3.702   3.442   0.433  0.00  0.00    +0.292 HD
ENDBRANCH  23  25
ENDBRANCH  17  18
ENDBRANCH  13  16
BRANCH   1  27
ATOM     27  C   UNL     1       0.247  -2.570   2.289  0.00  0.00    +0.153 C 
BRANCH  27  30
ATOM     28  C   UNL     1       1.793  -2.927   5.787  0.00  0.00    +0.057 C 
ATOM     29  C   UNL     1       1.119  -3.228   4.474  0.00  0.00    +0.013 C 
ATOM     30  C   UNL     1       0.921  -2.268   3.603  0.00  0.00    +0.010 C 
ATOM     31 CL   UNL     1       0.605  -4.847   4.113  0.00  0.00    -0.089 Cl
ENDBRANCH  27  30
ENDBRANCH   1  27
TORSDOF 5
