REMARK  Name = ZINC00182729
REMARK  3 active torsions:
REMARK  status: ('A' for Active; 'I' for Inactive)
REMARK    1  A    between atoms: C_13  and  C_21
REMARK    2  A    between atoms: C_15  and  C_19
REMARK    3  A    between atoms: C_16  and  N_18
REMARK                            x       y       z     vdW  Elec       q    Type
REMARK                         _______ _______ _______ _____ _____    ______ ____
ROOT
ATOM      1  C   UNL     1       1.205  -0.696  -0.013  0.00  0.00    +0.001 A 
ATOM      2  C   UNL     1       0.002  -0.004   0.002  0.00  0.00    +0.002 A 
ATOM      3  C   UNL     1      -0.017   1.374   0.010  0.00  0.00    +0.026 A 
ATOM      4  C   UNL     1       1.182   2.080   0.002  0.00  0.00    +0.053 A 
ATOM      5  C   UNL     1       2.398   1.375  -0.013  0.00  0.00    +0.041 A 
ATOM      6  C   UNL     1       2.394  -0.022  -0.021  0.00  0.00    +0.013 A 
ATOM      7  C   UNL     1       3.658   2.132  -0.019  0.00  0.00    +0.148 A 
ATOM      8  C   UNL     1       3.599   3.493  -0.011  0.00  0.00    +0.073 A 
ATOM      9  C   UNL     1       2.352   4.143   0.000  0.00  0.00    +0.257 A 
ATOM     10  O   UNL     1       2.319   5.362   0.004  0.00  0.00    -0.267 OA
ATOM     11  N   UNL     1       1.195   3.460   0.007  0.00  0.00    -0.322 N 
ATOM     12  H   UNL     1       0.329   3.959   0.017  0.00  0.00    +0.169 HD
ATOM     13  C   UNL     1       4.862   4.314  -0.016  0.00  0.00    +0.110 C 
ATOM     14  C   UNL     1       6.031   3.466  -0.439  0.00  0.00    +0.099 C 
ATOM     15  C   UNL     1       5.955   2.114  -0.421  0.00  0.00    +0.199 C 
ATOM     16  O   UNL     1       4.836   1.478  -0.030  0.00  0.00    -0.440 OA
ENDROOT
BRANCH  13  17
ATOM     17  C   UNL     1       5.110   4.857   1.367  0.00  0.00    +0.003 A 
ATOM     18  C   UNL     1       5.209   6.147   1.773  0.00  0.00    +0.012 A 
ATOM     19  C   UNL     1       5.438   6.413   3.110  0.00  0.00    +0.008 A 
ATOM     20  C   UNL     1       5.568   5.377   3.974  0.00  0.00    +0.045 A 
ATOM     21  S   UNL     1       5.357   3.969   2.896  0.00  0.00    -0.101 S 
ENDBRANCH  13  17
BRANCH  15  22
ATOM     22  N   UNL     1       7.044   1.376  -0.811  0.00  0.00    -0.328 N 
ATOM     23  H   UNL     1       7.002   0.407  -0.802  0.00  0.00    +0.145 HD
ATOM     24  H   UNL     1       7.857   1.823  -1.095  0.00  0.00    +0.145 HD
ENDBRANCH  15  22
BRANCH  14  25
ATOM     25  C   UNL     1       7.244   4.098  -0.863  0.00  0.00    +0.101 C 
ATOM     26  N   UNL     1       8.206   4.600  -1.199  0.00  0.00    -0.191 NA
ENDBRANCH  14  25
TORSDOF 3
