REMARK  Name = ZINC35341982
REMARK  4 active torsions:
REMARK  status: ('A' for Active; 'I' for Inactive)
REMARK    1  A    between atoms: C_1  and  C_2
REMARK    2  A    between atoms: C_5  and  N_9
REMARK    3  A    between atoms: N_9  and  C_10
REMARK    4  A    between atoms: C_13  and  N_20
REMARK                            x       y       z     vdW  Elec       q    Type
REMARK                         _______ _______ _______ _____ _____    ______ ____
ROOT
ATOM      1  C   UNL     1      -0.030  -4.907  -1.207  0.00  0.00    +0.058 A 
ATOM      2  C   UNL     1      -0.033  -4.262  -2.425  0.00  0.00    +0.027 A 
ATOM      3  C   UNL     1      -0.118  -4.980  -3.614  0.00  0.00    +0.025 A 
ATOM      4  C   UNL     1      -0.203  -6.356  -3.601  0.00  0.00    +0.034 A 
ATOM      5  C   UNL     1      -0.202  -7.043  -2.370  0.00  0.00    +0.023 A 
ATOM      6  C   UNL     1      -0.109  -6.315  -1.159  0.00  0.00    +0.094 A 
ATOM      7  N   UNL     1      -0.103  -6.964   0.009  0.00  0.00    -0.253 NA
ATOM      8  C   UNL     1      -0.176  -8.272   0.062  0.00  0.00    +0.111 A 
ATOM      9  C   UNL     1      -0.264  -9.048  -1.091  0.00  0.00    +0.020 A 
ATOM     10  C   UNL     1      -0.286  -8.446  -2.318  0.00  0.00    +0.013 A 
ENDROOT
BRANCH   4  11
ATOM     11  N   UNL     1      -0.289  -7.064  -4.801  0.00  0.00    -0.357 N 
ATOM     12  H   UNL     1      -0.290  -6.588  -5.646  0.00  0.00    +0.142 HD
ATOM     13  H   UNL     1      -0.348  -8.032  -4.790  0.00  0.00    +0.142 HD
ENDBRANCH   4  11
BRANCH   1  14
ATOM     14  N   UNL     1       0.057  -4.168  -0.023  0.00  0.00    -0.312 N 
ATOM     15  H   UNL     1       0.640  -4.466   0.693  0.00  0.00    +0.152 HD
BRANCH  14  20
ATOM     16  C   UNL     1      -3.002   0.567   0.597  0.00  0.00    +0.044 C 
ATOM     17  C   UNL     1      -2.188  -0.691   0.433  0.00  0.00    -0.049 A 
ATOM     18  C   UNL     1      -2.361  -1.482  -0.688  0.00  0.00    +0.005 A 
ATOM     19  C   UNL     1      -1.618  -2.636  -0.842  0.00  0.00    +0.024 A 
ATOM     20  C   UNL     1      -0.696  -3.002   0.130  0.00  0.00    +0.046 A 
ATOM     21  C   UNL     1      -0.524  -2.204   1.255  0.00  0.00    +0.039 A 
ATOM     22  C   UNL     1      -1.267  -1.048   1.400  0.00  0.00    +0.020 A 
ATOM     23 BR   UNL     1       0.730  -2.696   2.583  0.00  0.00    -0.048 Br
ENDBRANCH  14  20
ENDBRANCH   1  14
TORSDOF 3
