REMARK  Name = ZINC03071509
REMARK  8 active torsions:
REMARK  status: ('A' for Active; 'I' for Inactive)
REMARK    1  A    between atoms: C_1  and  C_2
REMARK    2  A    between atoms: C_3  and  C_23
REMARK    3  A    between atoms: C_4  and  C_16
REMARK    4  A    between atoms: C_10  and  C_14
REMARK    5  A    between atoms: C_10  and  C_15
REMARK    6  A    between atoms: C_21  and  O_22
REMARK    7  A    between atoms: C_23  and  O_25
REMARK    8  A    between atoms: O_25  and  C_26
REMARK                            x       y       z     vdW  Elec       q    Type
REMARK                         _______ _______ _______ _____ _____    ______ ____
ROOT
ATOM      1  C   UNL     1      -1.430  -3.549  -2.458  0.00  0.00    +0.061 C 
ATOM      2  C   UNL     1      -0.740  -3.120  -1.189  0.00  0.00    +0.016 C 
ATOM      3  C   UNL     1       0.583  -2.883  -1.196  0.00  0.00    +0.065 C 
ATOM      4  C   UNL     1       1.302  -2.446   0.047  0.00  0.00    +0.096 C 
ATOM      5  C   UNL     1       0.481  -2.737   1.278  0.00  0.00    +0.024 C 
ATOM      6  C   UNL     1      -0.843  -2.984   1.182  0.00  0.00    +0.016 C 
ATOM      7  N   UNL     1      -1.464  -2.974  -0.038  0.00  0.00    -0.321 N 
ATOM      8  C   UNL     1      -1.669  -3.281   2.408  0.00  0.00    +0.058 C 
ATOM      9  C   UNL     1      -1.078  -2.551   3.616  0.00  0.00    -0.023 C 
ATOM     10  C   UNL     1       0.373  -3.008   3.797  0.00  0.00    +0.086 C 
ATOM     11  C   UNL     1       1.131  -2.743   2.525  0.00  0.00    +0.162 C 
ATOM     12  O   UNL     1       2.326  -2.531   2.575  0.00  0.00    -0.292 OA
ATOM     13  C   UNL     1      -1.116  -1.041   3.373  0.00  0.00    +0.011 C 
ATOM     14  C   UNL     1      -1.888  -2.891   4.869  0.00  0.00    +0.011 C 
ATOM     15  H   UNL     1      -2.555  -2.847  -0.088  0.00  0.00    +0.152 HD
ENDROOT
BRANCH   4  16
ATOM     16  C   UNL     1       1.569  -0.965  -0.031  0.00  0.00    +0.006 A 
ATOM     17  C   UNL     1       0.516  -0.077  -0.142  0.00  0.00    +0.008 A 
ATOM     18  C   UNL     1       0.761   1.282  -0.213  0.00  0.00    +0.001 A 
ATOM     19  C   UNL     1       2.059   1.756  -0.173  0.00  0.00    +0.004 A 
ATOM     20  C   UNL     1       3.115   0.873  -0.063  0.00  0.00    +0.046 A 
ATOM     21  C   UNL     1       2.873  -0.492   0.009  0.00  0.00    +0.121 A 
BRANCH  21  22
ATOM     22  O   UNL     1       3.910  -1.363   0.119  0.00  0.00    -0.506 OA
ATOM     23  H   UNL     1       4.943  -0.986   0.150  0.00  0.00    +0.292 HD
ENDBRANCH  21  22
ENDBRANCH   4  16
BRANCH   3  24
ATOM     24  C   UNL     1       1.312  -3.049  -2.397  0.00  0.00    +0.337 C 
ATOM     25  O   UNL     1       0.768  -3.519  -3.378  0.00  0.00    -0.245 OA
BRANCH  24  26
ATOM     26  O   UNL     1       2.610  -2.687  -2.454  0.00  0.00    -0.465 OA
ATOM     27  C   UNL     1       3.285  -2.883  -3.698  0.00  0.00    +0.280 C 
ENDBRANCH  24  26
ENDBRANCH   3  24
TORSDOF 4
