REMARK  Name = ZINC56607065
REMARK  11 active torsions:
REMARK  status: ('A' for Active; 'I' for Inactive)
REMARK    1  A    between atoms: C_1  and  C_2
REMARK    2  A    between atoms: N_7  and  C_9
REMARK    3  A    between atoms: C_9  and  C_10
REMARK    4  A    between atoms: C_10  and  C_12
REMARK    5  A    between atoms: C_10  and  N_13
REMARK    6  A    between atoms: N_16  and  C_17
REMARK    7  A    between atoms: C_20  and  C_23
REMARK    8  A    between atoms: N_25  and  C_26
REMARK    9  A    between atoms: C_26  and  C_27
REMARK   10  A    between atoms: C_26  and  C_28
REMARK   11  A    between atoms: C_26  and  C_29
REMARK                            x       y       z     vdW  Elec       q    Type
REMARK                         _______ _______ _______ _____ _____    ______ ____
ROOT
ATOM      1  N   UNL     1       0.198  -4.501   2.218  0.00  0.00    -0.298 N 
ATOM      2  C   UNL     1      -0.001  -5.761   1.783  0.00  0.00    +0.304 C 
ATOM      3  O   UNL     1       0.951  -6.469   1.514  0.00  0.00    -0.253 OA
ATOM      4  N   UNL     1      -1.254  -6.237   1.646  0.00  0.00    -0.269 N 
ATOM      5  H   UNL     1      -0.561  -3.936   2.433  0.00  0.00    +0.150 HD
ATOM      6  H   UNL     1      -2.011  -5.698   1.928  0.00  0.00    +0.156 HD
ENDROOT
BRANCH   4   7
ATOM      7  C   UNL     1      -1.464  -7.502   1.099  0.00  0.00    +0.035 A 
ATOM      8  C   UNL     1      -0.564  -8.530   1.363  0.00  0.00    +0.024 A 
ATOM      9  C   UNL     1      -0.768  -9.780   0.825  0.00  0.00    +0.015 A 
ATOM     10  C   UNL     1      -1.881 -10.017   0.013  0.00  0.00    +0.037 A 
ATOM     11  C   UNL     1      -2.784  -8.982  -0.249  0.00  0.00    +0.015 A 
ATOM     12  C   UNL     1      -2.576  -7.735   0.296  0.00  0.00    +0.024 A 
BRANCH  10  13
ATOM     13  C   UNL     1      -2.103 -11.356  -0.566  0.00  0.00    +0.244 C 
ATOM     14  O   UNL     1      -1.317 -12.255  -0.337  0.00  0.00    -0.270 OA
ATOM     15  N   UNL     1      -3.177 -11.582  -1.349  0.00  0.00    -0.307 N 
ATOM     16  H   UNL     1      -3.804 -10.865  -1.531  0.00  0.00    +0.150 HD
BRANCH  15  17
ATOM     17  C   UNL     1      -3.397 -12.912  -1.923  0.00  0.00    +0.026 C 
ATOM     18  C   UNL     1      -3.538 -13.938  -0.797  0.00  0.00    +0.031 C 
ATOM     19  C   UNL     1      -4.675 -12.899  -2.764  0.00  0.00    +0.031 C 
ATOM     20  C   UNL     1      -2.208 -13.288  -2.810  0.00  0.00    +0.031 C 
ENDBRANCH  15  17
ENDBRANCH  10  13
ENDBRANCH   4   7
BRANCH   1  21
ATOM     21  C   UNL     1       1.561  -3.984   2.367  0.00  0.00    +0.055 C 
ATOM     22  C   UNL     1       2.148  -4.470   3.694  0.00  0.00    +0.026 C 
BRANCH  21  23
ATOM     23  C   UNL     1       1.530  -2.454   2.353  0.00  0.00    -0.057 C 
BRANCH  23  29
ATOM     24  C   UNL     1       1.830  -2.337  -2.532  0.00  0.00    +0.005 C 
ATOM     25  C   UNL     1       0.974  -1.950  -1.324  0.00  0.00    -0.031 C 
ATOM     26  C   UNL     1       0.753  -0.435  -1.318  0.00  0.00    -0.001 C 
ATOM     27  C   UNL     1      -0.038  -0.050  -0.064  0.00  0.00    -0.018 C 
ATOM     28  C   UNL     1       0.718  -0.531   1.177  0.00  0.00    -0.079 C 
ATOM     29  N   UNL     1       0.874  -1.989   1.124  0.00  0.00    +0.381 N 
ATOM     30  C   UNL     1       1.692  -2.362  -0.037  0.00  0.00    -0.076 C 
ATOM     31  H   UNL     1      -0.035  -2.421   1.046  0.00  0.00    -0.082 HD
ENDBRANCH  23  29
ENDBRANCH  21  23
ENDBRANCH   1  21
TORSDOF 6
