REMARK  Name = ZINC28076969
REMARK  11 active torsions:
REMARK  status: ('A' for Active; 'I' for Inactive)
REMARK    1  A    between atoms: C_1  and  C_2
REMARK    2  A    between atoms: C_2  and  N_3
REMARK    3  A    between atoms: N_3  and  C_4
REMARK    4  A    between atoms: N_3  and  C_32
REMARK    5  A    between atoms: C_4  and  C_5
REMARK    6  A    between atoms: C_5  and  C_6
REMARK    7  A    between atoms: C_6  and  N_7
REMARK    8  A    between atoms: C_8  and  C_10
REMARK    9  A    between atoms: C_15  and  N_16
REMARK   10  A    between atoms: N_16  and  S_17
REMARK   11  A    between atoms: S_17  and  C_20
REMARK                            x       y       z     vdW  Elec       q    Type
REMARK                         _______ _______ _______ _____ _____    ______ ____
ROOT
ATOM      1  C   UNL     1       3.239   2.880  -3.763  0.00  0.00    +0.059 A 
ATOM      2  C   UNL     1       2.369   3.599  -4.587  0.00  0.00    +0.015 A 
ATOM      3  C   UNL     1       1.711   4.704  -4.092  0.00  0.00    +0.001 A 
ATOM      4  C   UNL     1       1.906   5.107  -2.781  0.00  0.00    +0.002 A 
ATOM      5  C   UNL     1       2.757   4.404  -1.953  0.00  0.00    +0.025 A 
ATOM      6  C   UNL     1       3.434   3.290  -2.435  0.00  0.00    +0.060 A 
ENDROOT
BRANCH   1   8
ATOM      7  N   UNL     1       3.755   1.305  -5.561  0.00  0.00    -0.311 N 
ATOM      8  C   UNL     1       3.946   1.696  -4.285  0.00  0.00    +0.246 C 
ATOM      9  O   UNL     1       4.702   1.072  -3.565  0.00  0.00    -0.270 OA
ATOM     10  H   UNL     1       3.071   1.870  -6.212  0.00  0.00    +0.149 HD
BRANCH   7  11
ATOM     11  C   UNL     1       4.458   0.129  -6.080  0.00  0.00    +0.106 C 
BRANCH  11  12
ATOM     12  C   UNL     1       4.067  -0.094  -7.542  0.00  0.00    +0.037 C 
BRANCH  12  13
ATOM     13  C   UNL     1       4.801  -1.322  -8.084  0.00  0.00    +0.106 C 
BRANCH  13  14
ATOM     14  N   UNL     1       4.426  -1.536  -9.484  0.00  0.00    -0.330 N 
BRANCH  14  15
ATOM     15  C   UNL     1       5.166  -0.934 -10.505  0.00  0.00    +0.030 A 
ATOM     16  C   UNL     1       6.253  -0.127 -10.194  0.00  0.00    +0.023 A 
ATOM     17  C   UNL     1       6.985   0.463 -11.205  0.00  0.00    +0.002 A 
ATOM     18  C   UNL     1       6.630   0.260 -12.526  0.00  0.00    +0.000 A 
ATOM     19  C   UNL     1       5.546  -0.539 -12.839  0.00  0.00    +0.002 A 
ATOM     20  C   UNL     1       4.812  -1.136 -11.833  0.00  0.00    +0.023 A 
ENDBRANCH  14  15
BRANCH  14  22
ATOM     21  C   UNL     1       2.012  -1.523  -9.874  0.00  0.00    +0.024 C 
ATOM     22  C   UNL     1       3.277  -2.382  -9.814  0.00  0.00    +0.102 C 
ENDBRANCH  14  22
ENDBRANCH  13  14
ENDBRANCH  12  13
ENDBRANCH  11  12
ENDBRANCH   7  11
ENDBRANCH   1   8
BRANCH   6  23
ATOM     23  N   UNL     1       4.295   2.583  -1.606  0.00  0.00    -0.216 N 
ATOM     24  H   UNL     1       5.215   2.141  -2.016  0.00  0.00    +0.174 HD
BRANCH  23  25
ATOM     25  S   UNL     1       3.938   2.408   0.002  0.00  0.00    +0.072 S 
ATOM     26  O   UNL     1       3.711   3.714   0.513  0.00  0.00    -0.150 OA
ATOM     27  O   UNL     1       4.922   1.538   0.544  0.00  0.00    -0.150 OA
BRANCH  25  28
ATOM     28  C   UNL     1       2.400   1.553   0.103  0.00  0.00    +0.111 A 
ATOM     29  C   UNL     1       1.215   2.267   0.127  0.00  0.00    +0.031 A 
ATOM     30  C   UNL     1       0.005   1.607   0.206  0.00  0.00    +0.030 A 
ATOM     31  C   UNL     1      -0.023   0.221   0.262  0.00  0.00    +0.067 A 
ATOM     32  C   UNL     1       1.173  -0.499   0.237  0.00  0.00    +0.069 A 
ATOM     33  C   UNL     1       2.383   0.173   0.157  0.00  0.00    +0.056 A 
ATOM     34  N   UNL     1       0.832  -1.848   0.305  0.00  0.00    -0.306 N 
ATOM     35  H   UNL     1       1.619  -2.616   0.300  0.00  0.00    +0.170 HD
ATOM     36  C   UNL     1      -0.510  -1.943   0.368  0.00  0.00    +0.325 A 
ATOM     37  O   UNL     1      -1.136  -2.985   0.436  0.00  0.00    -0.247 OA
ATOM     38  N   UNL     1      -1.054  -0.712   0.344  0.00  0.00    -0.306 N 
ATOM     39  H   UNL     1      -2.100  -0.374   0.377  0.00  0.00    +0.170 HD
ENDBRANCH  25  28
ENDBRANCH  23  25
ENDBRANCH   6  23
TORSDOF 10
