REMARK  Name = ZINC27153067
REMARK  7 active torsions:
REMARK  status: ('A' for Active; 'I' for Inactive)
REMARK    1  A    between atoms: C_8  and  C_10
REMARK    2  A    between atoms: C_14  and  N_16
REMARK    3  A    between atoms: C_17  and  C_19
REMARK    4  A    between atoms: C_19  and  C_20
REMARK    5  A    between atoms: C_20  and  C_21
REMARK    6  A    between atoms: C_21  and  C_22
REMARK    7  A    between atoms: C_22  and  C_23
REMARK                            x       y       z     vdW  Elec       q    Type
REMARK                         _______ _______ _______ _____ _____    ______ ____
ROOT
ATOM      1  N   UNL     1       5.343   7.957  -2.537  0.00  0.00    -0.285 N 
ATOM      2  C   UNL     1       4.178   7.305  -2.354  0.00  0.00    +0.217 C 
ATOM      3  O   UNL     1       3.169   7.700  -2.899  0.00  0.00    -0.275 OA
ATOM      4  H   UNL     1       6.238   7.651  -1.976  0.00  0.00    +0.155 HD
ENDROOT
BRANCH   1   9
ATOM      5  C   UNL     1       4.709  10.077  -5.485  0.00  0.00    +0.009 A 
ATOM      6  C   UNL     1       5.567  11.146  -5.223  0.00  0.00    +0.010 A 
ATOM      7  C   UNL     1       6.338  11.147  -4.079  0.00  0.00    +0.002 A 
ATOM      8  C   UNL     1       6.265  10.092  -3.189  0.00  0.00    +0.023 A 
ATOM      9  C   UNL     1       5.414   9.023  -3.441  0.00  0.00    +0.034 A 
ATOM     10  C   UNL     1       4.639   9.010  -4.590  0.00  0.00    +0.033 A 
BRANCH   5  18
ATOM     11  C   UNL     1       0.769   8.678 -10.007  0.00  0.00    +0.002 A 
ATOM     12  C   UNL     1       1.039   9.844 -10.711  0.00  0.00    +0.001 A 
ATOM     13  C   UNL     1       1.956  10.745 -10.204  0.00  0.00    +0.017 A 
ATOM     14  C   UNL     1       2.584  10.472  -9.014  0.00  0.00    +0.040 A 
ATOM     15  C   UNL     1       2.331   9.293  -8.273  0.00  0.00    +0.079 A 
ATOM     16  C   UNL     1       1.385   8.398  -8.828  0.00  0.00    +0.029 A 
ATOM     17  N   UNL     1       3.028   9.163  -7.127  0.00  0.00    -0.239 NA
ATOM     18  C   UNL     1       3.881  10.073  -6.710  0.00  0.00    +0.109 A 
ATOM     19  S   UNL     1       3.790  11.300  -8.007  0.00  0.00    -0.067 S 
ENDBRANCH   5  18
ENDBRANCH   1   9
BRANCH   2  20
ATOM     20  C   UNL     1       4.128   6.084  -1.472  0.00  0.00    +0.096 C 
BRANCH  20  21
ATOM     21  C   UNL     1       2.699   5.539  -1.435  0.00  0.00    +0.009 C 
BRANCH  21  22
ATOM     22  C   UNL     1       2.648   4.300  -0.540  0.00  0.00    +0.002 C 
BRANCH  22  23
ATOM     23  C   UNL     1       1.219   3.755  -0.502  0.00  0.00    +0.016 C 
BRANCH  23  24
ATOM     24  C   UNL     1       1.168   2.516   0.393  0.00  0.00    +0.069 C 
ATOM     25  C   UNL     1      -0.281   2.009   0.556  0.00  0.00    +0.108 C 
ATOM     26  C   UNL     1      -0.404   0.482   0.536  0.00  0.00    +0.105 C 
ATOM     27  C   UNL     1       0.945  -0.247   0.357  0.00  0.00    +0.093 C 
ATOM     28  S   UNL     1       1.969   1.071  -0.430  0.00  0.00    -0.154 S 
ATOM     29  N   UNL     1      -1.258   0.208  -0.630  0.00  0.00    -0.294 N 
ATOM     30  C   UNL     1      -1.590   1.369  -1.211  0.00  0.00    +0.300 C 
ATOM     31  O   UNL     1      -2.293   1.439  -2.200  0.00  0.00    -0.253 OA
ATOM     32  N   UNL     1      -1.077   2.447  -0.601  0.00  0.00    -0.294 N 
ATOM     33  H   UNL     1      -1.518  -0.829  -0.890  0.00  0.00    +0.151 HD
ATOM     34  H   UNL     1      -1.166   3.518  -0.833  0.00  0.00    +0.151 HD
ENDBRANCH  23  24
ENDBRANCH  22  23
ENDBRANCH  21  22
ENDBRANCH  20  21
ENDBRANCH   2  20
TORSDOF 7
