REMARK  Name = ZINC35851743
REMARK  3 active torsions:
REMARK  status: ('A' for Active; 'I' for Inactive)
REMARK    1  A    between atoms: C_1  and  C_2
REMARK    2  A    between atoms: C_2  and  C_3
REMARK    3  A    between atoms: N_25  and  C_28
REMARK                            x       y       z     vdW  Elec       q    Type
REMARK                         _______ _______ _______ _____ _____    ______ ____
ROOT
ATOM      1  C   UNL     1      -1.473  -0.300   0.075  0.00  0.00    -0.026 A 
ATOM      2  C   UNL     1      -2.067  -0.687   1.259  0.00  0.00    +0.005 A 
ATOM      3  C   UNL     1      -3.333  -1.244   1.256  0.00  0.00    +0.001 A 
ATOM      4  C   UNL     1      -4.007  -1.414   0.059  0.00  0.00    +0.004 A 
ATOM      5  C   UNL     1      -3.418  -1.030  -1.125  0.00  0.00    -0.027 A 
ATOM      6  C   UNL     1      -2.147  -0.462  -1.133  0.00  0.00    +0.039 A 
ATOM      7  N   UNL     1      -1.766  -0.150  -2.440  0.00  0.00    -0.286 N 
ATOM      8  C   UNL     1      -2.718  -0.471  -3.337  0.00  0.00    +0.212 C 
ATOM      9  O   UNL     1      -2.662  -0.316  -4.538  0.00  0.00    -0.277 OA
ATOM     10  C   UNL     1      -3.859  -1.074  -2.561  0.00  0.00    +0.053 C 
ATOM     11  C   UNL     1      -5.145  -0.270  -2.779  0.00  0.00    +0.089 C 
ATOM     12  C   UNL     1      -6.277  -1.333  -2.793  0.00  0.00    +0.074 C 
ATOM     13  C   UNL     1      -5.569  -2.680  -2.564  0.00  0.00    -0.054 C 
ATOM     14  N   UNL     1      -4.151  -2.451  -2.994  0.00  0.00    +0.395 N 
ATOM     15  C   UNL     1      -4.181  -2.501  -4.475  0.00  0.00    -0.076 C 
ATOM     16  C   UNL     1      -5.199  -3.606  -4.821  0.00  0.00    -0.020 C 
ATOM     17  C   UNL     1      -6.129  -3.723  -3.550  0.00  0.00    -0.016 C 
ATOM     18  C   UNL     1      -6.806  -1.261  -4.207  0.00  0.00    +0.228 C 
ATOM     19  O   UNL     1      -7.708  -1.937  -4.653  0.00  0.00    -0.275 OA
ATOM     20  N   UNL     1      -6.123  -0.335  -4.891  0.00  0.00    -0.209 N 
ATOM     21  C   UNL     1      -5.161   0.297  -4.181  0.00  0.00    +0.229 C 
ATOM     22  O   UNL     1      -4.428   1.171  -4.592  0.00  0.00    -0.275 OA
ATOM     23  H   UNL     1      -0.916   0.253  -2.674  0.00  0.00    +0.155 HD
ATOM     24  H   UNL     1      -3.515  -3.124  -2.592  0.00  0.00    -0.079 HD
ENDROOT
BRANCH  20  25
ATOM     25  C   UNL     1      -6.386  -0.038  -6.233  0.00  0.00    +0.052 A 
ATOM     26  C   UNL     1      -5.711  -0.698  -7.236  0.00  0.00    +0.024 A 
ATOM     27  C   UNL     1      -5.965  -0.411  -8.573  0.00  0.00    +0.002 A 
ATOM     28  C   UNL     1      -6.885   0.528  -8.928  0.00  0.00    +0.008 A 
ATOM     29  C   UNL     1      -7.595   1.224  -7.935  0.00  0.00    -0.016 A 
ATOM     30  C   UNL     1      -7.349   0.936  -6.570  0.00  0.00    +0.004 A 
ATOM     31  C   UNL     1      -8.063   1.629  -5.580  0.00  0.00    +0.010 A 
ATOM     32  C   UNL     1      -8.985   2.563  -5.942  0.00  0.00    +0.001 A 
ATOM     33  C   UNL     1      -9.232   2.843  -7.285  0.00  0.00    +0.001 A 
ATOM     34  C   UNL     1      -8.551   2.199  -8.272  0.00  0.00    +0.008 A 
ENDBRANCH  20  25
BRANCH   1  36
ATOM     35  C   UNL     1      -0.208   1.832   0.115  0.00  0.00    +0.009 C 
ATOM     36  C   UNL     1      -0.094   0.307   0.090  0.00  0.00    +0.033 C 
ENDBRANCH   1  36
TORSDOF 2
