REMARK  Name = ZINC12702582
REMARK  5 active torsions:
REMARK  status: ('A' for Active; 'I' for Inactive)
REMARK    1  A    between atoms: C_1  and  C_2
REMARK    2  A    between atoms: C_3  and  C_13
REMARK    3  A    between atoms: N_15  and  N_16
REMARK    4  A    between atoms: C_17  and  C_19
REMARK    5  A    between atoms: N_25  and  C_26
REMARK                            x       y       z     vdW  Elec       q    Type
REMARK                         _______ _______ _______ _____ _____    ______ ____
ROOT
ATOM      1  N   UNL     1       0.640   4.096   0.516  0.00  0.00    -0.229 N 
ATOM      2  C   UNL     1       1.590   3.150   0.381  0.00  0.00    +0.278 C 
ATOM      3  O   UNL     1       2.767   3.454   0.445  0.00  0.00    -0.267 OA
ATOM      4  H   UNL     1      -0.296   3.844   0.541  0.00  0.00    +0.173 HD
ENDROOT
BRANCH   2   5
ATOM      5  C   UNL     1       1.206   1.752   0.159  0.00  0.00    +0.128 A 
ATOM      6  C   UNL     1       2.038   0.687   0.123  0.00  0.00    +0.116 A 
ATOM      7  N   UNL     1       1.281  -0.430  -0.109  0.00  0.00    -0.339 N 
ATOM      8  H   UNL     1       1.619  -1.336  -0.183  0.00  0.00    +0.167 HD
ATOM      9  C   UNL     1      -0.009  -0.063  -0.218  0.00  0.00    +0.163 A 
ATOM     10  S   UNL     1      -1.327  -1.117  -0.509  0.00  0.00    -0.013 S 
ATOM     11  N   UNL     1      -0.091   1.272  -0.058  0.00  0.00    -0.284 N 
BRANCH  11  12
ATOM     12  C   UNL     1      -1.260   2.041  -0.106  0.00  0.00    +0.049 A 
ATOM     13  C   UNL     1      -1.479   2.908  -1.168  0.00  0.00    +0.026 A 
ATOM     14  C   UNL     1      -2.636   3.661  -1.215  0.00  0.00    +0.002 A 
ATOM     15  C   UNL     1      -3.570   3.561  -0.201  0.00  0.00    +0.000 A 
ATOM     16  C   UNL     1      -3.352   2.702   0.862  0.00  0.00    +0.002 A 
ATOM     17  C   UNL     1      -2.200   1.942   0.912  0.00  0.00    +0.026 A 
ENDBRANCH  11  12
ENDBRANCH   2   5
BRANCH   1  20
ATOM     18  C   UNL     1       0.056   6.392   0.753  0.00  0.00    +0.269 C 
ATOM     19  O   UNL     1      -1.119   6.075   0.785  0.00  0.00    -0.268 OA
ATOM     20  N   UNL     1       1.005   5.445   0.618  0.00  0.00    -0.230 N 
ATOM     21  H   UNL     1       1.942   5.697   0.593  0.00  0.00    +0.173 HD
BRANCH  18  24
ATOM     22  C   UNL     1      -1.863   8.813   1.057  0.00  0.00    +0.067 C 
ATOM     23  C   UNL     1      -0.362   8.926   0.997  0.00  0.00    +0.060 A 
ATOM     24  C   UNL     1       0.437   7.800   0.860  0.00  0.00    +0.099 A 
ATOM     25  S   UNL     1       2.060   8.547   0.843  0.00  0.00    -0.047 S 
ATOM     26  C   UNL     1       1.551  10.199   1.017  0.00  0.00    +0.162 A 
ATOM     27  N   UNL     1       0.232  10.088   1.076  0.00  0.00    -0.229 NA
ATOM     28  N   UNL     1       2.325  11.338   1.079  0.00  0.00    -0.305 N 
ATOM     29  C   UNL     1       1.934  12.297   0.036  0.00  0.00    +0.135 C 
ATOM     30  C   UNL     1       2.776  13.568   0.178  0.00  0.00    +0.179 C 
ATOM     31  O   UNL     1       4.163  13.226   0.106  0.00  0.00    -0.377 OA
ATOM     32  C   UNL     1       4.578  12.293   1.108  0.00  0.00    +0.179 C 
ATOM     33  C   UNL     1       3.755  11.009   0.975  0.00  0.00    +0.135 C 
ENDBRANCH  18  24
ENDBRANCH   1  20
TORSDOF 4
