REMARK  Name = ZINC43221862
REMARK  15 active torsions:
REMARK  status: ('A' for Active; 'I' for Inactive)
REMARK    1  A    between atoms: C_1  and  C_2
REMARK    2  A    between atoms: C_2  and  C_3
REMARK    3  A    between atoms: C_7  and  C_40
REMARK    4  A    between atoms: C_8  and  N_9
REMARK    5  A    between atoms: C_14  and  C_29
REMARK    6  A    between atoms: C_17  and  C_22
REMARK    7  A    between atoms: C_17  and  C_26
REMARK    8  A    between atoms: C_22  and  C_24
REMARK    9  A    between atoms: C_22  and  O_25
REMARK   10  A    between atoms: C_32  and  O_38
REMARK   11  A    between atoms: C_33  and  C_37
REMARK   12  A    between atoms: C_34  and  O_35
REMARK   13  A    between atoms: O_35  and  C_36
REMARK   14  A    between atoms: O_38  and  C_39
REMARK   15  A    between atoms: C_40  and  C_41
REMARK                            x       y       z     vdW  Elec       q    Type
REMARK                         _______ _______ _______ _____ _____    ______ ____
ROOT
ATOM      1  N   UNL     1      -1.637  -0.692  -2.716  0.00  0.00    -0.209 N 
ATOM      2  C   UNL     1      -1.733   0.613  -3.130  0.00  0.00    +0.229 C 
ATOM      3  O   UNL     1      -2.211   1.548  -2.524  0.00  0.00    -0.275 OA
ATOM      4  C   UNL     1      -1.140   0.627  -4.444  0.00  0.00    +0.077 C 
ATOM      5  C   UNL     1      -0.534   1.562  -5.408  0.00  0.00    -0.023 C 
ATOM      6  N   UNL     1       0.043   0.626  -6.434  0.00  0.00    +0.397 N 
ATOM      7  C   UNL     1       0.254  -0.699  -5.777  0.00  0.00    +0.074 C 
ATOM      8  C   UNL     1       0.015  -0.439  -4.281  0.00  0.00    +0.089 C 
ATOM      9  C   UNL     1      -0.795  -1.433  -3.495  0.00  0.00    +0.229 C 
ATOM     10  O   UNL     1      -0.717  -2.641  -3.546  0.00  0.00    -0.275 OA
ATOM     11  H   UNL     1      -0.601   0.525  -7.205  0.00  0.00    -0.083 HD
ATOM     12  H   UNL     1       0.924   0.986  -6.768  0.00  0.00    -0.083 HD
ENDROOT
BRANCH   5  13
ATOM     13  C   UNL     1      -1.582   2.454  -6.022  0.00  0.00    -0.018 A 
ATOM     14  C   UNL     1      -2.213   2.075  -7.192  0.00  0.00    +0.009 A 
ATOM     15  C   UNL     1      -3.173   2.891  -7.758  0.00  0.00    +0.046 A 
ATOM     16  C   UNL     1      -3.507   4.094  -7.152  0.00  0.00    +0.126 A 
ATOM     17  C   UNL     1      -2.876   4.477  -5.979  0.00  0.00    +0.033 A 
ATOM     18  C   UNL     1      -1.916   3.653  -5.410  0.00  0.00    +0.128 A 
ATOM     19  C   UNL     1      -3.237   5.783  -5.319  0.00  0.00    +0.051 C 
BRANCH  18  20
ATOM     20  O   UNL     1      -1.300   4.023  -4.257  0.00  0.00    -0.495 OA
ATOM     21  C   UNL     1      -0.104   4.795  -4.379  0.00  0.00    +0.277 C 
ENDBRANCH  18  20
BRANCH  16  22
ATOM     22  O   UNL     1      -4.452   4.897  -7.709  0.00  0.00    -0.495 OA
ATOM     23  C   UNL     1      -5.061   4.439  -8.918  0.00  0.00    +0.277 C 
ENDBRANCH  16  22
ENDBRANCH   5  13
BRANCH   1  29
ATOM     24  C   UNL     1      -1.746  -1.166  -0.348  0.00  0.00    -0.026 A 
ATOM     25  C   UNL     1      -2.428  -1.670   0.742  0.00  0.00    +0.005 A 
ATOM     26  C   UNL     1      -3.685  -2.222   0.577  0.00  0.00    +0.001 A 
ATOM     27  C   UNL     1      -4.263  -2.271  -0.678  0.00  0.00    +0.005 A 
ATOM     28  C   UNL     1      -3.585  -1.768  -1.772  0.00  0.00    -0.026 A 
ATOM     29  C   UNL     1      -2.325  -1.208  -1.609  0.00  0.00    +0.050 A 
BRANCH  24  31
ATOM     30  C   UNL     1      -0.502   0.951   0.001  0.00  0.00    +0.009 C 
ATOM     31  C   UNL     1      -0.376  -0.564  -0.167  0.00  0.00    +0.033 C 
ENDBRANCH  24  31
BRANCH  28  32
ATOM     32  C   UNL     1      -4.216  -1.821  -3.139  0.00  0.00    +0.033 C 
ATOM     33  C   UNL     1      -3.732  -3.072  -3.875  0.00  0.00    +0.009 C 
ENDBRANCH  28  32
ENDBRANCH   1  29
BRANCH   7  34
ATOM     34  C   UNL     1       1.670  -1.168  -5.993  0.00  0.00    +0.349 C 
ATOM     35  O   UNL     1       2.441  -0.494  -6.654  0.00  0.00    -0.248 OA
ATOM     36  O   UNL     1       2.044  -2.222  -5.506  0.00  0.00    -0.248 OA
ENDBRANCH   7  34
BRANCH   7  37
ATOM     37  C   UNL     1      -0.736  -1.727  -6.326  0.00  0.00    +0.112 C 
ATOM     38  C   UNL     1      -0.505  -1.906  -7.828  0.00  0.00    +0.037 C 
BRANCH  37  39
ATOM     39  O   UNL     1      -0.541  -2.978  -5.662  0.00  0.00    -0.393 OA
ATOM     40  H   UNL     1      -1.137  -3.678  -5.961  0.00  0.00    +0.210 HD
ENDBRANCH  37  39
ENDBRANCH   7  37
TORSDOF 9
