REMARK  Name = ZINC38994751
REMARK  10 active torsions:
REMARK  status: ('A' for Active; 'I' for Inactive)
REMARK    1  A    between atoms: C_1  and  C_2
REMARK    2  A    between atoms: C_2  and  C_3
REMARK    3  A    between atoms: C_3  and  C_4
REMARK    4  A    between atoms: C_4  and  C_5
REMARK    5  A    between atoms: C_5  and  C_6
REMARK    6  A    between atoms: C_6  and  N_7
REMARK    7  A    between atoms: C_8  and  O_32
REMARK    8  A    between atoms: C_10  and  C_16
REMARK    9  A    between atoms: C_11  and  O_15
REMARK   10  A    between atoms: N_30  and  C_31
REMARK                            x       y       z     vdW  Elec       q    Type
REMARK                         _______ _______ _______ _____ _____    ______ ____
ROOT
ATOM      1  N   UNL     1       2.232  -4.563   3.651  0.00  0.00    -0.256 N 
ATOM      2  C   UNL     1       3.687  -4.788   3.621  0.00  0.00    +0.240 C 
ATOM      3  C   UNL     1       4.335  -5.290   4.894  0.00  0.00    +0.057 C 
ATOM      4  C   UNL     1       3.558  -5.495   5.952  0.00  0.00    +0.190 C 
ATOM      5  N   UNL     1       2.193  -5.257   5.895  0.00  0.00    -0.240 N 
ATOM      6  C   UNL     1       1.569  -4.808   4.798  0.00  0.00    +0.311 C 
ATOM      7  O   UNL     1       0.368  -4.621   4.838  0.00  0.00    -0.252 OA
ATOM      8  H   UNL     1       1.665  -5.420   6.692  0.00  0.00    +0.159 HD
ENDROOT
BRANCH   3   9
ATOM      9  C   UNL     1       5.819  -5.550   4.958  0.00  0.00    +0.139 C 
ATOM     10  C   UNL     1       6.570  -4.253   4.776  0.00  0.00    +0.042 A 
ATOM     11  H   UNL     1       5.548  -2.873   5.955  0.00  0.00    +0.166 HD
ATOM     12  C   UNL     1       7.662  -4.139   3.986  0.00  0.00    -0.016 A 
ATOM     13  C   UNL     1       8.101  -2.763   4.059  0.00  0.00    +0.003 A 
ATOM     14  C   UNL     1       9.159  -2.070   3.464  0.00  0.00    +0.010 A 
ATOM     15  C   UNL     1       9.277  -0.736   3.768  0.00  0.00    +0.001 A 
ATOM     16  C   UNL     1       8.395  -0.095   4.622  0.00  0.00    +0.002 A 
ATOM     17  C   UNL     1       7.339  -0.757   5.225  0.00  0.00    +0.026 A 
ATOM     18  C   UNL     1       7.194  -2.111   4.936  0.00  0.00    +0.047 A 
ATOM     19  N   UNL     1       6.285  -3.043   5.348  0.00  0.00    -0.356 N 
ATOM     20  C   UNL     1       8.249  -5.289   3.207  0.00  0.00    +0.053 C 
ATOM     21  C   UNL     1       7.668  -6.592   3.775  0.00  0.00    +0.090 C 
ATOM     22  N   UNL     1       6.206  -6.475   3.880  0.00  0.00    -0.293 NA
ATOM     23  C   UNL     1       5.580  -7.791   4.065  0.00  0.00    +0.105 C 
ENDBRANCH   3   9
BRANCH   4  24
ATOM     24  O   UNL     1       4.109  -5.945   7.107  0.00  0.00    -0.495 OA
ATOM     25  H   UNL     1       3.473  -6.066   7.825  0.00  0.00    +0.293 HD
ENDBRANCH   4  24
BRANCH   2  26
ATOM     26  O   UNL     1       4.315  -3.555   3.265  0.00  0.00    -0.370 OA
ATOM     27  H   UNL     1       4.047  -3.212   2.401  0.00  0.00    +0.212 HD
ENDBRANCH   2  26
BRANCH   1  28
ATOM     28  C   UNL     1       1.524  -4.077   2.464  0.00  0.00    +0.112 C 
BRANCH  28  29
ATOM     29  C   UNL     1       1.503  -2.548   2.473  0.00  0.00    +0.019 C 
BRANCH  29  30
ATOM     30  C   UNL     1       0.763  -2.041   1.233  0.00  0.00    +0.002 C 
BRANCH  30  31
ATOM     31  C   UNL     1       0.742  -0.511   1.242  0.00  0.00    -0.000 C 
BRANCH  31  33
ATOM     32  C   UNL     1      -0.019   1.526   0.010  0.00  0.00    +0.004 C 
ATOM     33  C   UNL     1       0.002  -0.004   0.002  0.00  0.00    -0.003 C 
ENDBRANCH  31  33
ENDBRANCH  30  31
ENDBRANCH  29  30
ENDBRANCH  28  29
ENDBRANCH   1  28
TORSDOF 8
