REMARK  Name = ZINC08843865
REMARK  8 active torsions:
REMARK  status: ('A' for Active; 'I' for Inactive)
REMARK    1  A    between atoms: C_1  and  C_2
REMARK    2  A    between atoms: C_4  and  C_28
REMARK    3  A    between atoms: C_6  and  N_8
REMARK    4  A    between atoms: C_9  and  C_11
REMARK    5  A    between atoms: C_12  and  C_27
REMARK    6  A    between atoms: C_17  and  C_19
REMARK    7  A    between atoms: C_23  and  O_25
REMARK    8  A    between atoms: O_25  and  C_26
REMARK                            x       y       z     vdW  Elec       q    Type
REMARK                         _______ _______ _______ _____ _____    ______ ____
ROOT
ATOM      1  C   UNL     1       2.328   1.104   1.165  0.00  0.00    +0.056 C 
ATOM      2  C   UNL     1       3.196   0.074   1.081  0.00  0.00    +0.017 C 
ATOM      3  N   UNL     1       2.935  -1.006   0.287  0.00  0.00    -0.300 N 
ATOM      4  C   UNL     1       1.828  -1.131  -0.455  0.00  0.00    +0.135 C 
ATOM      5  S   UNL     1       1.624  -2.539  -1.408  0.00  0.00    -0.019 S 
ATOM      6  N   UNL     1       0.868  -0.185  -0.476  0.00  0.00    -0.315 N 
ATOM      7  C   UNL     1       1.055   1.021   0.348  0.00  0.00    +0.139 C 
ATOM      8  C   UNL     1       4.476   0.116   1.877  0.00  0.00    +0.061 C 
ATOM      9  H   UNL     1       3.588  -1.722   0.259  0.00  0.00    +0.154 HD
ATOM     10  H   UNL     1       0.073  -0.296  -1.022  0.00  0.00    +0.149 HD
ENDROOT
BRANCH   7  11
ATOM     11  C   UNL     1      -0.113   1.122   1.295  0.00  0.00    -0.019 A 
ATOM     12  C   UNL     1      -0.511   0.014   2.021  0.00  0.00    +0.006 A 
ATOM     13  C   UNL     1      -1.585   0.102   2.887  0.00  0.00    +0.004 A 
ATOM     14  C   UNL     1      -2.257   1.300   3.038  0.00  0.00    +0.045 A 
ATOM     15  C   UNL     1      -1.859   2.412   2.311  0.00  0.00    +0.120 A 
ATOM     16  C   UNL     1      -0.784   2.320   1.438  0.00  0.00    +0.051 A 
BRANCH  15  17
ATOM     17  O   UNL     1      -2.522   3.590   2.453  0.00  0.00    -0.495 OA
ATOM     18  C   UNL     1      -3.618   3.612   3.369  0.00  0.00    +0.277 C 
ENDBRANCH  15  17
ENDBRANCH   7  11
BRANCH   1  20
ATOM     19  N   UNL     1       2.285   2.188   3.299  0.00  0.00    -0.282 N 
ATOM     20  C   UNL     1       2.598   2.224   1.988  0.00  0.00    +0.248 C 
ATOM     21  O   UNL     1       3.113   3.220   1.512  0.00  0.00    -0.270 OA
ATOM     22  H   UNL     1       1.970   1.363   3.700  0.00  0.00    +0.155 HD
BRANCH  19  28
ATOM     23  C   UNL     1       4.760   6.286   4.418  0.00  0.00    +0.044 C 
ATOM     24  C   UNL     1       3.605   5.345   4.644  0.00  0.00    -0.048 A 
ATOM     25  C   UNL     1       2.672   5.621   5.627  0.00  0.00    +0.006 A 
ATOM     26  C   UNL     1       1.611   4.760   5.838  0.00  0.00    -0.048 A 
ATOM     27  C   UNL     1       1.480   3.621   5.068  0.00  0.00    +0.026 A 
ATOM     28  C   UNL     1       2.415   3.341   4.080  0.00  0.00    +0.034 A 
ATOM     29  C   UNL     1       3.482   4.205   3.874  0.00  0.00    +0.026 A 
ATOM     30  C   UNL     1       0.596   5.064   6.910  0.00  0.00    +0.044 C 
ENDBRANCH  19  28
ENDBRANCH   1  20
TORSDOF 4
