REMARK  Name = ZINC36270785
REMARK  7 active torsions:
REMARK  status: ('A' for Active; 'I' for Inactive)
REMARK    1  A    between atoms: C_1  and  C_2
REMARK    2  A    between atoms: C_5  and  C_9
REMARK    3  A    between atoms: C_7  and  C_8
REMARK    4  A    between atoms: C_10  and  C_19
REMARK    5  A    between atoms: C_13  and  N_18
REMARK    6  A    between atoms: C_19  and  N_20
REMARK    7  A    between atoms: C_23  and  C_26
REMARK                            x       y       z     vdW  Elec       q    Type
REMARK                         _______ _______ _______ _____ _____    ______ ____
ROOT
ATOM      1  C   UNL     1       0.232  -4.276  -0.174  0.00  0.00    +0.091 A 
ATOM      2  C   UNL     1      -0.638  -5.059  -0.872  0.00  0.00    +0.035 A 
ATOM      3  N   UNL     1      -0.509  -6.331  -0.389  0.00  0.00    -0.303 N 
ATOM      4  C   UNL     1      -1.128  -7.506  -0.716  0.00  0.00    +0.115 A 
ATOM      5  C   UNL     1      -0.809  -8.654  -0.069  0.00  0.00    +0.041 A 
ATOM      6  C   UNL     1       0.164  -8.646   0.950  0.00  0.00    +0.028 A 
ATOM      7  C   UNL     1       0.783  -7.482   1.280  0.00  0.00    +0.048 A 
ATOM      8  C   UNL     1       0.441  -6.296   0.598  0.00  0.00    +0.138 A 
ATOM      9  N   UNL     1       0.880  -5.050   0.709  0.00  0.00    -0.228 NA
ENDROOT
BRANCH   1  14
ATOM     10  C   UNL     1       1.007   1.384  -0.908  0.00  0.00    +0.044 C 
ATOM     11  C   UNL     1       0.804  -0.097  -0.716  0.00  0.00    -0.047 A 
ATOM     12  C   UNL     1       0.690  -0.926  -1.818  0.00  0.00    +0.004 A 
ATOM     13  C   UNL     1       0.505  -2.283  -1.648  0.00  0.00    +0.010 A 
ATOM     14  C   UNL     1       0.432  -2.818  -0.363  0.00  0.00    +0.002 A 
ATOM     15  C   UNL     1       0.547  -1.978   0.743  0.00  0.00    +0.013 A 
ATOM     16  C   UNL     1       0.738  -0.624   0.561  0.00  0.00    -0.047 A 
ATOM     17  C   UNL     1       0.868   0.285   1.757  0.00  0.00    +0.044 C 
ENDBRANCH   1  14
BRANCH   5  18
ATOM     18  N   UNL     1      -1.451  -9.852  -0.414  0.00  0.00    -0.357 N 
ATOM     19  H   UNL     1      -2.121  -9.858  -1.115  0.00  0.00    +0.142 HD
ATOM     20  H   UNL     1      -1.224 -10.674   0.048  0.00  0.00    +0.142 HD
ENDBRANCH   5  18
BRANCH   2  21
ATOM     21  C   UNL     1      -1.568  -4.608  -1.969  0.00  0.00    -0.022 C 
BRANCH  21  22
ATOM     22  N   UNL     1      -2.905  -4.365  -1.409  0.00  0.00    +0.383 N 
ATOM     23  C   UNL     1      -2.840  -3.248  -0.459  0.00  0.00    -0.078 C 
ATOM     24  C   UNL     1      -4.212  -3.043   0.187  0.00  0.00    -0.004 C 
ATOM     25  C   UNL     1      -5.242  -2.731  -0.902  0.00  0.00    +0.099 C 
ATOM     26  C   UNL     1      -5.247  -3.868  -1.928  0.00  0.00    -0.004 C 
ATOM     27  C   UNL     1      -3.837  -4.042  -2.496  0.00  0.00    -0.078 C 
ATOM     28  H   UNL     1      -3.223  -5.194  -0.930  0.00  0.00    -0.081 HD
BRANCH  25  29
ATOM     29  C   UNL     1      -6.609  -2.605  -0.282  0.00  0.00    +0.359 C 
ATOM     30  O   UNL     1      -7.376  -1.738  -0.666  0.00  0.00    -0.246 OA
ATOM     31  O   UNL     1      -6.949  -3.370   0.605  0.00  0.00    -0.246 OA
ENDBRANCH  25  29
ENDBRANCH  21  22
ENDBRANCH   2  21
TORSDOF 5
