REMARK  Name = ZINC51067635
REMARK  4 active torsions:
REMARK  status: ('A' for Active; 'I' for Inactive)
REMARK    1  A    between atoms: CA_3  and  C_17
REMARK    2  A    between atoms: C_5  and  S_7
REMARK    3  A    between atoms: S_7  and  C_8
REMARK    4  A    between atoms: C_14  and  N_16
REMARK                            x       y       z     vdW  Elec       q    Type
REMARK                         _______ _______ _______ _____ _____    ______ ____
ROOT
ATOM      1  C   UNL     1       2.974  -3.076   0.855  0.00  0.00    +0.177 A 
ATOM      2  N   UNL     1       3.253  -4.336   1.291  0.00  0.00    -0.302 N 
ATOM      3  H   UNL     1       2.580  -5.032   1.220  0.00  0.00    +0.171 HD
ATOM      4  C   UNL     1       4.462  -4.619   1.819  0.00  0.00    +0.254 A 
ATOM      5  O   UNL     1       4.720  -5.746   2.211  0.00  0.00    -0.268 OA
ATOM      6  C   UNL     1       5.415  -3.599   1.909  0.00  0.00    +0.113 A 
ATOM      7  C   UNL     1       5.081  -2.332   1.452  0.00  0.00    +0.124 A 
ATOM      8  N   UNL     1       3.868  -2.112   0.932  0.00  0.00    -0.208 NA
ENDROOT
BRANCH   7   9
ATOM      9  N   UNL     1       5.999  -1.304   1.527  0.00  0.00    -0.343 N 
ATOM     10  H   UNL     1       6.911  -1.488   1.803  0.00  0.00    +0.144 HD
ATOM     11  H   UNL     1       5.733  -0.398   1.304  0.00  0.00    +0.144 HD
ENDBRANCH   7   9
BRANCH   1  12
ATOM     12  S   UNL     1       1.389  -2.731   0.168  0.00  0.00    -0.032 S 
BRANCH  12  17
ATOM     13  C   UNL     1       0.521   0.886  -1.355  0.00  0.00    +0.005 A 
ATOM     14  C   UNL     1       1.777   1.476  -1.357  0.00  0.00    +0.035 A 
ATOM     15  CA  UNL     1       2.869   0.751  -0.888  0.00  0.00    +0.153 A 
ATOM     16  N   UNL     1       2.716  -0.492  -0.445  0.00  0.00    -0.233 NA
ATOM     17  C   UNL     1       1.534  -1.080  -0.431  0.00  0.00    +0.105 A 
ATOM     18  C   UNL     1       0.399  -0.409  -0.885  0.00  0.00    +0.035 A 
BRANCH  15  19
ATOM     19  C   UNL     1       4.213   1.370  -0.886  0.00  0.00    +0.404 C 
ATOM     20  O   UNL     1       4.341   2.554  -1.159  0.00  0.00    -0.239 OA
ATOM     21  OXT UNL     1       5.196   0.696  -0.610  0.00  0.00    -0.239 OA
ENDBRANCH  15  19
ENDBRANCH  12  17
ENDBRANCH   1  12
TORSDOF 4
