REMARK  Name = ZINC67470619
REMARK  6 active torsions:
REMARK  status: ('A' for Active; 'I' for Inactive)
REMARK    1  A    between atoms: C_1  and  C_2
REMARK    2  A    between atoms: C_2  and  C_3
REMARK    3  A    between atoms: C_2  and  C_4
REMARK    4  A    between atoms: C_2  and  N_12
REMARK    5  A    between atoms: C_4  and  C_5
REMARK    6  A    between atoms: C_19  and  C_22
REMARK                            x       y       z     vdW  Elec       q    Type
REMARK                         _______ _______ _______ _____ _____    ______ ____
ROOT
ATOM      1  N   UNL     1       0.688  -0.476  -1.203  0.00  0.00    -0.294 N 
ATOM      2  C   UNL     1       1.972  -0.132  -1.427  0.00  0.00    +0.303 C 
ATOM      3  O   UNL     1       2.533   0.643  -0.677  0.00  0.00    -0.253 OA
ATOM      4  N   UNL     1       2.633  -0.647  -2.482  0.00  0.00    -0.280 N 
ATOM      5  C   UNL     1       1.945  -1.496  -3.467  0.00  0.00    +0.137 C 
ATOM      6  C   UNL     1       2.764  -2.777  -3.659  0.00  0.00    +0.180 C 
ATOM      7  O   UNL     1       4.118  -2.430  -3.956  0.00  0.00    -0.364 OA
ATOM      8  C   UNL     1       4.782  -1.714  -2.912  0.00  0.00    +0.221 C 
ATOM      9  C   UNL     1       4.065  -0.373  -2.686  0.00  0.00    +0.150 C 
ATOM     10  H   UNL     1       0.218  -1.037  -1.841  0.00  0.00    +0.151 HD
ENDROOT
BRANCH   8  11
ATOM     11  C   UNL     1       6.213  -1.458  -3.308  0.00  0.00    +0.241 C 
ATOM     12  O   UNL     1       6.601  -1.768  -4.415  0.00  0.00    -0.273 OA
ATOM     13  N   UNL     1       7.062  -0.883  -2.433  0.00  0.00    -0.327 N 
ATOM     14  H   UNL     1       6.752  -0.635  -1.548  0.00  0.00    +0.145 HD
ATOM     15  H   UNL     1       7.983  -0.718  -2.688  0.00  0.00    +0.145 HD
ENDBRANCH   8  11
BRANCH   1  17
ATOM     16  C   UNL     1      -0.018   1.526   0.011  0.00  0.00    +0.031 C 
ATOM     17  C   UNL     1       0.002  -0.004   0.002  0.00  0.00    +0.034 C 
ATOM     18  C   UNL     1       0.742  -0.512   1.242  0.00  0.00    +0.031 C 
BRANCH  17  19
ATOM     19  C   UNL     1      -1.433  -0.534   0.013  0.00  0.00    +0.060 C 
BRANCH  19  20
ATOM     20  C   UNL     1      -2.139  -0.048   1.253  0.00  0.00    -0.045 A 
ATOM     21  C   UNL     1      -2.093  -0.799   2.413  0.00  0.00    +0.005 A 
ATOM     22  C   UNL     1      -2.739  -0.354   3.551  0.00  0.00    +0.015 A 
ATOM     23  C   UNL     1      -3.432   0.843   3.529  0.00  0.00    +0.018 A 
ATOM     24  C   UNL     1      -3.477   1.594   2.368  0.00  0.00    +0.015 A 
ATOM     25  C   UNL     1      -2.826   1.151   1.232  0.00  0.00    +0.005 A 
ATOM     26 BR   UNL     1      -4.317   1.453   5.085  0.00  0.00    -0.050 Br
ENDBRANCH  19  20
ENDBRANCH  17  19
ENDBRANCH   1  17
TORSDOF 4
