REMARK  Name = ZINC32125053
REMARK  7 active torsions:
REMARK  status: ('A' for Active; 'I' for Inactive)
REMARK    1  A    between atoms: C_1  and  O_2
REMARK    2  A    between atoms: O_2  and  C_3
REMARK    3  A    between atoms: C_6  and  C_10
REMARK    4  A    between atoms: N_12  and  C_13
REMARK    5  A    between atoms: C_13  and  N_15
REMARK    6  A    between atoms: N_15  and  C_16
REMARK    7  A    between atoms: C_17  and  C_26
REMARK                            x       y       z     vdW  Elec       q    Type
REMARK                         _______ _______ _______ _____ _____    ______ ____
ROOT
ATOM      1  N   UNL     1       5.967   1.804  -0.046  0.00  0.00    -0.291 N 
ATOM      2  H   UNL     1       5.950   2.904  -0.040  0.00  0.00    +0.154 HD
ENDROOT
BRANCH   1   3
ATOM      3  C   UNL     1       7.178   1.130  -0.062  0.00  0.00    +0.084 A 
ATOM      4  C   UNL     1       8.459   1.660  -0.077  0.00  0.00    +0.068 A 
ATOM      5  C   UNL     1       9.578   0.727  -0.084  0.00  0.00    -0.023 A 
ATOM      6  C   UNL     1       9.231  -0.578  -0.093  0.00  0.00    -0.004 A 
ATOM      7  S   UNL     1       7.459  -0.579  -0.075  0.00  0.00    -0.077 S 
ATOM      8  C   UNL     1      10.140  -1.766  -0.126  0.00  0.00    +0.043 C 
ATOM      9  C   UNL     1      11.229  -1.602   0.943  0.00  0.00    +0.005 C 
ATOM     10  C   UNL     1      12.410  -0.864   0.319  0.00  0.00    +0.001 C 
ATOM     11  C   UNL     1      11.914   0.130  -0.729  0.00  0.00    +0.005 C 
ATOM     12  C   UNL     1      11.030   1.190  -0.081  0.00  0.00    +0.037 C 
BRANCH   4  13
ATOM     13  C   UNL     1       8.680   3.109  -0.082  0.00  0.00    +0.244 C 
ATOM     14  O   UNL     1       8.784   3.712   0.971  0.00  0.00    -0.270 OA
ATOM     15  N   UNL     1       8.768   3.773  -1.251  0.00  0.00    -0.325 N 
ATOM     16  H   UNL     1       8.934   4.861  -1.254  0.00  0.00    +0.145 HD
ATOM     17  H   UNL     1       8.674   3.228  -2.202  0.00  0.00    +0.145 HD
ENDBRANCH   4  13
ENDBRANCH   1   3
BRANCH   1  18
ATOM     18  C   UNL     1       4.811   1.112  -0.039  0.00  0.00    +0.141 C 
ATOM     19  S   UNL     1       4.838  -0.600  -0.049  0.00  0.00    -0.018 S 
BRANCH  18  22
ATOM     20  C   UNL     1       2.477   1.075  -0.016  0.00  0.00    +0.250 C 
ATOM     21  O   UNL     1       2.496  -0.141  -0.024  0.00  0.00    -0.270 OA
ATOM     22  N   UNL     1       3.633   1.767  -0.024  0.00  0.00    -0.264 N 
ATOM     23  H   UNL     1       3.616   2.867  -0.017  0.00  0.00    +0.157 HD
BRANCH  20  27
ATOM     24  C   UNL     1      -1.235   3.140   0.031  0.00  0.00    +0.157 A 
ATOM     25  C   UNL     1      -1.215   1.750   0.017  0.00  0.00    +0.085 A 
ATOM     26  C   UNL     1      -0.013   1.076   0.008  0.00  0.00    +0.036 A 
ATOM     27  C   UNL     1       1.188   1.792   0.000  0.00  0.00    +0.040 A 
ATOM     28  C   UNL     1       1.164   3.189   0.008  0.00  0.00    +0.036 A 
ATOM     29  C   UNL     1      -0.043   3.856   0.023  0.00  0.00    +0.085 A 
ATOM     30 CL   UNL     1      -0.074   5.592   0.033  0.00  0.00    -0.080 Cl
ATOM     31 CL   UNL     1      -2.706   0.861   0.019  0.00  0.00    -0.080 Cl
BRANCH  24  33
ATOM     32  C   UNL     1      -3.000   4.122  -1.219  0.00  0.00    +0.277 C 
ATOM     33  O   UNL     1      -2.421   3.800   0.047  0.00  0.00    -0.492 OA
ENDBRANCH  24  33
ENDBRANCH  20  27
ENDBRANCH  18  22
ENDBRANCH   1  18
TORSDOF 6
