REMARK  Name = ZINC06396014
REMARK  5 active torsions:
REMARK  status: ('A' for Active; 'I' for Inactive)
REMARK    1  A    between atoms: C_1  and  C_2
REMARK    2  A    between atoms: C_2  and  N_3
REMARK    3  A    between atoms: C_6  and  C_8
REMARK    4  A    between atoms: C_13  and  C_26
REMARK    5  A    between atoms: C_15  and  C_23
REMARK                            x       y       z     vdW  Elec       q    Type
REMARK                         _______ _______ _______ _____ _____    ______ ____
ROOT
ATOM      1  C   UNL     1       0.002  -0.004   0.002  0.00  0.00    +0.210 C 
ATOM      2  N   UNL     1      -0.018   1.459   0.010  0.00  0.00    -0.319 N 
ATOM      3  C   UNL     1       1.284   1.987   0.001  0.00  0.00    +0.058 A 
ATOM      4  C   UNL     1       1.684   3.242   0.606  0.00  0.00    +0.032 A 
ATOM      5  C   UNL     1       0.852   4.132   1.335  0.00  0.00    -0.037 A 
ATOM      6  C   UNL     1       1.463   5.278   1.809  0.00  0.00    +0.033 A 
ATOM      7  C   UNL     1       2.803   5.542   1.587  0.00  0.00    +0.108 A 
ATOM      8  N   UNL     1       3.585   4.712   0.908  0.00  0.00    -0.239 NA
ATOM      9  C   UNL     1       3.048   3.607   0.439  0.00  0.00    +0.111 A 
ATOM     10  S   UNL     1       3.738   2.270  -0.490  0.00  0.00    -0.062 S 
ATOM     11  C   UNL     1       2.291   1.269  -0.640  0.00  0.00    +0.097 A 
ATOM     12  C   UNL     1       2.091   0.024  -1.264  0.00  0.00    +0.254 C 
ATOM     13  O   UNL     1       2.937  -0.496  -1.968  0.00  0.00    -0.270 OA
ATOM     14  N   UNL     1       0.884  -0.557  -1.023  0.00  0.00    -0.287 N 
ATOM     15  C   UNL     1      -0.608   3.844   1.577  0.00  0.00    +0.044 C 
ATOM     16  H   UNL     1      -0.559   1.818  -0.762  0.00  0.00    +0.148 HD
ATOM     17  H   UNL     1       0.610  -1.336  -1.532  0.00  0.00    +0.151 HD
ENDROOT
BRANCH   1  21
ATOM     18  N   UNL     1      -3.584  -0.693  -0.297  0.00  0.00    -0.271 N 
ATOM     19  C   UNL     1      -3.089  -1.791  -0.906  0.00  0.00    +0.108 A 
ATOM     20  C   UNL     1      -1.739  -1.701  -0.885  0.00  0.00    +0.048 A 
ATOM     21  C   UNL     1      -1.397  -0.507  -0.242  0.00  0.00    +0.101 A 
ATOM     22  N   UNL     1      -2.502   0.095   0.116  0.00  0.00    -0.173 NA
BRANCH  18  24
ATOM     23  C   UNL     1      -5.266  -0.135   1.388  0.00  0.00    +0.029 C 
ATOM     24  C   UNL     1      -5.002  -0.383  -0.099  0.00  0.00    +0.140 C 
ENDBRANCH  18  24
ENDBRANCH   1  21
BRANCH   7  25
ATOM     25  C   UNL     1       3.394   6.815   2.134  0.00  0.00    +0.390 C 
ATOM     26  F   UNL     1       4.439   7.238   1.306  0.00  0.00    -0.202 F 
ATOM     27  F   UNL     1       2.407   7.805   2.182  0.00  0.00    -0.202 F 
ENDBRANCH   7  25
TORSDOF 3
