REMARK  Name = ZINC08843905
REMARK  6 active torsions:
REMARK  status: ('A' for Active; 'I' for Inactive)
REMARK    1  A    between atoms: C_1  and  C_2
REMARK    2  A    between atoms: C_3  and  C_18
REMARK    3  A    between atoms: C_4  and  C_10
REMARK    4  A    between atoms: C_14  and  O_16
REMARK    5  A    between atoms: O_16  and  C_17
REMARK    6  A    between atoms: N_20  and  C_21
REMARK                            x       y       z     vdW  Elec       q    Type
REMARK                         _______ _______ _______ _____ _____    ______ ____
ROOT
ATOM      1  C   UNL     1      -4.626   1.866  -2.484  0.00  0.00    +0.061 C 
ATOM      2  C   UNL     1      -3.916   1.736  -1.161  0.00  0.00    +0.017 C 
ATOM      3  C   UNL     1      -2.736   1.084  -1.103  0.00  0.00    +0.056 C 
ATOM      4  C   UNL     1      -2.055   0.977   0.247  0.00  0.00    +0.139 C 
ATOM      5  N   UNL     1      -2.743   1.596   1.392  0.00  0.00    -0.315 N 
ATOM      6  C   UNL     1      -3.921   2.214   1.175  0.00  0.00    +0.135 C 
ATOM      7  S   UNL     1      -4.733   2.938   2.497  0.00  0.00    -0.019 S 
ATOM      8  N   UNL     1      -4.478   2.279  -0.042  0.00  0.00    -0.300 N 
ATOM      9  H   UNL     1      -2.358   1.561   2.281  0.00  0.00    +0.149 HD
ATOM     10  H   UNL     1      -5.328   2.738  -0.132  0.00  0.00    +0.154 HD
ENDROOT
BRANCH   4  11
ATOM     11  C   UNL     1      -0.690   1.604   0.130  0.00  0.00    -0.019 A 
ATOM     12  C   UNL     1      -0.514   2.939   0.444  0.00  0.00    +0.006 A 
ATOM     13  C   UNL     1       0.736   3.519   0.332  0.00  0.00    +0.004 A 
ATOM     14  C   UNL     1       1.814   2.764  -0.087  0.00  0.00    +0.045 A 
ATOM     15  C   UNL     1       1.641   1.423  -0.397  0.00  0.00    +0.120 A 
ATOM     16  C   UNL     1       0.386   0.843  -0.284  0.00  0.00    +0.051 A 
BRANCH  15  17
ATOM     17  O   UNL     1       2.701   0.678  -0.809  0.00  0.00    -0.495 OA
ATOM     18  C   UNL     1       3.963   1.340  -0.901  0.00  0.00    +0.277 C 
ENDBRANCH  15  17
ENDBRANCH   4  11
BRANCH   3  19
ATOM     19  C   UNL     1      -2.152   0.521  -2.264  0.00  0.00    +0.248 C 
ATOM     20  O   UNL     1      -1.977  -0.682  -2.335  0.00  0.00    -0.270 OA
ATOM     21  N   UNL     1      -1.790   1.316  -3.290  0.00  0.00    -0.282 N 
ATOM     22  H   UNL     1      -2.028   2.256  -3.282  0.00  0.00    +0.155 HD
BRANCH  21  23
ATOM     23  C   UNL     1      -1.072   0.785  -4.368  0.00  0.00    +0.034 A 
ATOM     24  C   UNL     1      -1.216  -0.554  -4.707  0.00  0.00    +0.026 A 
ATOM     25  C   UNL     1      -0.510  -1.075  -5.774  0.00  0.00    +0.040 A 
ATOM     26  C   UNL     1       0.349  -0.266  -6.498  0.00  0.00    +0.124 A 
ATOM     27  C   UNL     1       0.498   1.068  -6.158  0.00  0.00    +0.040 A 
ATOM     28  C   UNL     1      -0.210   1.595  -5.095  0.00  0.00    +0.026 A 
ATOM     29  F   UNL     1       1.043  -0.779  -7.537  0.00  0.00    -0.205 F 
ENDBRANCH  21  23
ENDBRANCH   3  19
TORSDOF 4
