REMARK  Name = ZINC40735410
REMARK  9 active torsions:
REMARK  status: ('A' for Active; 'I' for Inactive)
REMARK    1  A    between atoms: C_1  and  C_2
REMARK    2  A    between atoms: C_2  and  O_3
REMARK    3  A    between atoms: O_3  and  C_4
REMARK    4  A    between atoms: C_9  and  N_10
REMARK    5  A    between atoms: C_12  and  N_29
REMARK    6  A    between atoms: C_13  and  N_17
REMARK    7  A    between atoms: C_19  and  C_28
REMARK    8  A    between atoms: C_24  and  C_26
REMARK    9  A    between atoms: C_24  and  C_27
REMARK                            x       y       z     vdW  Elec       q    Type
REMARK                         _______ _______ _______ _____ _____    ______ ____
ROOT
ATOM      1  N   UNL     1       2.799  -1.838   3.022  0.00  0.00    -0.295 N 
ATOM      2  C   UNL     1       2.972  -2.200   4.352  0.00  0.00    +0.149 A 
ATOM      3  C   UNL     1       2.865  -1.246   5.366  0.00  0.00    +0.106 A 
ATOM      4  C   UNL     1       3.047  -1.663   6.686  0.00  0.00    +0.147 A 
ATOM      5  N   UNL     1       3.315  -2.945   6.926  0.00  0.00    -0.219 NA
ATOM      6  C   UNL     1       3.408  -3.814   5.939  0.00  0.00    +0.225 A 
ATOM      7  N   UNL     1       3.237  -3.463   4.681  0.00  0.00    -0.219 NA
ATOM      8  H   UNL     1       2.511  -0.940   2.797  0.00  0.00    +0.154 HD
ENDROOT
BRANCH   4   9
ATOM      9  N   UNL     1       2.952  -0.754   7.733  0.00  0.00    -0.310 N 
ATOM     10  C   UNL     1       2.841   0.706   7.598  0.00  0.00    +0.113 C 
ATOM     11  C   UNL     1       2.818   1.276   9.036  0.00  0.00    -0.014 C 
ATOM     12  C   UNL     1       2.204   0.103   9.845  0.00  0.00    +0.030 C 
ATOM     13  C   UNL     1       2.932  -1.086   9.172  0.00  0.00    +0.076 C 
ATOM     14  C   UNL     1       4.364  -1.100   9.702  0.00  0.00    +0.029 C 
ATOM     15  C   UNL     1       5.104   0.211   9.511  0.00  0.00    -0.033 C 
ATOM     16  C   UNL     1       4.254   1.467   9.517  0.00  0.00    +0.014 C 
ATOM     17  C   UNL     1       5.937   0.150   8.221  0.00  0.00    +0.011 C 
ATOM     18  C   UNL     1       6.116   0.337  10.678  0.00  0.00    +0.011 C 
ATOM     19  C   UNL     1       1.982   2.561   9.139  0.00  0.00    +0.013 C 
ENDBRANCH   4   9
BRANCH   1  25
ATOM     20  C   UNL     1       2.461  -2.601   0.750  0.00  0.00    +0.142 A 
ATOM     21  C   UNL     1       2.708  -3.524  -0.253  0.00  0.00    +0.047 A 
ATOM     22  C   UNL     1       3.523  -4.613  -0.006  0.00  0.00    +0.004 A 
ATOM     23  C   UNL     1       4.094  -4.785   1.242  0.00  0.00    +0.002 A 
ATOM     24  C   UNL     1       3.853  -3.869   2.248  0.00  0.00    +0.027 A 
ATOM     25  C   UNL     1       3.041  -2.771   2.005  0.00  0.00    +0.075 A 
BRANCH  20  26
ATOM     26  O   UNL     1       1.659  -1.530   0.508  0.00  0.00    -0.490 OA
BRANCH  26  28
ATOM     27  C   UNL     1       0.233  -0.162  -0.884  0.00  0.00    +0.048 C 
ATOM     28  C   UNL     1       1.100  -1.421  -0.802  0.00  0.00    +0.226 C 
ENDBRANCH  26  28
ENDBRANCH  20  26
ENDBRANCH   1  25
BRANCH   3  29
ATOM     29  N   UNL     1       2.581   0.096   5.067  0.00  0.00    -0.353 N 
ATOM     30  H   UNL     1       2.054   0.317   4.283  0.00  0.00    +0.143 HD
ATOM     31  H   UNL     1       2.912   0.802   5.644  0.00  0.00    +0.143 HD
ENDBRANCH   3  29
TORSDOF 5
