REMARK  Name = ZINC13131265
REMARK  5 active torsions:
REMARK  status: ('A' for Active; 'I' for Inactive)
REMARK    1  A    between atoms: C_1  and  C_2
REMARK    2  A    between atoms: C_5  and  C_8
REMARK    3  A    between atoms: C_11  and  C_20
REMARK    4  A    between atoms: C_24  and  O_26
REMARK    5  A    between atoms: O_26  and  C_27
REMARK                            x       y       z     vdW  Elec       q    Type
REMARK                         _______ _______ _______ _____ _____    ______ ____
ROOT
ATOM      1  C   UNL     1       0.059  -4.275  -0.021  0.00  0.00    +0.143 C 
ATOM      2  C   UNL     1       1.318  -4.777   0.697  0.00  0.00    +0.058 C 
ATOM      3  C   UNL     1       1.211  -6.288   0.935  0.00  0.00    +0.106 C 
ATOM      4  N   UNL     1       0.056  -6.545   1.817  0.00  0.00    -0.307 N 
ATOM      5  C   UNL     1      -1.104  -5.838   1.531  0.00  0.00    +0.216 A 
ATOM      6  N   UNL     1      -1.121  -4.785   0.677  0.00  0.00    -0.224 N 
ATOM      7  N   UNL     1      -2.438  -4.329   0.627  0.00  0.00    -0.132 NA
ATOM      8  C   UNL     1      -3.138  -5.102   1.427  0.00  0.00    +0.233 A 
ATOM      9  N   UNL     1      -2.319  -6.016   1.979  0.00  0.00    -0.180 NA
ATOM     10  N   UNL     1      -4.508  -4.988   1.670  0.00  0.00    -0.326 N 
ATOM     11  H   UNL     1       0.105  -7.172   2.555  0.00  0.00    +0.149 HD
ATOM     12  H   UNL     1      -5.022  -4.293   1.231  0.00  0.00    +0.145 HD
ATOM     13  H   UNL     1      -4.945  -5.604   2.279  0.00  0.00    +0.145 HD
ENDROOT
BRANCH   1  18
ATOM     14  C   UNL     1      -0.018   1.503   0.010  0.00  0.00    +0.044 C 
ATOM     15  C   UNL     1       0.002  -0.004   0.002  0.00  0.00    -0.050 A 
ATOM     16  C   UNL     1       0.006  -0.689  -1.199  0.00  0.00    +0.004 A 
ATOM     17  C   UNL     1       0.025  -2.071  -1.206  0.00  0.00    +0.006 A 
ATOM     18  C   UNL     1       0.040  -2.768  -0.013  0.00  0.00    -0.023 A 
ATOM     19  C   UNL     1       0.037  -2.084   1.188  0.00  0.00    +0.006 A 
ATOM     20  C   UNL     1       0.023  -0.702   1.195  0.00  0.00    +0.004 A 
ENDBRANCH   1  18
BRANCH   3  21
ATOM     21  C   UNL     1       1.013  -6.994  -0.382  0.00  0.00    -0.024 A 
ATOM     22  C   UNL     1      -0.240  -7.028  -0.966  0.00  0.00    +0.006 A 
ATOM     23  C   UNL     1      -0.424  -7.675  -2.174  0.00  0.00    +0.004 A 
ATOM     24  C   UNL     1       0.643  -8.290  -2.800  0.00  0.00    +0.045 A 
ATOM     25  C   UNL     1       1.901  -8.258  -2.215  0.00  0.00    +0.120 A 
ATOM     26  C   UNL     1       2.085  -7.602  -1.006  0.00  0.00    +0.051 A 
BRANCH  25  27
ATOM     27  O   UNL     1       2.952  -8.862  -2.829  0.00  0.00    -0.495 OA
ATOM     28  C   UNL     1       2.691  -9.512  -4.074  0.00  0.00    +0.277 C 
ENDBRANCH  25  27
ENDBRANCH   3  21
TORSDOF 3
