REMARK  Name = ZINC67063837
REMARK  6 active torsions:
REMARK  status: ('A' for Active; 'I' for Inactive)
REMARK    1  A    between atoms: C_5  and  C_6
REMARK    2  A    between atoms: C_6  and  N_7
REMARK    3  A    between atoms: N_10  and  N_11
REMARK    4  A    between atoms: C_12  and  C_14
REMARK    5  A    between atoms: C_14  and  C_15
REMARK    6  A    between atoms: C_15  and  C_16
REMARK                            x       y       z     vdW  Elec       q    Type
REMARK                         _______ _______ _______ _____ _____    ______ ____
ROOT
ATOM      1  N   UNL     1      -1.544  -1.274  -1.371  0.00  0.00    -0.294 N 
ATOM      2  C   UNL     1      -2.565  -2.121  -1.611  0.00  0.00    +0.316 C 
ATOM      3  O   UNL     1      -3.163  -2.632  -0.684  0.00  0.00    -0.251 OA
ATOM      4  N   UNL     1      -2.923  -2.402  -2.880  0.00  0.00    -0.218 N 
ATOM      5  H   UNL     1      -1.067  -0.867  -2.111  0.00  0.00    +0.151 HD
ATOM      6  H   UNL     1      -3.657  -3.011  -3.054  0.00  0.00    +0.174 HD
ENDROOT
BRANCH   4   7
ATOM      7  N   UNL     1      -2.234  -1.813  -3.949  0.00  0.00    -0.233 N 
ATOM      8  C   UNL     1      -2.591  -2.094  -5.218  0.00  0.00    +0.229 C 
ATOM      9  O   UNL     1      -3.510  -2.856  -5.434  0.00  0.00    -0.274 OA
ATOM     10  H   UNL     1      -1.499  -1.204  -3.776  0.00  0.00    +0.173 HD
BRANCH   8  11
ATOM     11  C   UNL     1      -1.851  -1.461  -6.367  0.00  0.00    +0.097 C 
BRANCH  11  12
ATOM     12  C   UNL     1      -2.451  -1.944  -7.689  0.00  0.00    +0.013 C 
BRANCH  12  13
ATOM     13  C   UNL     1      -1.699  -1.301  -8.856  0.00  0.00    -0.011 C 
ATOM     14  C   UNL     1      -1.925   0.212  -8.837  0.00  0.00    +0.003 C 
ATOM     15  C   UNL     1      -1.173   0.855 -10.004  0.00  0.00    +0.000 C 
ATOM     16  C   UNL     1      -1.690   0.278 -11.323  0.00  0.00    +0.000 C 
ATOM     17  C   UNL     1      -1.464  -1.235 -11.342  0.00  0.00    +0.000 C 
ATOM     18  C   UNL     1      -2.216  -1.877 -10.175  0.00  0.00    +0.003 C 
ENDBRANCH  12  13
ENDBRANCH  11  12
ENDBRANCH   8  11
ENDBRANCH   4   7
BRANCH   1  19
ATOM     19  C   UNL     1      -1.156  -0.969   0.008  0.00  0.00    +0.148 C 
BRANCH  19  24
ATOM     20  C   UNL     1      -0.016   1.351   0.009  0.00  0.00    +0.028 A 
ATOM     21  C   UNL     1       1.184   2.038   0.002  0.00  0.00    +0.025 A 
ATOM     22  C   UNL     1       2.343   1.335  -0.013  0.00  0.00    +0.060 A 
ATOM     23  S   UNL     1       1.753  -0.350  -0.017  0.00  0.00    -0.099 S 
ATOM     24  C   UNL     1       0.002  -0.004   0.002  0.00  0.00    +0.008 A 
ATOM     25 BR   UNL     1       1.208   3.929   0.011  0.00  0.00    -0.050 Br
ENDBRANCH  19  24
ENDBRANCH   1  19
TORSDOF 6
