REMARK  Name = ZINC03327587
REMARK  7 active torsions:
REMARK  status: ('A' for Active; 'I' for Inactive)
REMARK    1  A    between atoms: C_1  and  C_2
REMARK    2  A    between atoms: C_8  and  N_10
REMARK    3  A    between atoms: C_11  and  C_13
REMARK    4  A    between atoms: C_13  and  S_14
REMARK    5  A    between atoms: S_14  and  C_15
REMARK    6  A    between atoms: C_18  and  C_21
REMARK    7  A    between atoms: N_19  and  N_20
REMARK                            x       y       z     vdW  Elec       q    Type
REMARK                         _______ _______ _______ _____ _____    ______ ____
ROOT
ATOM      1  S   UNL     1      -4.080   7.542  -0.323  0.00  0.00    -0.075 S 
ENDROOT
BRANCH   1   2
ATOM      2  C   UNL     1      -3.535   5.882  -0.092  0.00  0.00    +0.209 A 
ATOM      3  N   UNL     1      -4.283   4.857   0.249  0.00  0.00    -0.121 NA
ATOM      4  N   UNL     1      -3.566   3.794   0.330  0.00  0.00    -0.126 NA
ATOM      5  C   UNL     1      -2.313   4.075   0.046  0.00  0.00    +0.188 A 
ATOM      6  N   UNL     1      -2.255   5.423  -0.228  0.00  0.00    -0.223 N 
BRANCH   5   7
ATOM      7  C   UNL     1      -1.186   3.128   0.030  0.00  0.00    +0.058 A 
ATOM      8  C   UNL     1      -1.209   1.756   0.017  0.00  0.00    +0.019 A 
ATOM      9  C   UNL     1      -0.013   1.076   0.008  0.00  0.00    +0.008 A 
ATOM     10  C   UNL     1       1.149   1.779   0.001  0.00  0.00    +0.046 A 
ATOM     11  S   UNL     1       0.567   3.466   0.015  0.00  0.00    -0.093 S 
ENDBRANCH   5   7
BRANCH   6  12
ATOM     12  N   UNL     1      -1.149   6.149  -0.567  0.00  0.00    -0.295 N 
ATOM     13  H   UNL     1      -1.019   6.164  -1.568  0.00  0.00    +0.163 HD
ATOM     14  H   UNL     1      -1.203   7.086  -0.196  0.00  0.00    +0.163 HD
ENDBRANCH   6  12
ENDBRANCH   1   2
BRANCH   1  15
ATOM     15  C   UNL     1      -5.843   7.347   0.037  0.00  0.00    +0.173 C 
BRANCH  15  17
ATOM     16  N   UNL     1      -7.861   8.776   0.120  0.00  0.00    -0.312 N 
ATOM     17  C   UNL     1      -6.535   8.679  -0.102  0.00  0.00    +0.224 C 
ATOM     18  O   UNL     1      -5.898   9.663  -0.414  0.00  0.00    -0.275 OA
ATOM     19  H   UNL     1      -8.370   7.989   0.369  0.00  0.00    +0.149 HD
BRANCH  16  26
ATOM     20  C   UNL     1      -9.421   9.853   2.310  0.00  0.00    +0.009 C 
ATOM     21  C   UNL     1      -9.798  10.081   0.845  0.00  0.00    +0.006 C 
ATOM     22  C   UNL     1     -10.500  11.433   0.703  0.00  0.00    +0.005 C 
ATOM     23  C   UNL     1     -10.877  11.662  -0.762  0.00  0.00    +0.000 C 
ATOM     24  C   UNL     1      -9.612  11.652  -1.622  0.00  0.00    +0.002 C 
ATOM     25  C   UNL     1      -8.910  10.299  -1.480  0.00  0.00    +0.022 C 
ATOM     26  C   UNL     1      -8.533  10.071  -0.015  0.00  0.00    +0.076 C 
ENDBRANCH  16  26
ENDBRANCH  15  17
ENDBRANCH   1  15
TORSDOF 6
