REMARK  Name = ZINC00907929
REMARK  4 active torsions:
REMARK  status: ('A' for Active; 'I' for Inactive)
REMARK    1  A    between atoms: C_1  and  N_2
REMARK    2  A    between atoms: C_3  and  C_5
REMARK    3  A    between atoms: C_9  and  N_10
REMARK    4  A    between atoms: C_11  and  C_13
REMARK                            x       y       z     vdW  Elec       q    Type
REMARK                         _______ _______ _______ _____ _____    ______ ____
ROOT
ATOM      1  C   UNL     1      -1.228   3.967  -2.245  0.00  0.00    +0.069 A 
ATOM      2  C   UNL     1      -0.928   3.100  -1.118  0.00  0.00    -0.023 A 
ATOM      3  C   UNL     1      -0.814   3.724   0.074  0.00  0.00    -0.004 A 
ATOM      4  S   UNL     1      -1.097   5.435  -0.283  0.00  0.00    -0.077 S 
ATOM      5  C   UNL     1      -1.365   5.324  -1.991  0.00  0.00    +0.085 A 
ATOM      6  C   UNL     1      -0.514   3.094   1.399  0.00  0.00    +0.043 C 
ATOM      7  C   UNL     1      -0.726   1.578   1.271  0.00  0.00    +0.005 C 
ATOM      8  C   UNL     1      -0.013   1.086   0.008  0.00  0.00    +0.005 C 
ATOM      9  C   UNL     1      -0.749   1.591  -1.234  0.00  0.00    +0.037 C 
ENDROOT
BRANCH   1  12
ATOM     10  C   UNL     1      -0.461   2.791  -5.765  0.00  0.00    +0.128 C 
ATOM     11  N   UNL     1      -0.308   3.330  -4.411  0.00  0.00    -0.314 N 
ATOM     12  C   UNL     1      -1.380   3.428  -3.600  0.00  0.00    +0.246 C 
ATOM     13  O   UNL     1      -2.475   3.068  -3.992  0.00  0.00    -0.270 OA
ATOM     14  H   UNL     1       0.564   3.617  -4.098  0.00  0.00    +0.149 HD
ENDBRANCH   1  12
BRANCH   5  15
ATOM     15  N   UNL     1      -1.646   6.344  -2.887  0.00  0.00    -0.276 N 
ATOM     16  C   UNL     1      -1.741   7.616  -2.452  0.00  0.00    +0.262 C 
ATOM     17  O   UNL     1      -1.580   7.869  -1.277  0.00  0.00    -0.271 OA
ATOM     18  H   UNL     1      -1.774   6.142  -3.827  0.00  0.00    +0.155 HD
BRANCH  16  19
ATOM     19  C   UNL     1      -2.046   8.725  -3.426  0.00  0.00    +0.296 C 
ATOM     20  C   UNL     1      -0.885   8.877  -4.418  0.00  0.00    +0.283 C 
ATOM     21  O   UNL     1      -1.202   9.945  -5.317  0.00  0.00    -0.484 OA
ATOM     22  C   UNL     1      -1.680  11.092  -4.761  0.00  0.00    +0.162 A 
ATOM     23  C   UNL     1      -1.669  12.264  -5.503  0.00  0.00    +0.049 A 
ATOM     24  C   UNL     1      -2.158  13.435  -4.954  0.00  0.00    +0.004 A 
ATOM     25  C   UNL     1      -2.659  13.441  -3.666  0.00  0.00    +0.004 A 
ATOM     26  C   UNL     1      -2.671  12.277  -2.921  0.00  0.00    +0.049 A 
ATOM     27  C   UNL     1      -2.182  11.099  -3.465  0.00  0.00    +0.163 A 
ATOM     28  O   UNL     1      -2.198   9.961  -2.719  0.00  0.00    -0.473 OA
ENDBRANCH  16  19
ENDBRANCH   5  15
TORSDOF 3
