REMARK  Name = ZINC01241323
REMARK  8 active torsions:
REMARK  status: ('A' for Active; 'I' for Inactive)
REMARK    1  A    between atoms: C_1  and  C_2
REMARK    2  A    between atoms: C_3  and  C_31
REMARK    3  A    between atoms: C_4  and  C_26
REMARK    4  A    between atoms: C_6  and  C_24
REMARK    5  A    between atoms: C_7  and  S_9
REMARK    6  A    between atoms: S_9  and  C_10
REMARK    7  A    between atoms: C_10  and  C_11
REMARK    8  A    between atoms: N_13  and  C_14
REMARK                            x       y       z     vdW  Elec       q    Type
REMARK                         _______ _______ _______ _____ _____    ______ ____
ROOT
ATOM      1  C   UNL     1      -0.046  -4.328  -2.287  0.00  0.00    +0.061 C 
ATOM      2  C   UNL     1       0.546  -3.677  -1.063  0.00  0.00    +0.015 C 
ATOM      3  C   UNL     1       1.061  -2.441  -1.156  0.00  0.00    +0.046 C 
ATOM      4  C   UNL     1       1.672  -1.748   0.028  0.00  0.00    +0.134 C 
ATOM      5  C   UNL     1       1.270  -2.424   1.308  0.00  0.00    +0.072 C 
ATOM      6  C   UNL     1       0.739  -3.676   1.309  0.00  0.00    +0.080 C 
ATOM      7  N   UNL     1       0.549  -4.355   0.126  0.00  0.00    -0.312 N 
ATOM      8  H   UNL     1       0.399  -5.445   0.138  0.00  0.00    +0.152 HD
ENDROOT
BRANCH   4   9
ATOM      9  C   UNL     1       1.208  -0.315   0.057  0.00  0.00    +0.118 A 
ATOM     10  C   UNL     1       2.003   0.769   0.064  0.00  0.00    +0.045 A 
ATOM     11  C   UNL     1       1.155   1.900   0.093  0.00  0.00    +0.041 A 
ATOM     12  C   UNL     1      -0.109   1.439   0.102  0.00  0.00    +0.195 A 
ATOM     13  O   UNL     1      -0.071   0.096   0.081  0.00  0.00    -0.467 OA
ENDBRANCH   4   9
BRANCH   3  14
ATOM     14  C   UNL     1       1.028  -1.773  -2.404  0.00  0.00    +0.240 C 
ATOM     15  O   UNL     1       2.045  -1.668  -3.066  0.00  0.00    -0.271 OA
ATOM     16  N   UNL     1      -0.129  -1.253  -2.859  0.00  0.00    -0.326 N 
ATOM     17  H   UNL     1      -0.155  -0.734  -3.829  0.00  0.00    +0.145 HD
ATOM     18  H   UNL     1      -1.048  -1.349  -2.262  0.00  0.00    +0.145 HD
ENDBRANCH   3  14
BRANCH   5  19
ATOM     19  C   UNL     1       1.448  -1.737   2.552  0.00  0.00    +0.098 C 
ATOM     20  N   UNL     1       1.590  -1.191   3.538  0.00  0.00    -0.191 NA
ENDBRANCH   5  19
BRANCH   6  21
ATOM     21  S   UNL     1       0.290  -4.436   2.834  0.00  0.00    -0.100 S 
BRANCH  21  22
ATOM     22  C   UNL     1      -0.332  -6.022   2.224  0.00  0.00    +0.171 C 
BRANCH  22  23
ATOM     23  C   UNL     1      -0.785  -6.865   3.389  0.00  0.00    +0.227 C 
ATOM     24  O   UNL     1      -0.697  -6.435   4.519  0.00  0.00    -0.275 OA
ATOM     25  N   UNL     1      -1.289  -8.096   3.174  0.00  0.00    -0.284 N 
ATOM     26  H   UNL     1      -1.285  -8.523   2.160  0.00  0.00    +0.155 HD
BRANCH  25  27
ATOM     27  C   UNL     1      -1.817  -8.830   4.237  0.00  0.00    +0.041 A 
ATOM     28  C   UNL     1      -2.472  -8.189   5.267  0.00  0.00    +0.024 A 
ATOM     29  C   UNL     1      -3.001  -8.912   6.332  0.00  0.00    +0.002 A 
ATOM     30  C   UNL     1      -2.888 -10.267   6.388  0.00  0.00    +0.008 A 
ATOM     31  C   UNL     1      -2.228 -10.959   5.358  0.00  0.00    -0.016 A 
ATOM     32  C   UNL     1      -1.690 -10.235   4.265  0.00  0.00    +0.003 A 
ATOM     33  C   UNL     1      -1.026 -10.927   3.240  0.00  0.00    +0.010 A 
ATOM     34  C   UNL     1      -0.917 -12.283   3.303  0.00  0.00    +0.001 A 
ATOM     35  C   UNL     1      -1.450 -12.996   4.374  0.00  0.00    +0.001 A 
ATOM     36  C   UNL     1      -2.096 -12.358   5.389  0.00  0.00    +0.008 A 
ENDBRANCH  25  27
ENDBRANCH  22  23
ENDBRANCH  21  22
ENDBRANCH   6  21
TORSDOF 7
