REMARK  Name = ZINC40167797
REMARK  6 active torsions:
REMARK  status: ('A' for Active; 'I' for Inactive)
REMARK    1  A    between atoms: C_3  and  N_27
REMARK    2  A    between atoms: C_6  and  C_7
REMARK    3  A    between atoms: C_10  and  N_13
REMARK    4  A    between atoms: N_13  and  C_14
REMARK    5  A    between atoms: C_14  and  N_16
REMARK    6  A    between atoms: N_16  and  C_17
REMARK                            x       y       z     vdW  Elec       q    Type
REMARK                         _______ _______ _______ _____ _____    ______ ____
ROOT
ATOM      1  C   UNL     1      -1.286  -0.740   0.030  0.00  0.00    -0.018 A 
ATOM      2  C   UNL     1      -2.494  -0.095  -0.229  0.00  0.00    +0.010 A 
ATOM      3  C   UNL     1      -3.672  -0.811  -0.227  0.00  0.00    +0.024 A 
ATOM      4  C   UNL     1      -3.655  -2.176   0.034  0.00  0.00    +0.033 A 
ATOM      5  C   UNL     1      -2.453  -2.822   0.293  0.00  0.00    +0.024 A 
ATOM      6  C   UNL     1      -1.271  -2.111   0.285  0.00  0.00    +0.010 A 
ENDROOT
BRANCH   1  12
ATOM      7  C   UNL     1      -0.032   1.399  -0.227  0.00  0.00    +0.010 A 
ATOM      8  C   UNL     1       1.148   2.111  -0.227  0.00  0.00    +0.023 A 
ATOM      9  C   UNL     1       2.352   1.464   0.026  0.00  0.00    +0.025 A 
ATOM     10  C   UNL     1       2.369   0.098   0.281  0.00  0.00    +0.023 A 
ATOM     11  C   UNL     1       1.191  -0.619   0.282  0.00  0.00    +0.010 A 
ATOM     12  C   UNL     1      -0.017   0.028   0.029  0.00  0.00    -0.018 A 
BRANCH   9  13
ATOM     13  N   UNL     1       3.546   2.188   0.025  0.00  0.00    -0.358 N 
ATOM     14  H   UNL     1       3.535   3.141  -0.152  0.00  0.00    +0.142 HD
ATOM     15  H   UNL     1       4.387   1.737   0.202  0.00  0.00    +0.142 HD
ENDBRANCH   9  13
ENDBRANCH   1  12
BRANCH   4  16
ATOM     16  N   UNL     1      -4.851  -2.901   0.036  0.00  0.00    -0.297 N 
ATOM     17  H   UNL     1      -5.013  -3.569   0.720  0.00  0.00    +0.154 HD
BRANCH  16  18
ATOM     18  C   UNL     1      -5.781  -2.670  -0.913  0.00  0.00    +0.135 C 
ATOM     19  S   UNL     1      -5.440  -1.595  -2.201  0.00  0.00    -0.019 S 
BRANCH  18  20
ATOM     20  N   UNL     1      -6.978  -3.286  -0.848  0.00  0.00    -0.320 N 
ATOM     21  H   UNL     1      -7.170  -3.896  -0.118  0.00  0.00    +0.148 HD
BRANCH  20  22
ATOM     22  C   UNL     1      -7.987  -3.036  -1.879  0.00  0.00    +0.112 C 
ATOM     23  C   UNL     1      -7.698  -3.956  -3.086  0.00  0.00    +0.189 C 
ATOM     24  S   UNL     1      -8.896  -5.329  -2.788  0.00  0.00    -0.028 S 
ATOM     25  O   UNL     1      -9.378  -5.812  -4.034  0.00  0.00    -0.174 OA
ATOM     26  O   UNL     1      -8.344  -6.237  -1.845  0.00  0.00    -0.174 OA
ATOM     27  C   UNL     1     -10.210  -4.322  -1.972  0.00  0.00    +0.187 C 
ATOM     28  C   UNL     1      -9.366  -3.241  -1.269  0.00  0.00    +0.123 C 
ATOM     29 CL   UNL     1     -10.264  -1.679  -1.339  0.00  0.00    -0.118 Cl
ENDBRANCH  20  22
ENDBRANCH  18  20
ENDBRANCH  16  18
ENDBRANCH   4  16
TORSDOF 6
