REMARK  Name = ZINC59351039
REMARK  7 active torsions:
REMARK  status: ('A' for Active; 'I' for Inactive)
REMARK    1  A    between atoms: C_4  and  C_7
REMARK    2  A    between atoms: C_7  and  C_9
REMARK    3  A    between atoms: C_7  and  N_28
REMARK    4  A    between atoms: C_9  and  N_10
REMARK    5  A    between atoms: N_13  and  C_14
REMARK    6  A    between atoms: C_17  and  C_20
REMARK    7  A    between atoms: N_22  and  C_23
REMARK                            x       y       z     vdW  Elec       q    Type
REMARK                         _______ _______ _______ _____ _____    ______ ____
ROOT
ATOM      1  N   UNL     1       5.408  -1.946  -1.202  0.00  0.00    -0.300 N 
ATOM      2  C   UNL     1       6.017  -2.432  -2.302  0.00  0.00    +0.304 C 
ATOM      3  O   UNL     1       5.494  -2.307  -3.392  0.00  0.00    -0.253 OA
ATOM      4  N   UNL     1       7.206  -3.057  -2.192  0.00  0.00    -0.269 N 
ATOM      5  H   UNL     1       5.825  -2.046  -0.332  0.00  0.00    +0.150 HD
ATOM      6  H   UNL     1       7.657  -3.095  -1.334  0.00  0.00    +0.156 HD
ENDROOT
BRANCH   4   7
ATOM      7  C   UNL     1       7.788  -3.650  -3.312  0.00  0.00    +0.035 A 
ATOM      8  C   UNL     1       7.650  -3.055  -4.562  0.00  0.00    +0.024 A 
ATOM      9  C   UNL     1       8.223  -3.638  -5.670  0.00  0.00    +0.015 A 
ATOM     10  C   UNL     1       8.945  -4.827  -5.538  0.00  0.00    +0.037 A 
ATOM     11  C   UNL     1       9.082  -5.421  -4.281  0.00  0.00    +0.015 A 
ATOM     12  C   UNL     1       8.511  -4.831  -3.176  0.00  0.00    +0.024 A 
BRANCH  10  13
ATOM     13  C   UNL     1       9.560  -5.454  -6.724  0.00  0.00    +0.244 C 
ATOM     14  O   UNL     1       9.440  -4.936  -7.817  0.00  0.00    -0.270 OA
ATOM     15  N   UNL     1      10.256  -6.601  -6.594  0.00  0.00    -0.308 N 
ATOM     16  H   UNL     1      10.352  -7.014  -5.722  0.00  0.00    +0.149 HD
BRANCH  15  17
ATOM     17  C   UNL     1      10.867  -7.224  -7.771  0.00  0.00    +0.073 C 
ATOM     18  C   UNL     1       9.857  -8.169  -8.454  0.00  0.00    +0.022 C 
ATOM     19  C   UNL     1      10.719  -9.361  -8.938  0.00  0.00    +0.002 C 
ATOM     20  C   UNL     1      11.739  -9.536  -7.785  0.00  0.00    +0.002 C 
ATOM     21  C   UNL     1      12.064  -8.093  -7.346  0.00  0.00    +0.022 C 
ENDBRANCH  15  17
ENDBRANCH  10  13
ENDBRANCH   4   7
BRANCH   1  22
ATOM     22  C   UNL     1       4.115  -1.266  -1.321  0.00  0.00    +0.095 C 
BRANCH  22  23
ATOM     23  C   UNL     1       3.708  -0.702   0.041  0.00  0.00    -0.020 C 
BRANCH  23  27
ATOM     24  C   UNL     1       6.484   2.326   1.214  0.00  0.00    +0.000 A 
ATOM     25  C   UNL     1       6.591   1.050   1.736  0.00  0.00    +0.000 A 
ATOM     26  C   UNL     1       5.692   0.071   1.357  0.00  0.00    +0.002 A 
ATOM     27  C   UNL     1       4.687   0.366   0.455  0.00  0.00    -0.059 A 
ATOM     28  C   UNL     1       4.580   1.642  -0.067  0.00  0.00    +0.002 A 
ATOM     29  C   UNL     1       5.479   2.621   0.312  0.00  0.00    +0.000 A 
ENDBRANCH  23  27
BRANCH  23  30
ATOM     30  N   UNL     1       2.361  -0.123  -0.051  0.00  0.00    +0.385 N 
ATOM     31  C   UNL     1       1.359  -1.193  -0.289  0.00  0.00    -0.078 C 
ATOM     32  C   UNL     1       0.034  -0.551   0.194  0.00  0.00    -0.020 C 
ATOM     33  C   UNL     1       0.476   0.267   1.429  0.00  0.00    -0.020 C 
ATOM     34  C   UNL     1       1.986   0.502   1.236  0.00  0.00    -0.078 C 
ATOM     35  H   UNL     1       2.326   0.559  -0.793  0.00  0.00    -0.081 HD
ENDBRANCH  23  30
ENDBRANCH  22  23
ENDBRANCH   1  22
TORSDOF 7
