REMARK  Name = ZINC28617800
REMARK  12 active torsions:
REMARK  status: ('A' for Active; 'I' for Inactive)
REMARK    1  A    between atoms: C_1  and  C_2
REMARK    2  A    between atoms: C_5  and  C_8
REMARK    3  A    between atoms: N_10  and  C_11
REMARK    4  A    between atoms: C_11  and  C_13
REMARK    5  A    between atoms: C_11  and  C_16
REMARK    6  A    between atoms: C_13  and  C_14
REMARK    7  A    between atoms: C_13  and  C_15
REMARK    8  A    between atoms: N_18  and  N_19
REMARK    9  A    between atoms: N_19  and  C_20
REMARK   10  A    between atoms: C_20  and  N_22
REMARK   11  A    between atoms: N_22  and  C_23
REMARK   12  A    between atoms: C_26  and  C_29
REMARK                            x       y       z     vdW  Elec       q    Type
REMARK                         _______ _______ _______ _____ _____    ______ ____
ROOT
ATOM      1  C   UNL     1      -0.011   1.352  -0.013  0.00  0.00    +0.250 C 
ATOM      2  O   UNL     1       0.882   1.898   0.599  0.00  0.00    -0.272 OA
ATOM      3  N   UNL     1       0.131   0.074  -0.416  0.00  0.00    -0.234 N 
ATOM      4  H   UNL     1      -0.709  -0.448  -0.897  0.00  0.00    +0.173 HD
ENDROOT
BRANCH   3   5
ATOM      5  N   UNL     1       1.349  -0.590  -0.221  0.00  0.00    -0.246 N 
ATOM      6  H   UNL     1       2.189  -0.068   0.261  0.00  0.00    +0.172 HD
BRANCH   5   7
ATOM      7  C   UNL     1       1.492  -1.869  -0.623  0.00  0.00    +0.151 C 
ATOM      8  S   UNL     1       2.981  -2.680  -0.385  0.00  0.00    -0.017 S 
BRANCH   7   9
ATOM      9  N   UNL     1       0.463  -2.508  -1.213  0.00  0.00    -0.296 N 
ATOM     10  H   UNL     1      -0.460  -1.960  -1.453  0.00  0.00    +0.154 HD
BRANCH   9  11
ATOM     11  C   UNL     1       0.569  -3.869  -1.521  0.00  0.00    +0.033 A 
ATOM     12  C   UNL     1       0.069  -4.351  -2.724  0.00  0.00    +0.023 A 
ATOM     13  C   UNL     1       0.180  -5.694  -3.027  0.00  0.00    +0.005 A 
ATOM     14  C   UNL     1       0.778  -6.560  -2.130  0.00  0.00    -0.050 A 
ATOM     15  C   UNL     1       1.273  -6.083  -0.930  0.00  0.00    +0.005 A 
ATOM     16  C   UNL     1       1.170  -4.741  -0.623  0.00  0.00    +0.023 A 
ATOM     17  C   UNL     1       0.892  -8.025  -2.462  0.00  0.00    +0.044 C 
ENDBRANCH   9  11
ENDBRANCH   7   9
ENDBRANCH   5   7
ENDBRANCH   3   5
BRANCH   1  18
ATOM     18  C   UNL     1      -1.278   2.104  -0.329  0.00  0.00    +0.163 C 
BRANCH  18  21
ATOM     19  C   UNL     1      -1.778   4.342  -1.155  0.00  0.00    +0.245 C 
ATOM     20  O   UNL     1      -2.735   3.879  -1.744  0.00  0.00    -0.270 OA
ATOM     21  N   UNL     1      -0.986   3.537  -0.419  0.00  0.00    -0.300 N 
ATOM     22  H   UNL     1      -0.120   3.956   0.115  0.00  0.00    +0.150 HD
BRANCH  19  27
ATOM     23  C   UNL     1      -0.630   9.970  -1.505  0.00  0.00    +0.044 C 
ATOM     24  C   UNL     1      -0.931   8.496  -1.413  0.00  0.00    -0.050 A 
ATOM     25  C   UNL     1      -2.020   7.972  -2.086  0.00  0.00    +0.004 A 
ATOM     26  C   UNL     1      -2.301   6.624  -2.006  0.00  0.00    +0.013 A 
ATOM     27  C   UNL     1      -1.483   5.788  -1.245  0.00  0.00    +0.037 A 
ATOM     28  C   UNL     1      -0.388   6.323  -0.565  0.00  0.00    +0.013 A 
ATOM     29  C   UNL     1      -0.116   7.673  -0.657  0.00  0.00    +0.004 A 
ENDBRANCH  19  27
ENDBRANCH  18  21
BRANCH  18  30
ATOM     30  C   UNL     1      -2.305   1.862   0.779  0.00  0.00    +0.012 C 
ATOM     31  C   UNL     1      -3.627   2.536   0.405  0.00  0.00    +0.009 C 
ATOM     32  C   UNL     1      -2.530   0.358   0.946  0.00  0.00    +0.009 C 
ENDBRANCH  18  30
ENDBRANCH   1  18
TORSDOF 8
