REMARK  Name = ZINC20159100
REMARK  7 active torsions:
REMARK  status: ('A' for Active; 'I' for Inactive)
REMARK    1  A    between atoms: C_1  and  C_2
REMARK    2  A    between atoms: C_2  and  N_3
REMARK    3  A    between atoms: N_3  and  N_4
REMARK    4  A    between atoms: C_5  and  C_7
REMARK    5  A    between atoms: C_16  and  O_17
REMARK    6  A    between atoms: C_18  and  C_19
REMARK    7  A    between atoms: N_21  and  C_22
REMARK                            x       y       z     vdW  Elec       q    Type
REMARK                         _______ _______ _______ _____ _____    ______ ____
ROOT
ATOM      1  N   UNL     1       2.854   9.514  -0.974  0.00  0.00    -0.268 N 
ATOM      2  H   UNL     1       2.435  10.067  -1.828  0.00  0.00    +0.170 HD
ENDROOT
BRANCH   1   3
ATOM      3  N   UNL     1       2.858   8.113  -0.980  0.00  0.00    -0.233 N 
ATOM      4  C   UNL     1       2.348   7.442  -2.031  0.00  0.00    +0.264 C 
ATOM      5  O   UNL     1       1.885   8.053  -2.976  0.00  0.00    -0.269 OA
ATOM      6  H   UNL     1       3.277   7.561  -0.126  0.00  0.00    +0.173 HD
BRANCH   4   7
ATOM      7  C   UNL     1       2.352   5.970  -2.038  0.00  0.00    +0.080 A 
ATOM      8  C   UNL     1       2.889   5.267  -0.943  0.00  0.00    +0.017 A 
ATOM      9  C   UNL     1       2.905   3.911  -0.925  0.00  0.00    +0.009 A 
ATOM     10  C   UNL     1       2.379   3.182  -2.010  0.00  0.00    -0.014 A 
ATOM     11  C   UNL     1       2.388   1.777  -2.008  0.00  0.00    +0.008 A 
ATOM     12  C   UNL     1       1.873   1.098  -3.071  0.00  0.00    +0.001 A 
ATOM     13  C   UNL     1       1.342   1.775  -4.165  0.00  0.00    +0.001 A 
ATOM     14  C   UNL     1       1.312   3.136  -4.199  0.00  0.00    +0.012 A 
ATOM     15  C   UNL     1       1.834   3.870  -3.121  0.00  0.00    +0.024 A 
ATOM     16  C   UNL     1       1.824   5.280  -3.127  0.00  0.00    +0.137 A 
BRANCH  16  17
ATOM     17  O   UNL     1       1.307   5.957  -4.180  0.00  0.00    -0.505 OA
ATOM     18  H   UNL     1       0.892   5.406  -5.037  0.00  0.00    +0.292 HD
ENDBRANCH  16  17
ENDBRANCH   4   7
ENDBRANCH   1   3
BRANCH   1  20
ATOM     19  C   UNL     1       3.912   9.395   1.195  0.00  0.00    +0.062 C 
ATOM     20  C   UNL     1       3.338  10.152   0.025  0.00  0.00    +0.024 C 
ATOM     21  C   UNL     1       3.334  11.659   0.031  0.00  0.00    +0.087 C 
BRANCH  21  22
ATOM     22  C   UNL     1       3.955  12.157   1.310  0.00  0.00    +0.243 C 
ATOM     23  O   UNL     1       4.362  11.367   2.136  0.00  0.00    -0.270 OA
ATOM     24  N   UNL     1       4.060  13.482   1.537  0.00  0.00    -0.281 N 
ATOM     25  H   UNL     1       3.776  14.198   0.752  0.00  0.00    +0.155 HD
BRANCH  24  26
ATOM     26  C   UNL     1       4.530  13.946   2.772  0.00  0.00    +0.054 A 
ATOM     27  C   UNL     1       4.404  13.154   3.906  0.00  0.00    +0.025 A 
ATOM     28  C   UNL     1       4.869  13.614   5.122  0.00  0.00    +0.003 A 
ATOM     29  C   UNL     1       5.459  14.861   5.213  0.00  0.00    +0.021 A 
ATOM     30  C   UNL     1       5.585  15.654   4.086  0.00  0.00    +0.061 A 
ATOM     31  C   UNL     1       5.127  15.197   2.863  0.00  0.00    +0.080 A 
ATOM     32 CL   UNL     1       5.292  16.187   1.448  0.00  0.00    -0.080 Cl
ATOM     33 CL   UNL     1       6.326  17.219   4.205  0.00  0.00    -0.082 Cl
ENDBRANCH  24  26
ENDBRANCH  21  22
ENDBRANCH   1  20
TORSDOF 6
