REMARK  Name = ZINC37929661
REMARK  7 active torsions:
REMARK  status: ('A' for Active; 'I' for Inactive)
REMARK    1  A    between atoms: C_1  and  C_2
REMARK    2  A    between atoms: C_2  and  N_3
REMARK    3  A    between atoms: C_4  and  C_6
REMARK    4  A    between atoms: C_6  and  N_7
REMARK    5  A    between atoms: N_7  and  S_8
REMARK    6  A    between atoms: S_8  and  C_11
REMARK    7  A    between atoms: C_16  and  N_17
REMARK                            x       y       z     vdW  Elec       q    Type
REMARK                         _______ _______ _______ _____ _____    ______ ____
ROOT
ATOM      1  S   UNL     1      -4.354  -4.723   0.527  0.00  0.00    +0.061 S 
ATOM      2  O   UNL     1      -4.101  -6.121   0.566  0.00  0.00    -0.153 OA
ATOM      3  O   UNL     1      -4.766  -3.991   1.674  0.00  0.00    -0.153 OA
ENDROOT
BRANCH   1   4
ATOM      4  C   UNL     1      -5.588  -4.468  -0.704  0.00  0.00    +0.127 A 
ATOM      5  C   UNL     1      -6.705  -3.708  -0.415  0.00  0.00    +0.045 A 
ATOM      6  C   UNL     1      -7.675  -3.508  -1.381  0.00  0.00    +0.020 A 
ATOM      7  C   UNL     1      -7.530  -4.068  -2.638  0.00  0.00    +0.017 A 
ATOM      8  C   UNL     1      -6.416  -4.829  -2.932  0.00  0.00    +0.026 A 
ATOM      9  C   UNL     1      -5.437  -5.027  -1.966  0.00  0.00    +0.051 A 
ATOM     10 BR   UNL     1      -9.203  -2.468  -0.983  0.00  0.00    -0.050 Br
BRANCH   9  11
ATOM     11  N   UNL     1      -4.306  -5.791  -2.262  0.00  0.00    -0.356 N 
ATOM     12  H   UNL     1      -3.583  -5.857  -1.619  0.00  0.00    +0.142 HD
ATOM     13  H   UNL     1      -4.242  -6.255  -3.112  0.00  0.00    +0.142 HD
ENDBRANCH   9  11
ENDBRANCH   1   4
BRANCH   1  14
ATOM     14  N   UNL     1      -2.964  -4.005  -0.017  0.00  0.00    -0.181 NA
ATOM     15  H   UNL     1      -2.184  -4.547  -0.216  0.00  0.00    +0.149 HD
BRANCH  14  16
ATOM     16  C   UNL     1      -2.913  -2.553  -0.199  0.00  0.00    +0.201 C 
BRANCH  16  18
ATOM     17  N   UNL     1      -1.184  -0.808  -0.492  0.00  0.00    -0.314 N 
ATOM     18  C   UNL     1      -1.476  -2.112  -0.318  0.00  0.00    +0.229 C 
ATOM     19  O   UNL     1      -0.584  -2.931  -0.257  0.00  0.00    -0.274 OA
ATOM     20  H   UNL     1      -1.898  -0.153  -0.541  0.00  0.00    +0.149 HD
BRANCH  17  22
ATOM     21  C   UNL     1       0.266   1.138  -0.798  0.00  0.00    +0.024 C 
ATOM     22  C   UNL     1       0.212  -0.380  -0.608  0.00  0.00    +0.101 C 
ENDBRANCH  17  22
ENDBRANCH  16  18
ENDBRANCH  14  16
ENDBRANCH   1  14
TORSDOF 6
