REMARK  Name = ZINC00663231
REMARK  5 active torsions:
REMARK  status: ('A' for Active; 'I' for Inactive)
REMARK    1  A    between atoms: C_4  and  O_24
REMARK    2  A    between atoms: C_5  and  N_7
REMARK    3  A    between atoms: C_8  and  C_10
REMARK    4  A    between atoms: C_11  and  N_23
REMARK    5  A    between atoms: O_24  and  C_25
REMARK                            x       y       z     vdW  Elec       q    Type
REMARK                         _______ _______ _______ _____ _____    ______ ____
ROOT
ATOM      1  C   UNL     1       2.371   0.723   0.062  0.00  0.00    +0.097 A 
ATOM      2  C   UNL     1       3.691   1.117   0.043  0.00  0.00    +0.053 A 
ATOM      3  C   UNL     1       4.718   0.093   0.146  0.00  0.00    +0.029 A 
ATOM      4  C   UNL     1       6.125   0.243   0.152  0.00  0.00    +0.017 A 
ATOM      5  C   UNL     1       6.931  -0.875   0.252  0.00  0.00    -0.025 A 
ATOM      6  C   UNL     1       6.362  -2.131   0.352  0.00  0.00    +0.046 A 
ATOM      7  N   UNL     1       5.043  -2.264   0.344  0.00  0.00    -0.244 NA
ATOM      8  C   UNL     1       4.237  -1.232   0.248  0.00  0.00    +0.111 A 
ATOM      9  S   UNL     1       2.471  -1.050   0.208  0.00  0.00    -0.062 S 
ATOM     10  C   UNL     1       7.186  -3.385   0.480  0.00  0.00    +0.056 C 
ATOM     11  C   UNL     1       8.627  -3.127   0.044  0.00  0.00    +0.006 C 
ATOM     12  C   UNL     1       9.144  -1.892   0.790  0.00  0.00    +0.005 C 
ATOM     13  C   UNL     1       8.423  -0.662   0.245  0.00  0.00    +0.037 C 
ENDROOT
BRANCH   1  15
ATOM     14  N   UNL     1      -0.011   0.966   0.007  0.00  0.00    -0.278 N 
ATOM     15  C   UNL     1       1.211   1.534  -0.021  0.00  0.00    +0.257 C 
ATOM     16  O   UNL     1       1.319   2.743  -0.119  0.00  0.00    -0.269 OA
ATOM     17  H   UNL     1      -0.097  -0.000   0.020  0.00  0.00    +0.155 HD
BRANCH  14  22
ATOM     18  C   UNL     1      -2.304   3.758  -0.684  0.00  0.00    +0.002 A 
ATOM     19  C   UNL     1      -3.424   3.364   0.025  0.00  0.00    +0.004 A 
ATOM     20  C   UNL     1      -3.416   2.175   0.730  0.00  0.00    +0.048 A 
ATOM     21  C   UNL     1      -2.285   1.374   0.728  0.00  0.00    +0.151 A 
ATOM     22  C   UNL     1      -1.157   1.771   0.013  0.00  0.00    +0.076 A 
ATOM     23  C   UNL     1      -1.170   2.968  -0.687  0.00  0.00    +0.027 A 
BRANCH  21  24
ATOM     24  O   UNL     1      -2.277   0.205   1.422  0.00  0.00    -0.404 OA
BRANCH  24  25
ATOM     25  C   UNL     1      -3.469  -0.138   2.131  0.00  0.00    +0.575 C 
ATOM     26  F   UNL     1      -4.534  -0.243   1.230  0.00  0.00    -0.133 F 
ATOM     27  F   UNL     1      -3.288  -1.362   2.784  0.00  0.00    -0.133 F 
ATOM     28  F   UNL     1      -3.753   0.856   3.074  0.00  0.00    -0.133 F 
ENDBRANCH  24  25
ENDBRANCH  21  24
ENDBRANCH  14  22
ENDBRANCH   1  15
BRANCH   2  29
ATOM     29  N   UNL     1       4.031   2.458  -0.068  0.00  0.00    -0.356 N 
ATOM     30  H   UNL     1       3.336   3.131  -0.133  0.00  0.00    +0.142 HD
ATOM     31  H   UNL     1       4.965   2.722  -0.080  0.00  0.00    +0.142 HD
ENDBRANCH   2  29
TORSDOF 5
