REMARK  Name = ZINC42427732
REMARK  5 active torsions:
REMARK  status: ('A' for Active; 'I' for Inactive)
REMARK    1  A    between atoms: C_1  and  C_2
REMARK    2  A    between atoms: C_6  and  C_19
REMARK    3  A    between atoms: N_9  and  C_10
REMARK    4  A    between atoms: C_13  and  C_17
REMARK    5  A    between atoms: C_15  and  N_16
REMARK                            x       y       z     vdW  Elec       q    Type
REMARK                         _______ _______ _______ _____ _____    ______ ____
ROOT
ATOM      1  C   UNL     1      -0.019   1.526   0.010  0.00  0.00    +0.028 C 
ATOM      2  C   UNL     1       0.002  -0.004   0.002  0.00  0.00    +0.070 C 
ATOM      3  C   UNL     1      -1.434  -0.537   0.020  0.00  0.00    +0.023 C 
ATOM      4  C   UNL     1      -1.406  -2.062   0.152  0.00  0.00    +0.016 C 
ATOM      5  C   UNL     1      -0.731  -2.449   1.469  0.00  0.00    +0.092 C 
ATOM      6  C   UNL     1       0.713  -1.938   1.468  0.00  0.00    +0.118 C 
ATOM      7  N   UNL     1       0.706  -0.494   1.195  0.00  0.00    -0.325 N 
ENDROOT
BRANCH   7   8
ATOM      8  C   UNL     1       1.352   0.396   2.054  0.00  0.00    +0.051 A 
ATOM      9  C   UNL     1       0.664   0.946   3.128  0.00  0.00    +0.026 A 
ATOM     10  C   UNL     1       1.298   1.826   3.978  0.00  0.00    +0.021 A 
ATOM     11  C   UNL     1       2.636   2.165   3.764  0.00  0.00    +0.054 A 
ATOM     12  C   UNL     1       3.331   1.612   2.684  0.00  0.00    +0.043 A 
ATOM     13  C   UNL     1       2.692   0.726   1.836  0.00  0.00    +0.047 A 
BRANCH  13  14
ATOM     14  N   UNL     1       3.386   0.165   0.757  0.00  0.00    -0.357 N 
ATOM     15  H   UNL     1       2.937  -0.453   0.160  0.00  0.00    +0.142 HD
ATOM     16  H   UNL     1       4.316   0.395   0.606  0.00  0.00    +0.142 HD
ENDBRANCH  13  14
BRANCH  11  17
ATOM     17  C   UNL     1       3.295   3.079   4.647  0.00  0.00    +0.099 C 
ATOM     18  N   UNL     1       3.818   3.805   5.349  0.00  0.00    -0.191 NA
ENDBRANCH  11  17
ENDBRANCH   7   8
BRANCH   5  19
ATOM     19  C   UNL     1      -0.733  -3.949   1.614  0.00  0.00    +0.215 C 
ATOM     20  O   UNL     1       0.315  -4.551   1.709  0.00  0.00    -0.276 OA
ATOM     21  N   UNL     1      -1.901  -4.622   1.637  0.00  0.00    -0.329 N 
ATOM     22  H   UNL     1      -2.740  -4.140   1.561  0.00  0.00    +0.145 HD
ATOM     23  H   UNL     1      -1.903  -5.587   1.730  0.00  0.00    +0.145 HD
ENDBRANCH   5  19
TORSDOF 4
