REMARK  Name = ZINC59265140
REMARK  10 active torsions:
REMARK  status: ('A' for Active; 'I' for Inactive)
REMARK    1  A    between atoms: C_1  and  C_2
REMARK    2  A    between atoms: C_5  and  N_8
REMARK    3  A    between atoms: N_8  and  S_9
REMARK    4  A    between atoms: S_9  and  C_12
REMARK    5  A    between atoms: C_15  and  N_18
REMARK    6  A    between atoms: C_19  and  C_21
REMARK    7  A    between atoms: C_21  and  S_22
REMARK    8  A    between atoms: S_22  and  C_23
REMARK    9  A    between atoms: C_26  and  C_29
REMARK   10  A    between atoms: N_27  and  N_28
REMARK                            x       y       z     vdW  Elec       q    Type
REMARK                         _______ _______ _______ _____ _____    ______ ____
ROOT
ATOM      1  N   UNL     1      -1.038  -3.688   6.480  0.00  0.00    -0.285 N 
ATOM      2  C   UNL     1      -1.146  -2.409   6.890  0.00  0.00    +0.227 C 
ATOM      3  O   UNL     1      -0.900  -1.503   6.122  0.00  0.00    -0.275 OA
ATOM      4  H   UNL     1      -1.307  -4.411   7.069  0.00  0.00    +0.155 HD
ENDROOT
BRANCH   1   8
ATOM      5  C   UNL     1       0.449  -4.542   2.683  0.00  0.00    +0.109 A 
ATOM      6  C   UNL     1       0.927  -3.447   3.381  0.00  0.00    +0.030 A 
ATOM      7  C   UNL     1       0.435  -3.162   4.640  0.00  0.00    +0.025 A 
ATOM      8  C   UNL     1      -0.539  -3.975   5.204  0.00  0.00    +0.034 A 
ATOM      9  C   UNL     1      -1.017  -5.072   4.500  0.00  0.00    +0.025 A 
ATOM     10  C   UNL     1      -0.525  -5.350   3.240  0.00  0.00    +0.030 A 
BRANCH   5  11
ATOM     11  S   UNL     1       1.079  -4.902   1.077  0.00  0.00    +0.072 S 
ATOM     12  O   UNL     1       0.746  -6.257   0.806  0.00  0.00    -0.150 OA
ATOM     13  O   UNL     1       2.417  -4.426   1.049  0.00  0.00    -0.150 OA
BRANCH  11  14
ATOM     14  N   UNL     1       0.225  -3.980  -0.002  0.00  0.00    -0.216 N 
ATOM     15  H   UNL     1       0.684  -3.320  -0.545  0.00  0.00    +0.174 HD
BRANCH  14  20
ATOM     16  C   UNL     1      -5.378  -4.680  -0.521  0.00  0.00    +0.044 C 
ATOM     17  C   UNL     1      -3.889  -4.494  -0.383  0.00  0.00    -0.050 A 
ATOM     18  C   UNL     1      -3.359  -3.220  -0.286  0.00  0.00    +0.005 A 
ATOM     19  C   UNL     1      -1.995  -3.046  -0.160  0.00  0.00    +0.025 A 
ATOM     20  C   UNL     1      -1.155  -4.152  -0.129  0.00  0.00    +0.048 A 
ATOM     21  C   UNL     1      -1.691  -5.430  -0.227  0.00  0.00    +0.025 A 
ATOM     22  C   UNL     1      -3.056  -5.598  -0.348  0.00  0.00    +0.005 A 
ENDBRANCH  14  20
ENDBRANCH  11  14
ENDBRANCH   5  11
ENDBRANCH   1   8
BRANCH   2  23
ATOM     23  C   UNL     1      -1.573  -2.104   8.303  0.00  0.00    +0.173 C 
BRANCH  23  24
ATOM     24  S   UNL     1      -1.622  -0.307   8.544  0.00  0.00    -0.075 S 
BRANCH  24  25
ATOM     25  C   UNL     1      -2.131  -0.116  10.221  0.00  0.00    +0.209 A 
ATOM     26  N   UNL     1      -2.397  -1.085  11.070  0.00  0.00    -0.121 NA
ATOM     27  N   UNL     1      -2.738  -0.593  12.207  0.00  0.00    -0.127 NA
ATOM     28  C   UNL     1      -2.711   0.719  12.154  0.00  0.00    +0.182 A 
ATOM     29  N   UNL     1      -2.316   1.063  10.881  0.00  0.00    -0.224 N 
BRANCH  28  30
ATOM     30  C   UNL     1      -3.038   1.650  13.254  0.00  0.00    +0.024 A 
ATOM     31  C   UNL     1      -3.281   3.005  13.001  0.00  0.00    +0.031 A 
ATOM     32  C   UNL     1      -3.583   3.838  14.058  0.00  0.00    +0.111 A 
ATOM     33  N   UNL     1      -3.644   3.374  15.292  0.00  0.00    -0.263 NA
ATOM     34  C   UNL     1      -3.422   2.104  15.574  0.00  0.00    +0.111 A 
ATOM     35  C   UNL     1      -3.119   1.199  14.578  0.00  0.00    +0.031 A 
ENDBRANCH  28  30
BRANCH  29  36
ATOM     36  N   UNL     1      -2.148   2.324  10.382  0.00  0.00    -0.295 N 
ATOM     37  H   UNL     1      -3.005   2.669   9.976  0.00  0.00    +0.163 HD
ATOM     38  H   UNL     1      -1.806   2.952  11.094  0.00  0.00    +0.163 HD
ENDBRANCH  29  36
ENDBRANCH  24  25
ENDBRANCH  23  24
ENDBRANCH   2  23
TORSDOF 9
