REMARK  Name = ZINC21722388
REMARK  5 active torsions:
REMARK  status: ('A' for Active; 'I' for Inactive)
REMARK    1  A    between atoms: C_1  and  N_2
REMARK    2  A    between atoms: C_15  and  C_17
REMARK    3  A    between atoms: C_20  and  O_23
REMARK    4  A    between atoms: O_23  and  C_24
REMARK    5  A    between atoms: C_28  and  C_31
REMARK                            x       y       z     vdW  Elec       q    Type
REMARK                         _______ _______ _______ _____ _____    ______ ____
ROOT
ATOM      1  C   UNL     1       3.840   2.370   6.728  0.00  0.00    +0.129 C 
ATOM      2  N   UNL     1       4.045   1.930   5.345  0.00  0.00    -0.302 N 
ATOM      3  C   UNL     1       3.211   1.026   4.796  0.00  0.00    +0.307 C 
ATOM      4  O   UNL     1       2.288   0.575   5.447  0.00  0.00    -0.252 OA
ATOM      5  N   UNL     1       3.400   0.621   3.524  0.00  0.00    -0.242 N 
ATOM      6  C   UNL     1       4.463   1.146   2.787  0.00  0.00    +0.060 A 
ATOM      7  C   UNL     1       5.778   0.855   3.108  0.00  0.00    +0.025 A 
ATOM      8  C   UNL     1       6.795   1.308   2.286  0.00  0.00    +0.002 A 
ATOM      9  C   UNL     1       6.504   2.047   1.154  0.00  0.00    +0.002 A 
ATOM     10  C   UNL     1       5.191   2.357   0.842  0.00  0.00    +0.025 A 
ATOM     11  C   UNL     1       4.174   1.919   1.672  0.00  0.00    +0.053 A 
ATOM     12  N   UNL     1       2.840   2.232   1.443  0.00  0.00    -0.316 N 
ATOM     13  C   UNL     1       1.873   1.329   1.142  0.00  0.00    +0.017 C 
ATOM     14  C   UNL     1       1.676   0.168   1.788  0.00  0.00    +0.037 C 
ATOM     15  C   UNL     1       2.496  -0.352   2.946  0.00  0.00    +0.148 C 
ATOM     16  C   UNL     1       0.622  -0.693   1.403  0.00  0.00    +0.163 C 
ATOM     17  O   UNL     1       0.482  -1.747   1.991  0.00  0.00    -0.292 OA
ATOM     18  C   UNL     1      -0.330  -0.351   0.296  0.00  0.00    +0.091 C 
ATOM     19  C   UNL     1      -0.428   1.175   0.190  0.00  0.00    +0.068 C 
ATOM     20  C   UNL     1       0.984   1.718  -0.028  0.00  0.00    +0.063 C 
ATOM     21  H   UNL     1       4.880   2.338   4.756  0.00  0.00    +0.150 HD
ATOM     22  H   UNL     1       2.503   3.278   1.500  0.00  0.00    +0.152 HD
ENDROOT
BRANCH  15  23
ATOM     23  C   UNL     1       3.305  -1.530   2.467  0.00  0.00    -0.022 A 
ATOM     24  C   UNL     1       4.262  -1.357   1.484  0.00  0.00    +0.009 A 
ATOM     25  C   UNL     1       5.008  -2.434   1.047  0.00  0.00    +0.046 A 
ATOM     26  C   UNL     1       4.790  -3.692   1.588  0.00  0.00    +0.120 A 
ATOM     27  C   UNL     1       3.825  -3.865   2.571  0.00  0.00    +0.046 A 
ATOM     28  C   UNL     1       3.085  -2.783   3.008  0.00  0.00    +0.009 A 
BRANCH  26  29
ATOM     29  O   UNL     1       5.519  -4.755   1.157  0.00  0.00    -0.495 OA
ATOM     30  C   UNL     1       6.495  -4.503   0.143  0.00  0.00    +0.277 C 
ENDBRANCH  26  29
ENDBRANCH  15  23
BRANCH  19  31
ATOM     31  C   UNL     1      -1.305   1.551  -0.977  0.00  0.00    +0.109 A 
ATOM     32  C   UNL     1      -2.445   2.261  -0.907  0.00  0.00    +0.045 A 
ATOM     33  C   UNL     1      -2.935   2.380  -2.228  0.00  0.00    +0.041 A 
ATOM     34  C   UNL     1      -2.069   1.728  -3.025  0.00  0.00    +0.195 A 
ATOM     35  O   UNL     1      -1.083   1.228  -2.262  0.00  0.00    -0.468 OA
ENDBRANCH  19  31
TORSDOF 3
