REMARK  Name = ZINC04476236
REMARK  9 active torsions:
REMARK  status: ('A' for Active; 'I' for Inactive)
REMARK    1  A    between atoms: C_1  and  C_2
REMARK    2  A    between atoms: C_5  and  C_29
REMARK    3  A    between atoms: C_6  and  N_8
REMARK    4  A    between atoms: C_9  and  C_11
REMARK    5  A    between atoms: C_12  and  C_28
REMARK    6  A    between atoms: C_17  and  C_19
REMARK    7  A    between atoms: C_22  and  O_27
REMARK    8  A    between atoms: C_23  and  O_25
REMARK    9  A    between atoms: O_25  and  C_26
REMARK                            x       y       z     vdW  Elec       q    Type
REMARK                         _______ _______ _______ _____ _____    ______ ____
ROOT
ATOM      1  C   UNL     1      -0.352  -1.058  -0.777  0.00  0.00    +0.056 C 
ATOM      2  C   UNL     1      -1.690  -0.961  -0.918  0.00  0.00    +0.019 C 
ATOM      3  N   UNL     1      -2.467  -0.428   0.071  0.00  0.00    -0.273 N 
ATOM      4  C   UNL     1      -1.981   0.031   1.231  0.00  0.00    +0.304 C 
ATOM      5  O   UNL     1      -2.751   0.489   2.052  0.00  0.00    -0.252 OA
ATOM      6  N   UNL     1      -0.664   0.001   1.518  0.00  0.00    -0.288 N 
ATOM      7  C   UNL     1       0.259  -0.556   0.515  0.00  0.00    +0.142 C 
ATOM      8  C   UNL     1      -2.339  -1.448  -2.188  0.00  0.00    +0.061 C 
ATOM      9  H   UNL     1      -3.425  -0.378  -0.075  0.00  0.00    +0.156 HD
ATOM     10  H   UNL     1      -0.333   0.339   2.365  0.00  0.00    +0.151 HD
ENDROOT
BRANCH   7  11
ATOM     11  C   UNL     1       1.267   0.510   0.169  0.00  0.00    -0.019 A 
ATOM     12  C   UNL     1       0.842   1.794  -0.119  0.00  0.00    +0.009 A 
ATOM     13  C   UNL     1       1.762   2.775  -0.437  0.00  0.00    +0.049 A 
ATOM     14  C   UNL     1       3.114   2.473  -0.469  0.00  0.00    +0.158 A 
ATOM     15  C   UNL     1       3.542   1.181  -0.179  0.00  0.00    +0.162 A 
ATOM     16  C   UNL     1       2.614   0.202   0.140  0.00  0.00    +0.055 A 
BRANCH  15  17
ATOM     17  O   UNL     1       4.868   0.879  -0.208  0.00  0.00    -0.491 OA
ATOM     18  C   UNL     1       5.226  -0.490  -0.010  0.00  0.00    +0.277 C 
ENDBRANCH  15  17
BRANCH  14  19
ATOM     19  O   UNL     1       4.021   3.437  -0.781  0.00  0.00    -0.503 OA
ATOM     20  H   UNL     1       4.215   3.502  -1.726  0.00  0.00    +0.292 HD
ENDBRANCH  14  19
ENDBRANCH   7  11
BRANCH   1  22
ATOM     21  N   UNL     1       0.746  -0.881  -2.897  0.00  0.00    -0.281 N 
ATOM     22  C   UNL     1       0.454  -1.611  -1.802  0.00  0.00    +0.248 C 
ATOM     23  O   UNL     1       0.883  -2.745  -1.695  0.00  0.00    -0.270 OA
ATOM     24  H   UNL     1       0.469   0.047  -2.949  0.00  0.00    +0.155 HD
BRANCH  21  30
ATOM     25  C   UNL     1       2.238  -4.913  -5.281  0.00  0.00    +0.044 C 
ATOM     26  C   UNL     1       2.189  -3.414  -5.137  0.00  0.00    -0.049 A 
ATOM     27  C   UNL     1       2.839  -2.610  -6.056  0.00  0.00    +0.004 A 
ATOM     28  C   UNL     1       2.796  -1.234  -5.928  0.00  0.00    +0.005 A 
ATOM     29  C   UNL     1       2.099  -0.657  -4.885  0.00  0.00    -0.029 A 
ATOM     30  C   UNL     1       1.449  -1.461  -3.957  0.00  0.00    +0.037 A 
ATOM     31  C   UNL     1       1.494  -2.844  -4.089  0.00  0.00    +0.027 A 
ATOM     32  C   UNL     1       2.048   0.843  -4.749  0.00  0.00    +0.045 C 
ENDBRANCH  21  30
ENDBRANCH   1  22
TORSDOF 5
