REMARK  Name = ZINC31157764
REMARK  13 active torsions:
REMARK  status: ('A' for Active; 'I' for Inactive)
REMARK    1  A    between atoms: C_1  and  C_2
REMARK    2  A    between atoms: C_9  and  C_36
REMARK    3  A    between atoms: C_13  and  C_32
REMARK    4  A    between atoms: C_14  and  C_15
REMARK    5  A    between atoms: C_14  and  O_31
REMARK    6  A    between atoms: C_15  and  C_16
REMARK    7  A    between atoms: C_16  and  C_17
REMARK    8  A    between atoms: C_17  and  O_30
REMARK    9  A    between atoms: C_18  and  O_29
REMARK   10  A    between atoms: C_20  and  O_27
REMARK   11  A    between atoms: C_23  and  O_25
REMARK   12  A    between atoms: O_25  and  C_26
REMARK   13  A    between atoms: O_27  and  C_28
REMARK                            x       y       z     vdW  Elec       q    Type
REMARK                         _______ _______ _______ _____ _____    ______ ____
ROOT
ATOM      1  C   UNL     1      -0.247   3.315   1.663  0.00  0.00    +0.010 C 
ATOM      2  C   UNL     1      -0.870   1.990   1.209  0.00  0.00    +0.022 C 
ATOM      3  C   UNL     1      -2.384   2.167   1.082  0.00  0.00    +0.051 C 
ATOM      4  C   UNL     1      -2.734   2.631  -0.317  0.00  0.00    +0.182 C 
ATOM      5  C   UNL     1      -2.163   1.482  -1.183  0.00  0.00    +0.055 C 
ATOM      6  C   UNL     1      -3.081   1.408  -2.364  0.00  0.00    +0.072 C 
ATOM      7  C   UNL     1      -2.444   1.184  -3.691  0.00  0.00    +0.018 C 
ATOM      8  C   UNL     1      -0.935   1.353  -3.759  0.00  0.00    +0.002 C 
ATOM      9  C   UNL     1      -0.214   0.850  -2.497  0.00  0.00    +0.010 C 
ATOM     10  C   UNL     1      -0.693   1.711  -1.332  0.00  0.00    +0.004 C 
ATOM     11  C   UNL     1      -0.080   1.430   0.032  0.00  0.00    +0.075 C 
ATOM     12  C   UNL     1      -0.360   3.151  -1.704  0.00  0.00    +0.014 C 
ATOM     13  C   UNL     1      -4.011   2.577  -2.153  0.00  0.00    +0.314 C 
ATOM     14  O   UNL     1      -4.556   3.251  -2.987  0.00  0.00    -0.250 OA
ATOM     15  O   UNL     1      -4.104   2.706  -0.778  0.00  0.00    -0.461 OA
ATOM     16  C   UNL     1      -3.946   0.166  -2.109  0.00  0.00    +0.023 C 
ENDROOT
BRANCH  11  17
ATOM     17  O   UNL     1       0.046   0.007   0.189  0.00  0.00    -0.388 OA
ATOM     18  H   UNL     1       0.588  -0.583  -0.564  0.00  0.00    +0.210 HD
ENDBRANCH  11  17
BRANCH  11  19
ATOM     19  C   UNL     1       1.336   2.033   0.058  0.00  0.00    +0.038 C 
BRANCH  19  20
ATOM     20  C   UNL     1       2.121   1.544  -1.161  0.00  0.00    +0.045 C 
BRANCH  20  21
ATOM     21  C   UNL     1       3.579   1.992  -1.042  0.00  0.00    +0.147 C 
ATOM     22  C   UNL     1       4.358   1.689  -2.346  0.00  0.00    +0.207 C 
ATOM     23  C   UNL     1       5.240   2.936  -2.556  0.00  0.00    +0.284 C 
ATOM     24  O   UNL     1       5.007   3.817  -1.444  0.00  0.00    -0.317 OA
ATOM     25  C   UNL     1       3.677   3.537  -0.956  0.00  0.00    +0.287 C 
BRANCH  25  26
ATOM     26  O   UNL     1       3.536   3.974   0.397  0.00  0.00    -0.352 OA
ATOM     27  C   UNL     1       3.389   5.389   0.538  0.00  0.00    +0.197 C 
ENDBRANCH  25  26
BRANCH  23  28
ATOM     28  O   UNL     1       4.878   3.587  -3.776  0.00  0.00    -0.352 OA
ATOM     29  C   UNL     1       5.774   4.630  -4.166  0.00  0.00    +0.197 C 
ENDBRANCH  23  28
BRANCH  22  30
ATOM     30  O   UNL     1       5.169   0.524  -2.184  0.00  0.00    -0.384 OA
ATOM     31  H   UNL     1       5.790   0.167  -3.018  0.00  0.00    +0.210 HD
ENDBRANCH  22  30
BRANCH  21  32
ATOM     32  O   UNL     1       4.209   1.377   0.083  0.00  0.00    -0.381 OA
ATOM     33  H   UNL     1       5.263   1.594   0.310  0.00  0.00    +0.210 HD
ENDBRANCH  21  32
ENDBRANCH  20  21
ENDBRANCH  19  20
ENDBRANCH  11  19
TORSDOF 8
