REMARK  Name = ZINC67102281
REMARK  6 active torsions:
REMARK  status: ('A' for Active; 'I' for Inactive)
REMARK    1  A    between atoms: C_1  and  C_2
REMARK    2  A    between atoms: C_6  and  C_7
REMARK    3  A    between atoms: N_9  and  N_10
REMARK    4  A    between atoms: N_13  and  C_14
REMARK    5  A    between atoms: C_14  and  C_16
REMARK    6  A    between atoms: C_14  and  C_23
REMARK                            x       y       z     vdW  Elec       q    Type
REMARK                         _______ _______ _______ _____ _____    ______ ____
ROOT
ATOM      1  N   UNL     1      -1.070  -1.291   4.452  0.00  0.00    -0.218 N 
ATOM      2  C   UNL     1      -1.041  -2.220   5.428  0.00  0.00    +0.316 C 
ATOM      3  O   UNL     1      -2.036  -2.434   6.094  0.00  0.00    -0.251 OA
ATOM      4  N   UNL     1       0.090  -2.913   5.665  0.00  0.00    -0.291 N 
ATOM      5  H   UNL     1      -1.884  -0.792   4.282  0.00  0.00    +0.174 HD
ATOM      6  H   UNL     1       0.858  -2.802   5.084  0.00  0.00    +0.151 HD
ENDROOT
BRANCH   1   9
ATOM      7  C   UNL     1       0.048  -0.115   2.710  0.00  0.00    +0.267 C 
ATOM      8  O   UNL     1      -0.973   0.511   2.496  0.00  0.00    -0.268 OA
ATOM      9  N   UNL     1       0.077  -1.045   3.686  0.00  0.00    -0.229 N 
ATOM     10  H   UNL     1       0.891  -1.544   3.857  0.00  0.00    +0.173 HD
BRANCH   7  16
ATOM     11  C   UNL     1       0.322   1.950   0.394  0.00  0.00    +0.045 C 
ATOM     12  C   UNL     1       1.428   1.044   0.870  0.00  0.00    -0.031 A 
ATOM     13  C   UNL     1       2.681   1.062   0.306  0.00  0.00    +0.011 A 
ATOM     14  C   UNL     1       3.631   0.220   0.783  0.00  0.00    +0.046 A 
ATOM     15  S   UNL     1       2.854  -0.624   2.010  0.00  0.00    -0.092 S 
ATOM     16  C   UNL     1       1.248   0.142   1.908  0.00  0.00    +0.078 A 
ENDBRANCH   7  16
ENDBRANCH   1   9
BRANCH   4  17
ATOM     17  C   UNL     1       0.159  -3.836   6.802  0.00  0.00    +0.108 C 
BRANCH  17  18
ATOM     18  C   UNL     1      -0.341  -5.193   6.378  0.00  0.00    -0.027 A 
ATOM     19  C   UNL     1      -0.005  -5.696   5.136  0.00  0.00    +0.008 A 
ATOM     20  C   UNL     1      -0.463  -6.941   4.747  0.00  0.00    +0.038 A 
ATOM     21  C   UNL     1      -1.259  -7.684   5.602  0.00  0.00    +0.123 A 
ATOM     22  C   UNL     1      -1.595  -7.178   6.846  0.00  0.00    +0.038 A 
ATOM     23  C   UNL     1      -1.132  -5.936   7.235  0.00  0.00    +0.008 A 
ATOM     24  F   UNL     1      -1.707  -8.900   5.222  0.00  0.00    -0.205 F 
ENDBRANCH  17  18
BRANCH  17  25
ATOM     25  C   UNL     1       1.609  -3.952   7.277  0.00  0.00    +0.014 C 
ATOM     26  C   UNL     1       1.698  -4.930   8.467  0.00  0.00    +0.006 C 
ATOM     27  C   UNL     1       2.769  -4.303   9.394  0.00  0.00    +0.000 C 
ATOM     28  C   UNL     1       2.480  -2.786   9.273  0.00  0.00    +0.000 C 
ATOM     29  C   UNL     1       2.106  -2.589   7.790  0.00  0.00    +0.006 C 
ENDBRANCH  17  25
ENDBRANCH   4  17
TORSDOF 5
