REMARK  Name = ZINC04222408
REMARK  9 active torsions:
REMARK  status: ('A' for Active; 'I' for Inactive)
REMARK    1  A    between atoms: C_1  and  C_2
REMARK    2  A    between atoms: C_8  and  C_10
REMARK    3  A    between atoms: C_10  and  C_11
REMARK    4  A    between atoms: C_19  and  C_21
REMARK    5  A    between atoms: C_32  and  C_42
REMARK    6  A    between atoms: C_35  and  O_41
REMARK    7  A    between atoms: C_37  and  C_38
REMARK    8  A    between atoms: C_37  and  C_39
REMARK    9  A    between atoms: C_39  and  O_40
REMARK                            x       y       z     vdW  Elec       q    Type
REMARK                         _______ _______ _______ _____ _____    ______ ____
ROOT
ATOM      1  C   UNL     1       1.491   3.468  -0.157  0.00  0.00    +0.054 C 
ATOM      2  C   UNL     1       2.939   3.911  -0.009  0.00  0.00    +0.058 A 
ATOM      3  C   UNL     1       3.851   3.080   0.559  0.00  0.00    +0.015 A 
ATOM      4  S   UNL     1       5.340   4.041   0.505  0.00  0.00    -0.057 S 
ATOM      5  C   UNL     1       4.658   5.447  -0.257  0.00  0.00    +0.165 A 
ATOM      6  N   UNL     1       3.397   5.096  -0.406  0.00  0.00    -0.229 NA
ATOM      7  N   UNL     1       5.281   6.635  -0.615  0.00  0.00    -0.261 N 
ATOM      8  C   UNL     1       6.597   6.805  -0.374  0.00  0.00    +0.255 C 
ATOM      9  O   UNL     1       7.237   5.918   0.156  0.00  0.00    -0.270 OA
ATOM     10  C   UNL     1       3.626   1.708   1.088  0.00  0.00    +0.049 C 
ATOM     11  C   UNL     1       2.110   1.468   1.234  0.00  0.00    +0.011 C 
ATOM     12  C   UNL     1       1.407   1.940  -0.041  0.00  0.00    -0.019 C 
ATOM     13  C   UNL     1      -0.078   1.564   0.005  0.00  0.00    +0.010 C 
ATOM     14  C   UNL     1      -0.239   0.054   0.170  0.00  0.00    +0.032 C 
ATOM     15  C   UNL     1       0.417  -0.370   1.487  0.00  0.00    +0.123 C 
ATOM     16  C   UNL     1       1.907  -0.039   1.422  0.00  0.00    +0.021 C 
ATOM     17  C   UNL     1       2.581  -0.481   2.723  0.00  0.00    +0.016 C 
ATOM     18  C   UNL     1       2.063   1.289  -1.260  0.00  0.00    +0.012 C 
ATOM     19  H   UNL     1       4.771   7.343  -1.038  0.00  0.00    +0.157 HD
ENDROOT
BRANCH   8  20
ATOM     20  C   UNL     1       7.259   8.066  -0.755  0.00  0.00    +0.107 A 
ATOM     21  C   UNL     1       7.312   9.134   0.149  0.00  0.00    +0.138 A 
ATOM     22  C   UNL     1       7.940  10.310  -0.214  0.00  0.00    +0.039 A 
ATOM     23  C   UNL     1       8.505  10.439  -1.470  0.00  0.00    +0.006 A 
ATOM     24  C   UNL     1       8.452   9.391  -2.371  0.00  0.00    +0.039 A 
ATOM     25  C   UNL     1       7.833   8.205  -2.023  0.00  0.00    +0.138 A 
ATOM     26  F   UNL     1       7.784   7.183  -2.905  0.00  0.00    -0.205 F 
ATOM     27  F   UNL     1       6.756   9.012   1.374  0.00  0.00    -0.205 F 
ENDBRANCH   8  20
BRANCH  15  28
ATOM     28  O   UNL     1       0.247  -1.777   1.675  0.00  0.00    -0.391 OA
ATOM     29  H   UNL     1      -0.677  -2.059   1.714  0.00  0.00    +0.210 HD
ENDBRANCH  15  28
BRANCH   1  30
ATOM     30  C   UNL     1       0.961   3.905  -1.524  0.00  0.00    +0.106 C 
BRANCH  30  38
ATOM     31  C   UNL     1      -2.868   7.556  -4.915  0.00  0.00    +0.007 C 
ATOM     32  C   UNL     1      -1.459   7.157  -4.472  0.00  0.00    -0.011 C 
ATOM     33  C   UNL     1      -1.119   7.862  -3.157  0.00  0.00    +0.022 C 
ATOM     34  C   UNL     1       0.305   7.487  -2.734  0.00  0.00    +0.108 C 
ATOM     35  N   UNL     1       0.411   6.022  -2.679  0.00  0.00    -0.301 N 
ATOM     36  C   UNL     1       0.027   5.241  -3.862  0.00  0.00    +0.108 C 
ATOM     37  C   UNL     1      -1.399   5.641  -4.270  0.00  0.00    +0.022 C 
ATOM     38  C   UNL     1       0.858   5.408  -1.565  0.00  0.00    +0.216 C 
ATOM     39  O   UNL     1       1.177   6.065  -0.597  0.00  0.00    -0.276 OA
ENDBRANCH  30  38
ENDBRANCH   1  30
BRANCH  16  40
ATOM     40  C   UNL     1       2.541  -0.783   0.245  0.00  0.00    +0.165 C 
BRANCH  40  41
ATOM     41  O   UNL     1       2.515  -2.189   0.500  0.00  0.00    -0.394 OA
ATOM     42  H   UNL     1       2.901  -2.724  -0.206  0.00  0.00    +0.209 HD
ENDBRANCH  40  41
ENDBRANCH  16  40
TORSDOF 6
