REMARK  Name = ZINC49749987
REMARK  8 active torsions:
REMARK  status: ('A' for Active; 'I' for Inactive)
REMARK    1  A    between atoms: C_1  and  C_2
REMARK    2  A    between atoms: C_2  and  C_3
REMARK    3  A    between atoms: C_10  and  S_14
REMARK    4  A    between atoms: S_14  and  C_15
REMARK    5  A    between atoms: C_15  and  C_16
REMARK    6  A    between atoms: N_18  and  C_19
REMARK    7  A    between atoms: C_21  and  C_26
REMARK    8  A    between atoms: C_24  and  O_25
REMARK                            x       y       z     vdW  Elec       q    Type
REMARK                         _______ _______ _______ _____ _____    ______ ____
ROOT
ATOM      1  S   UNL     1      -7.564  -2.829   0.589  0.00  0.00    -0.078 S 
ENDROOT
BRANCH   1   9
ATOM      2  C   UNL     1      -1.388  -0.597   0.009  0.00  0.00    -0.008 A 
ATOM      3  C   UNL     1      -2.176  -0.884  -1.037  0.00  0.00    +0.026 A 
ATOM      4  C   UNL     1      -3.524  -1.370  -0.798  0.00  0.00    +0.072 A 
ATOM      5  C   UNL     1      -4.535  -1.737  -1.741  0.00  0.00    +0.260 A 
ATOM      6  O   UNL     1      -4.319  -1.661  -2.939  0.00  0.00    -0.267 OA
ATOM      7  N   UNL     1      -5.727  -2.167  -1.290  0.00  0.00    -0.301 N 
ATOM      8  H   UNL     1      -6.415  -2.417  -1.927  0.00  0.00    +0.171 HD
ATOM      9  C   UNL     1      -5.987  -2.259   0.047  0.00  0.00    +0.170 A 
ATOM     10  N   UNL     1      -5.074  -1.927   0.937  0.00  0.00    -0.216 NA
ATOM     11  C   UNL     1      -3.878  -1.496   0.559  0.00  0.00    +0.116 A 
ATOM     12  S   UNL     1      -2.414  -0.974   1.417  0.00  0.00    -0.073 S 
BRANCH   2  14
ATOM     13  C   UNL     1       0.020   1.444  -0.001  0.00  0.00    +0.009 C 
ATOM     14  C   UNL     1       0.030  -0.086  -0.002  0.00  0.00    +0.039 C 
ENDBRANCH   2  14
ENDBRANCH   1   9
BRANCH   1  15
ATOM     15  C   UNL     1      -7.448  -2.784   2.398  0.00  0.00    +0.173 C 
BRANCH  15  16
ATOM     16  C   UNL     1      -8.749  -3.254   2.997  0.00  0.00    +0.228 C 
ATOM     17  O   UNL     1      -9.664  -3.586   2.273  0.00  0.00    -0.275 OA
ATOM     18  N   UNL     1      -8.896  -3.305   4.335  0.00  0.00    -0.282 N 
ATOM     19  H   UNL     1      -8.144  -3.102   4.914  0.00  0.00    +0.155 HD
BRANCH  18  20
ATOM     20  C   UNL     1     -10.134  -3.652   4.892  0.00  0.00    +0.076 A 
ATOM     21  C   UNL     1     -10.947  -4.580   4.256  0.00  0.00    +0.030 A 
ATOM     22  C   UNL     1     -12.168  -4.920   4.808  0.00  0.00    -0.048 A 
ATOM     23  C   UNL     1     -12.582  -4.339   5.991  0.00  0.00    +0.007 A 
ATOM     24  C   UNL     1     -11.778  -3.413   6.630  0.00  0.00    +0.047 A 
ATOM     25  C   UNL     1     -10.550  -3.071   6.087  0.00  0.00    +0.138 A 
ATOM     26  C   UNL     1     -13.049  -5.928   4.116  0.00  0.00    +0.044 C 
BRANCH  25  27
ATOM     27  O   UNL     1      -9.755  -2.165   6.718  0.00  0.00    -0.505 OA
ATOM     28  H   UNL     1      -9.912  -1.250   6.448  0.00  0.00    +0.292 HD
ENDBRANCH  25  27
ENDBRANCH  18  20
ENDBRANCH  15  16
ENDBRANCH   1  15
TORSDOF 6
