REMARK  Name = ZINC08988272
REMARK  10 active torsions:
REMARK  status: ('A' for Active; 'I' for Inactive)
REMARK    1  A    between atoms: C_4  and  C_7
REMARK    2  A    between atoms: C_7  and  N_8
REMARK    3  A    between atoms: C_9  and  N_36
REMARK    4  A    between atoms: C_10  and  N_17
REMARK    5  A    between atoms: N_17  and  C_18
REMARK    6  A    between atoms: N_17  and  C_26
REMARK    7  A    between atoms: C_18  and  C_19
REMARK    8  A    between atoms: C_19  and  C_20
REMARK    9  A    between atoms: C_26  and  C_27
REMARK   10  A    between atoms: N_29  and  C_30
REMARK                            x       y       z     vdW  Elec       q    Type
REMARK                         _______ _______ _______ _____ _____    ______ ____
ROOT
ATOM      1  N   UNL     1       0.492  -0.054  -0.157  0.00  0.00    -0.314 N 
ENDROOT
BRANCH   1   4
ATOM      2  N   UNL     1      -1.060   3.265  -0.365  0.00  0.00    -0.276 N 
ATOM      3  C   UNL     1      -0.908   1.897  -0.410  0.00  0.00    +0.127 A 
ATOM      4  C   UNL     1       0.312   1.348  -0.124  0.00  0.00    +0.134 A 
ATOM      5  C   UNL     1       1.384   2.198   0.198  0.00  0.00    +0.277 A 
ATOM      6  O   UNL     1       2.482   1.732   0.453  0.00  0.00    -0.266 OA
ATOM      7  N   UNL     1       1.192   3.532   0.225  0.00  0.00    -0.273 N 
ATOM      8  H   UNL     1       1.953   4.138   0.454  0.00  0.00    +0.173 HD
ATOM      9  C   UNL     1      -0.016   4.055  -0.054  0.00  0.00    +0.331 A 
ATOM     10  O   UNL     1      -0.167   5.261  -0.024  0.00  0.00    -0.246 OA
BRANCH   3  11
ATOM     11  N   UNL     1      -1.975   1.091  -0.734  0.00  0.00    -0.343 N 
ATOM     12  H   UNL     1      -1.864   0.127  -0.760  0.00  0.00    +0.144 HD
ATOM     13  H   UNL     1      -2.838   1.485  -0.936  0.00  0.00    +0.144 HD
ENDBRANCH   3  11
BRANCH   2  14
ATOM     14  C   UNL     1      -2.363   3.864  -0.664  0.00  0.00    +0.163 C 
BRANCH  14  18
ATOM     15  C   UNL     1      -2.634   4.667  -4.851  0.00  0.00    +0.000 A 
ATOM     16  C   UNL     1      -3.050   3.447  -4.353  0.00  0.00    +0.000 A 
ATOM     17  C   UNL     1      -2.962   3.187  -2.998  0.00  0.00    +0.005 A 
ATOM     18  C   UNL     1      -2.458   4.147  -2.142  0.00  0.00    -0.028 A 
ATOM     19  C   UNL     1      -2.047   5.370  -2.639  0.00  0.00    +0.005 A 
ATOM     20  C   UNL     1      -2.131   5.628  -3.994  0.00  0.00    +0.000 A 
ENDBRANCH  14  18
ENDBRANCH   2  14
ENDBRANCH   1   4
BRANCH   1  21
ATOM     21  C   UNL     1       1.512  -0.430  -1.146  0.00  0.00    +0.110 C 
BRANCH  21  22
ATOM     22  C   UNL     1       0.921  -0.324  -2.553  0.00  0.00    +0.049 C 
BRANCH  22  23
ATOM     23  C   UNL     1       1.924  -0.828  -3.559  0.00  0.00    -0.072 C 
ATOM     24  C   UNL     1       1.836  -2.063  -3.937  0.00  0.00    -0.028 C 
ATOM     25  C   UNL     1       2.767  -2.709  -4.921  0.00  0.00    +0.027 C 
ATOM     26  C   UNL     1       3.526  -1.639  -5.709  0.00  0.00    +0.004 C 
ATOM     27  C   UNL     1       4.115  -0.631  -4.714  0.00  0.00    +0.005 C 
ATOM     28  C   UNL     1       2.959   0.135  -4.063  0.00  0.00    +0.030 C 
ENDBRANCH  22  23
ENDBRANCH  21  22
ENDBRANCH   1  21
BRANCH   1  29
ATOM     29  C   UNL     1       0.834  -0.573   1.174  0.00  0.00    +0.201 C 
BRANCH  29  30
ATOM     30  C   UNL     1       0.629  -2.066   1.200  0.00  0.00    +0.235 C 
ATOM     31  O   UNL     1       0.141  -2.627   0.241  0.00  0.00    -0.274 OA
ATOM     32  N   UNL     1       0.987  -2.777   2.287  0.00  0.00    -0.284 N 
ATOM     33  H   UNL     1       1.308  -2.321   3.081  0.00  0.00    +0.155 HD
BRANCH  32  34
ATOM     34  C   UNL     1       0.894  -4.173   2.272  0.00  0.00    +0.033 A 
ATOM     35  C   UNL     1      -0.154  -4.794   1.606  0.00  0.00    +0.023 A 
ATOM     36  C   UNL     1      -0.239  -6.172   1.588  0.00  0.00    +0.002 A 
ATOM     37  C   UNL     1       0.712  -6.934   2.241  0.00  0.00    +0.000 A 
ATOM     38  C   UNL     1       1.754  -6.318   2.911  0.00  0.00    +0.002 A 
ATOM     39  C   UNL     1       1.848  -4.941   2.928  0.00  0.00    +0.023 A 
ENDBRANCH  32  34
ENDBRANCH  29  30
ENDBRANCH   1  29
TORSDOF 10
