REMARK  Name = ZINC20610660
REMARK  8 active torsions:
REMARK  status: ('A' for Active; 'I' for Inactive)
REMARK    1  A    between atoms: C_1  and  C_2
REMARK    2  A    between atoms: C_2  and  O_3
REMARK    3  A    between atoms: O_3  and  C_4
REMARK    4  A    between atoms: C_4  and  C_6
REMARK    5  A    between atoms: C_9  and  N_12
REMARK    6  A    between atoms: C_17  and  C_36
REMARK    7  A    between atoms: C_27  and  C_35
REMARK    8  A    between atoms: C_36  and  C_37
REMARK                            x       y       z     vdW  Elec       q    Type
REMARK                         _______ _______ _______ _____ _____    ______ ____
ROOT
ATOM      1  N   UNL     1       3.481  -3.958   5.784  0.00  0.00    -0.210 N 
ATOM      2  C   UNL     1       4.104  -3.195   6.689  0.00  0.00    +0.232 C 
ATOM      3  O   UNL     1       4.167  -1.984   6.660  0.00  0.00    -0.274 OA
ATOM      4  C   UNL     1       4.718  -4.076   7.754  0.00  0.00    +0.108 C 
ATOM      5  C   UNL     1       6.256  -4.013   7.639  0.00  0.00    +0.076 C 
ATOM      6  N   UNL     1       6.703  -5.428   7.728  0.00  0.00    -0.295 NA
ATOM      7  C   UNL     1       5.685  -6.177   6.967  0.00  0.00    +0.136 C 
ATOM      8  C   UNL     1       4.328  -5.510   7.300  0.00  0.00    +0.123 C 
ATOM      9  C   UNL     1       3.541  -5.272   6.031  0.00  0.00    +0.233 C 
ATOM     10  O   UNL     1       3.045  -6.137   5.342  0.00  0.00    -0.274 OA
ATOM     11  C   UNL     1       5.974  -6.156   5.493  0.00  0.00    +0.005 A 
ATOM     12  C   UNL     1       6.108  -5.145   4.567  0.00  0.00    +0.011 A 
ATOM     13  C   UNL     1       6.385  -5.448   3.246  0.00  0.00    -0.049 A 
ATOM     14  C   UNL     1       6.526  -6.768   2.857  0.00  0.00    +0.025 A 
ATOM     15  C   UNL     1       6.392  -7.785   3.781  0.00  0.00    +0.063 A 
ATOM     16  C   UNL     1       6.114  -7.488   5.114  0.00  0.00    +0.057 A 
ATOM     17  N   UNL     1       5.936  -8.325   6.218  0.00  0.00    -0.282 N 
ATOM     18  C   UNL     1       5.681  -7.633   7.345  0.00  0.00    +0.243 C 
ATOM     19  O   UNL     1       5.486  -8.094   8.450  0.00  0.00    -0.273 OA
ATOM     20 CL   UNL     1       6.571  -9.437   3.281  0.00  0.00    -0.082 Cl
ATOM     21  C   UNL     1       6.531  -4.342   2.232  0.00  0.00    +0.044 C 
ATOM     22  H   UNL     1       7.618  -5.545   7.320  0.00  0.00    +0.124 HD
ATOM     23  H   UNL     1       5.990  -9.293   6.177  0.00  0.00    +0.155 HD
ENDROOT
BRANCH   1  27
ATOM     24  C   UNL     1       1.500  -2.373   2.476  0.00  0.00    +0.059 A 
ATOM     25  C   UNL     1       0.780  -3.039   3.472  0.00  0.00    +0.017 A 
ATOM     26  C   UNL     1       1.438  -3.561   4.563  0.00  0.00    +0.025 A 
ATOM     27  C   UNL     1       2.817  -3.427   4.675  0.00  0.00    +0.044 A 
ATOM     28  C   UNL     1       3.538  -2.765   3.686  0.00  0.00    +0.025 A 
ATOM     29  C   UNL     1       2.888  -2.245   2.590  0.00  0.00    +0.017 A 
BRANCH  24  30
ATOM     30  C   UNL     1       0.800  -1.812   1.306  0.00  0.00    +0.339 C 
ATOM     31  O   UNL     1       1.428  -1.237   0.439  0.00  0.00    -0.245 OA
BRANCH  30  32
ATOM     32  O   UNL     1      -0.538  -1.935   1.198  0.00  0.00    -0.461 OA
BRANCH  32  34
ATOM     33  C   UNL     1      -2.661  -1.607   0.092  0.00  0.00    +0.048 C 
ATOM     34  C   UNL     1      -1.151  -1.368   0.039  0.00  0.00    +0.229 C 
ENDBRANCH  32  34
ENDBRANCH  30  32
ENDBRANCH  24  30
ENDBRANCH   1  27
BRANCH   5  35
ATOM     35  C   UNL     1       6.843  -3.193   8.789  0.00  0.00    +0.115 C 
BRANCH  35  36
ATOM     36  C   UNL     1       8.329  -3.041   8.591  0.00  0.00    +0.212 C 
ATOM     37  O   UNL     1       8.866  -3.539   7.624  0.00  0.00    -0.276 OA
ATOM     38  N   UNL     1       9.062  -2.351   9.487  0.00  0.00    -0.329 N 
ATOM     39  H   UNL     1       8.632  -1.952  10.260  0.00  0.00    +0.145 HD
ATOM     40  H   UNL     1      10.018  -2.253   9.359  0.00  0.00    +0.145 HD
ENDBRANCH  35  36
ENDBRANCH   5  35
TORSDOF 6
