REMARK  Name = ZINC48403311
REMARK  5 active torsions:
REMARK  status: ('A' for Active; 'I' for Inactive)
REMARK    1  A    between atoms: C_1  and  C_2
REMARK    2  A    between atoms: C_7  and  N_12
REMARK    3  A    between atoms: C_9  and  C_11
REMARK    4  A    between atoms: N_12  and  C_13
REMARK    5  A    between atoms: C_13  and  C_23
REMARK                            x       y       z     vdW  Elec       q    Type
REMARK                         _______ _______ _______ _____ _____    ______ ____
ROOT
ATOM      1  C   UNL     1       2.057  -3.741   2.406  0.00  0.00    +0.018 C 
ATOM      2  C   UNL     1       2.741  -4.012   3.576  0.00  0.00    +0.115 C 
ATOM      3  C   UNL     1       2.712  -3.080   4.718  0.00  0.00    +0.256 C 
ATOM      4  O   UNL     1       2.082  -2.041   4.660  0.00  0.00    -0.270 OA
ATOM      5  N   UNL     1       3.404  -3.410   5.828  0.00  0.00    -0.263 N 
ATOM      6  C   UNL     1       4.103  -4.552   5.904  0.00  0.00    +0.143 C 
ATOM      7  S   UNL     1       4.950  -4.888   7.353  0.00  0.00    -0.018 S 
ATOM      8  N   UNL     1       4.173  -5.444   4.906  0.00  0.00    -0.263 N 
ATOM      9  C   UNL     1       3.526  -5.249   3.739  0.00  0.00    +0.256 C 
ATOM     10  O   UNL     1       3.594  -6.069   2.842  0.00  0.00    -0.270 OA
ATOM     11  C   UNL     1       1.988  -4.778   1.315  0.00  0.00    +0.061 C 
ATOM     12  H   UNL     1       3.396  -2.808   6.588  0.00  0.00    +0.157 HD
ATOM     13  H   UNL     1       4.697  -6.251   5.028  0.00  0.00    +0.157 HD
ENDROOT
BRANCH   1  14
ATOM     14  N   UNL     1       1.450  -2.548   2.241  0.00  0.00    -0.343 N 
ATOM     15  H   UNL     1       1.422  -1.913   2.973  0.00  0.00    +0.146 HD
BRANCH  14  21
ATOM     16  C   UNL     1       0.095   1.183  -0.706  0.00  0.00    +0.008 C 
ATOM     17  C   UNL     1       0.143  -0.338  -0.547  0.00  0.00    -0.009 C 
ATOM     18  C   UNL     1      -1.278  -0.902  -0.596  0.00  0.00    +0.003 C 
ATOM     19  C   UNL     1      -1.229  -2.423  -0.437  0.00  0.00    +0.002 C 
ATOM     20  C   UNL     1      -0.586  -2.775   0.906  0.00  0.00    +0.022 C 
ATOM     21  C   UNL     1       0.835  -2.211   0.955  0.00  0.00    +0.073 C 
ATOM     22  C   UNL     1       0.786  -0.690   0.796  0.00  0.00    +0.009 C 
ATOM     23  C   UNL     1      -0.042  -0.085   1.931  0.00  0.00    +0.009 C 
ENDBRANCH  14  21
ENDBRANCH   1  14
TORSDOF 2
