REMARK  Name = ZINC15002595
REMARK  3 active torsions:
REMARK  status: ('A' for Active; 'I' for Inactive)
REMARK    1  A    between atoms: C_10  and  N_11
REMARK    2  A    between atoms: C_13  and  C_18
REMARK    3  A    between atoms: N_20  and  C_21
REMARK                            x       y       z     vdW  Elec       q    Type
REMARK                         _______ _______ _______ _____ _____    ______ ____
ROOT
ATOM      1  N   UNL     1       6.252   2.520  -1.801  0.00  0.00    -0.270 N 
ATOM      2  C   UNL     1       6.046   2.316  -0.362  0.00  0.00    +0.127 C 
ATOM      3  C   UNL     1       4.863   1.328  -0.252  0.00  0.00    +0.102 C 
ATOM      4  C   UNL     1       4.947   0.583  -1.604  0.00  0.00    +0.110 C 
ATOM      5  C   UNL     1       5.650   1.558  -2.522  0.00  0.00    +0.221 C 
ATOM      6  O   UNL     1       5.669   1.483  -3.732  0.00  0.00    -0.275 OA
ENDROOT
BRANCH   1  16
ATOM      7  C   UNL     1       5.117   7.189  -3.345  0.00  0.00    +0.001 A 
ATOM      8  C   UNL     1       4.372   6.147  -2.798  0.00  0.00    +0.001 A 
ATOM      9  C   UNL     1       4.960   4.964  -2.467  0.00  0.00    +0.010 A 
ATOM     10  C   UNL     1       6.335   4.787  -2.685  0.00  0.00    +0.004 A 
ATOM     11  C   UNL     1       7.095   5.848  -3.237  0.00  0.00    -0.016 A 
ATOM     12  C   UNL     1       6.453   7.055  -3.565  0.00  0.00    +0.008 A 
ATOM     13  C   UNL     1       8.473   5.675  -3.450  0.00  0.00    +0.008 A 
ATOM     14  C   UNL     1       9.068   4.495  -3.122  0.00  0.00    +0.002 A 
ATOM     15  C   UNL     1       8.333   3.447  -2.575  0.00  0.00    +0.024 A 
ATOM     16  C   UNL     1       6.979   3.577  -2.350  0.00  0.00    +0.044 A 
ENDBRANCH   1  16
BRANCH   3  17
ATOM     17  C   UNL     1       3.555   2.065  -0.122  0.00  0.00    +0.222 C 
ATOM     18  O   UNL     1       3.541   3.278  -0.116  0.00  0.00    -0.275 OA
ATOM     19  N   UNL     1       2.401   1.377  -0.013  0.00  0.00    -0.283 N 
ATOM     20  H   UNL     1       2.418   0.409   0.047  0.00  0.00    +0.155 HD
BRANCH  19  21
ATOM     21  C   UNL     1       1.178   2.060   0.013  0.00  0.00    +0.072 A 
ATOM     22  C   UNL     1       1.089   3.303   0.625  0.00  0.00    +0.029 A 
ATOM     23  C   UNL     1      -0.118   3.975   0.651  0.00  0.00    +0.043 A 
ATOM     24  C   UNL     1      -1.240   3.412   0.067  0.00  0.00    +0.161 A 
ATOM     25  C   UNL     1      -1.154   2.173  -0.550  0.00  0.00    +0.195 A 
ATOM     26  C   UNL     1       0.052   1.494  -0.573  0.00  0.00    +0.182 A 
ATOM     27  F   UNL     1       0.136   0.284  -1.169  0.00  0.00    -0.200 F 
ATOM     28  F   UNL     1      -2.248   1.628  -1.124  0.00  0.00    -0.199 F 
ATOM     29  F   UNL     1      -2.418   4.073   0.093  0.00  0.00    -0.202 F 
ENDBRANCH  19  21
ENDBRANCH   3  17
TORSDOF 3
