REMARK  Name = ZINC20569458
REMARK  6 active torsions:
REMARK  status: ('A' for Active; 'I' for Inactive)
REMARK    1  A    between atoms: C_4  and  S_7
REMARK    2  A    between atoms: S_7  and  N_10
REMARK    3  A    between atoms: N_10  and  C_11
REMARK    4  A    between atoms: C_16  and  C_17
REMARK    5  A    between atoms: N_19  and  C_20
REMARK    6  A    between atoms: C_21  and  C_29
REMARK                            x       y       z     vdW  Elec       q    Type
REMARK                         _______ _______ _______ _____ _____    ______ ____
ROOT
ATOM      1  C   UNL     1       1.047   1.864  -0.194  0.00  0.00    +0.250 C 
ATOM      2  O   UNL     1       1.125   3.068  -0.041  0.00  0.00    -0.270 OA
ATOM      3  N   UNL     1      -0.161   1.273  -0.282  0.00  0.00    -0.275 N 
ATOM      4  H   UNL     1      -0.232   0.183  -0.416  0.00  0.00    +0.156 HD
ENDROOT
BRANCH   3   5
ATOM      5  C   UNL     1      -1.314   2.037  -0.205  0.00  0.00    +0.085 A 
ATOM      6  C   UNL     1      -2.634   1.617  -0.285  0.00  0.00    +0.068 A 
ATOM      7  C   UNL     1      -3.670   2.630  -0.168  0.00  0.00    -0.023 A 
ATOM      8  C   UNL     1      -3.222   3.893  -0.003  0.00  0.00    -0.004 A 
ATOM      9  S   UNL     1      -1.457   3.751   0.008  0.00  0.00    -0.077 S 
ATOM     10  C   UNL     1      -4.049   5.134   0.139  0.00  0.00    +0.043 C 
ATOM     11  C   UNL     1      -5.484   4.812  -0.306  0.00  0.00    +0.005 C 
ATOM     12  C   UNL     1      -5.928   3.510   0.367  0.00  0.00    +0.005 C 
ATOM     13  C   UNL     1      -5.162   2.328  -0.229  0.00  0.00    +0.037 C 
BRANCH   6  14
ATOM     14  C   UNL     1      -2.972   0.203  -0.476  0.00  0.00    +0.244 C 
ATOM     15  O   UNL     1      -3.133  -0.520   0.490  0.00  0.00    -0.270 OA
ATOM     16  N   UNL     1      -3.105  -0.296  -1.720  0.00  0.00    -0.325 N 
ATOM     17  H   UNL     1      -3.358  -1.357  -1.863  0.00  0.00    +0.145 HD
ATOM     18  H   UNL     1      -2.959   0.357  -2.593  0.00  0.00    +0.145 HD
ENDBRANCH   6  14
ENDBRANCH   3   5
BRANCH   1  24
ATOM     19  C   UNL     1       3.534   1.664  -0.197  0.00  0.00    +0.060 A 
ATOM     20  C   UNL     1       4.682   0.886  -0.277  0.00  0.00    +0.025 A 
ATOM     21  C   UNL     1       4.582  -0.479  -0.450  0.00  0.00    +0.002 A 
ATOM     22  C   UNL     1       3.339  -1.086  -0.540  0.00  0.00    +0.001 A 
ATOM     23  C   UNL     1       2.189  -0.332  -0.458  0.00  0.00    +0.015 A 
ATOM     24  C   UNL     1       2.273   1.052  -0.282  0.00  0.00    +0.059 A 
BRANCH  19  25
ATOM     25  N   UNL     1       3.632   3.039  -0.028  0.00  0.00    -0.216 N 
ATOM     26  H   UNL     1       2.893   3.571   0.588  0.00  0.00    +0.174 HD
BRANCH  25  27
ATOM     27  S   UNL     1       4.862   3.876  -0.754  0.00  0.00    +0.072 S 
ATOM     28  O   UNL     1       4.617   5.254  -0.507  0.00  0.00    -0.150 OA
ATOM     29  O   UNL     1       6.072   3.237  -0.369  0.00  0.00    -0.150 OA
BRANCH  27  33
ATOM     30  C   UNL     1       4.442   3.268  -5.220  0.00  0.00    +0.000 A 
ATOM     31  C   UNL     1       3.808   4.330  -4.605  0.00  0.00    +0.002 A 
ATOM     32  C   UNL     1       3.936   4.516  -3.241  0.00  0.00    +0.029 A 
ATOM     33  C   UNL     1       4.699   3.639  -2.493  0.00  0.00    +0.108 A 
ATOM     34  C   UNL     1       5.338   2.580  -3.109  0.00  0.00    +0.029 A 
ATOM     35  C   UNL     1       5.206   2.391  -4.472  0.00  0.00    +0.002 A 
ENDBRANCH  27  33
ENDBRANCH  25  27
ENDBRANCH  19  25
ENDBRANCH   1  24
TORSDOF 6
