REMARK  Name = ZINC13500084
REMARK  12 active torsions:
REMARK  status: ('A' for Active; 'I' for Inactive)
REMARK    1  A    between atoms: C_1  and  C_2
REMARK    2  A    between atoms: C_2  and  C_3
REMARK    3  A    between atoms: C_3  and  C_4
REMARK    4  A    between atoms: C_4  and  C_6
REMARK    5  A    between atoms: C_4  and  N_75
REMARK    6  A    between atoms: N_10  and  C_11
REMARK    7  A    between atoms: C_11  and  C_12
REMARK    8  A    between atoms: C_18  and  C_19
REMARK    9  A    between atoms: C_18  and  N_75
REMARK   10  A    between atoms: C_23  and  C_32
REMARK   11  A    between atoms: C_25  and  C_31
REMARK   12  A    between atoms: C_33  and  N_75
REMARK                            x       y       z     vdW  Elec       q    Type
REMARK                         _______ _______ _______ _____ _____    ______ ____
ROOT
ATOM      1  N   UNL     1      -0.313   2.830   1.329  0.00  0.00    +0.391 N 
ATOM      2  H   UNL     1      -0.499   3.264   2.241  0.00  0.00    -0.080 HD
ENDROOT
BRANCH   1   3
ATOM      3  C   UNL     1       1.125   2.966   1.016  0.00  0.00    -0.067 C 
ATOM      4  C   UNL     1       1.480   2.160  -0.234  0.00  0.00    -0.015 C 
ATOM      5  C   UNL     1       2.973   2.314  -0.533  0.00  0.00    -0.002 C 
ATOM      6  C   UNL     1       3.787   1.798   0.655  0.00  0.00    -0.000 C 
ATOM      7  C   UNL     1       3.432   2.604   1.905  0.00  0.00    -0.002 C 
ATOM      8  C   UNL     1       1.939   2.450   2.204  0.00  0.00    -0.015 C 
ENDBRANCH   1   3
BRANCH   1   9
ATOM      9  C   UNL     1      -0.683   1.401   1.393  0.00  0.00    +0.003 C 
BRANCH   9  10
ATOM     10  C   UNL     1      -0.790   0.820   0.006  0.00  0.00    +0.138 A 
ATOM     11  N   UNL     1      -1.464   1.319  -1.001  0.00  0.00    -0.115 NA
ATOM     12  N   UNL     1      -1.305   0.536  -2.012  0.00  0.00    -0.023 NA
ATOM     13  N   UNL     1      -0.554  -0.453  -1.674  0.00  0.00    -0.044 NA
ATOM     14  N   UNL     1      -0.215  -0.314  -0.437  0.00  0.00    -0.226 N 
BRANCH  14  15
ATOM     15  C   UNL     1       0.634  -1.220   0.340  0.00  0.00    +0.182 C 
BRANCH  15  16
ATOM     16  C   UNL     1      -0.223  -2.267   1.003  0.00  0.00    -0.026 A 
ATOM     17  C   UNL     1      -0.734  -2.043   2.268  0.00  0.00    +0.005 A 
ATOM     18  C   UNL     1      -1.525  -3.001   2.874  0.00  0.00    +0.000 A 
ATOM     19  C   UNL     1      -1.795  -4.189   2.220  0.00  0.00    +0.000 A 
ATOM     20  C   UNL     1      -1.280  -4.415   0.957  0.00  0.00    +0.000 A 
ATOM     21  C   UNL     1      -0.494  -3.454   0.349  0.00  0.00    +0.005 A 
ENDBRANCH  15  16
ENDBRANCH  14  15
ENDBRANCH   9  10
BRANCH   9  22
ATOM     22  C   UNL     1      -2.033   1.274   2.103  0.00  0.00    -0.008 C 
BRANCH  22  24
ATOM     23  C   UNL     1      -3.264   1.728   4.230  0.00  0.00    +0.004 C 
ATOM     24  C   UNL     1      -1.891   1.742   3.554  0.00  0.00    -0.005 C 
ENDBRANCH  22  24
ENDBRANCH   9  22
ENDBRANCH   1   9
BRANCH   1  25
ATOM     25  C   UNL     1      -1.121   3.515   0.298  0.00  0.00    -0.036 C 
BRANCH  25  26
ATOM     26  C   UNL     1      -1.019   5.003   0.513  0.00  0.00    +0.001 A 
ATOM     27  C   UNL     1      -0.122   5.729  -0.198  0.00  0.00    +0.017 A 
ATOM     28  C   UNL     1      -0.051   7.173   0.031  0.00  0.00    -0.001 A 
ATOM     29  C   UNL     1       0.851   7.975  -0.676  0.00  0.00    +0.013 A 
ATOM     30  C   UNL     1       0.897   9.319  -0.434  0.00  0.00    -0.050 A 
ATOM     31  C   UNL     1       0.055   9.896   0.508  0.00  0.00    +0.008 A 
ATOM     32  C   UNL     1      -0.842   9.126   1.215  0.00  0.00    -0.026 A 
ATOM     33  C   UNL     1      -0.906   7.755   0.986  0.00  0.00    +0.052 A 
ATOM     34  N   UNL     1      -1.793   6.960   1.680  0.00  0.00    -0.322 N 
ATOM     35  H   UNL     1      -2.382   7.363   2.338  0.00  0.00    +0.169 HD
ATOM     36  C   UNL     1      -1.854   5.636   1.460  0.00  0.00    +0.251 A 
ATOM     37  O   UNL     1      -2.650   4.964   2.092  0.00  0.00    -0.268 OA
ATOM     38  C   UNL     1      -1.750   9.766   2.233  0.00  0.00    +0.046 C 
ATOM     39  C   UNL     1       1.869  10.182  -1.195  0.00  0.00    +0.044 C 
ENDBRANCH  25  26
ENDBRANCH   1  25
TORSDOF 9
