REMARK  Name = ZINC14350419
REMARK  5 active torsions:
REMARK  status: ('A' for Active; 'I' for Inactive)
REMARK    1  A    between atoms: C_12  and  N_14
REMARK    2  A    between atoms: C_15  and  C_17
REMARK    3  A    between atoms: C_17  and  C_18
REMARK    4  A    between atoms: C_18  and  C_20
REMARK    5  A    between atoms: C_18  and  N_25
REMARK                            x       y       z     vdW  Elec       q    Type
REMARK                         _______ _______ _______ _____ _____    ______ ____
ROOT
ATOM      1  N   UNL     1       6.169  -4.170  -0.079  0.00  0.00    -0.285 N 
ATOM      2  C   UNL     1       7.495  -3.961  -0.193  0.00  0.00    +0.219 C 
ATOM      3  O   UNL     1       7.933  -2.830  -0.191  0.00  0.00    -0.275 OA
ATOM      4  H   UNL     1       5.824  -5.075  -0.013  0.00  0.00    +0.155 HD
ENDROOT
BRANCH   1  16
ATOM      5  C   UNL     1       1.892   2.911   0.714  0.00  0.00    +0.000 A 
ATOM      6  C   UNL     1       1.087   2.022   0.025  0.00  0.00    +0.001 A 
ATOM      7  C   UNL     1       1.540   0.749  -0.257  0.00  0.00    +0.009 A 
ATOM      8  C   UNL     1       2.815   0.356   0.155  0.00  0.00    -0.014 A 
ATOM      9  C   UNL     1       3.617   1.258   0.848  0.00  0.00    -0.035 A 
ATOM     10  C   UNL     1       3.156   2.528   1.124  0.00  0.00    +0.004 A 
ATOM     11  C   UNL     1       4.920   0.563   1.158  0.00  0.00    +0.071 C 
ATOM     12  C   UNL     1       4.800  -0.826   0.581  0.00  0.00    -0.034 A 
ATOM     13  C   UNL     1       3.542  -0.927  -0.010  0.00  0.00    -0.014 A 
ATOM     14  C   UNL     1       3.166  -2.123  -0.626  0.00  0.00    +0.010 A 
ATOM     15  C   UNL     1       4.036  -3.191  -0.647  0.00  0.00    +0.024 A 
ATOM     16  C   UNL     1       5.289  -3.084  -0.056  0.00  0.00    +0.034 A 
ATOM     17  C   UNL     1       5.667  -1.895   0.558  0.00  0.00    +0.027 A 
ENDBRANCH   1  16
BRANCH   2  18
ATOM     18  C   UNL     1       8.435  -5.132  -0.322  0.00  0.00    +0.123 C 
BRANCH  18  19
ATOM     19  C   UNL     1       9.873  -4.623  -0.435  0.00  0.00    +0.120 C 
BRANCH  19  20
ATOM     20  N   UNL     1      10.026  -3.864  -1.679  0.00  0.00    -0.292 N 
ATOM     21  C   UNL     1      10.984  -2.921  -1.780  0.00  0.00    +0.298 C 
ATOM     22  O   UNL     1      11.721  -2.701  -0.839  0.00  0.00    -0.253 OA
ATOM     23  N   UNL     1      11.125  -2.224  -2.924  0.00  0.00    -0.313 N 
ATOM     24  H   UNL     1       9.438  -4.040  -2.430  0.00  0.00    +0.151 HD
ATOM     25  H   UNL     1      10.537  -2.400  -3.675  0.00  0.00    +0.146 HD
ATOM     26  H   UNL     1      11.814  -1.545  -2.997  0.00  0.00    +0.146 HD
ENDBRANCH  19  20
BRANCH  19  27
ATOM     27  C   UNL     1      10.822  -5.793  -0.441  0.00  0.00    +0.010 A 
ATOM     28  C   UNL     1      11.561  -6.298   0.577  0.00  0.00    +0.013 A 
ATOM     29  C   UNL     1      12.371  -7.392   0.339  0.00  0.00    +0.008 A 
ATOM     30  C   UNL     1      12.403  -7.928  -0.906  0.00  0.00    +0.045 A 
ATOM     31  S   UNL     1      11.258  -6.881  -1.788  0.00  0.00    -0.100 S 
ENDBRANCH  19  27
ENDBRANCH  18  19
ENDBRANCH   2  18
TORSDOF 5
