REMARK  Name = ZINC03528616
REMARK  11 active torsions:
REMARK  status: ('A' for Active; 'I' for Inactive)
REMARK    1  A    between atoms: C_1  and  C_2
REMARK    2  A    between atoms: C_2  and  C_3
REMARK    3  A    between atoms: C_2  and  C_4
REMARK    4  A    between atoms: C_4  and  N_5
REMARK    5  A    between atoms: C_6  and  N_28
REMARK    6  A    between atoms: C_7  and  N_14
REMARK    7  A    between atoms: N_14  and  C_15
REMARK    8  A    between atoms: C_15  and  C_16
REMARK    9  A    between atoms: C_16  and  C_17
REMARK   10  A    between atoms: C_16  and  C_18
REMARK   11  A    between atoms: C_19  and  C_21
REMARK                            x       y       z     vdW  Elec       q    Type
REMARK                         _______ _______ _______ _____ _____    ______ ____
ROOT
ATOM      1  N   UNL     1       0.213  -0.822  -0.979  0.00  0.00    -0.280 N 
ATOM      2  C   UNL     1      -0.033  -1.809  -0.053  0.00  0.00    +0.127 A 
ATOM      3  C   UNL     1       0.559  -1.730   1.190  0.00  0.00    +0.140 A 
ATOM      4  C   UNL     1       1.399  -0.637   1.474  0.00  0.00    +0.277 A 
ATOM      5  O   UNL     1       1.935  -0.542   2.566  0.00  0.00    -0.266 OA
ATOM      6  N   UNL     1       1.607   0.304   0.532  0.00  0.00    -0.273 N 
ATOM      7  H   UNL     1       2.259   1.164   0.748  0.00  0.00    +0.173 HD
ATOM      8  C   UNL     1       1.025   0.207  -0.676  0.00  0.00    +0.331 A 
ATOM      9  O   UNL     1       1.233   1.068  -1.509  0.00  0.00    -0.246 OA
ENDROOT
BRANCH   3  10
ATOM     10  N   UNL     1       0.327  -2.727   2.160  0.00  0.00    -0.260 N 
ATOM     11  C   UNL     1      -0.203  -2.395   3.354  0.00  0.00    +0.251 C 
ATOM     12  O   UNL     1      -0.342  -3.242   4.215  0.00  0.00    -0.270 OA
BRANCH  11  13
ATOM     13  C   UNL     1      -0.616  -1.000   3.618  0.00  0.00    +0.038 A 
ATOM     14  C   UNL     1      -0.679  -0.523   4.928  0.00  0.00    +0.013 A 
ATOM     15  C   UNL     1      -1.064   0.780   5.167  0.00  0.00    +0.002 A 
ATOM     16  C   UNL     1      -1.388   1.614   4.111  0.00  0.00    +0.014 A 
ATOM     17  C   UNL     1      -1.327   1.148   2.810  0.00  0.00    +0.014 A 
ATOM     18  C   UNL     1      -0.938  -0.152   2.557  0.00  0.00    +0.027 A 
ATOM     19  I   UNL     1      -1.819   2.420   1.220  0.00  0.00    -0.044 I 
ENDBRANCH  11  13
BRANCH  10  20
ATOM     20  C   UNL     1       0.661  -4.123   1.871  0.00  0.00    +0.117 C 
BRANCH  20  21
ATOM     21  C   UNL     1       2.111  -4.396   2.278  0.00  0.00    +0.001 C 
ATOM     22  C   UNL     1       2.417  -5.885   2.107  0.00  0.00    +0.009 C 
ATOM     23  C   UNL     1       3.052  -3.576   1.392  0.00  0.00    +0.009 C 
ENDBRANCH  20  21
ENDBRANCH  10  20
ENDBRANCH   3  10
BRANCH   2  24
ATOM     24  N   UNL     1      -0.859  -2.863  -0.364  0.00  0.00    -0.343 N 
ATOM     25  H   UNL     1      -1.051  -3.649   0.380  0.00  0.00    +0.144 HD
ATOM     26  H   UNL     1      -1.328  -2.919  -1.358  0.00  0.00    +0.144 HD
ENDBRANCH   2  24
BRANCH   1  27
ATOM     27  C   UNL     1      -0.409  -0.893  -2.303  0.00  0.00    +0.131 C 
BRANCH  27  29
ATOM     28  C   UNL     1      -2.352  -0.141  -3.682  0.00  0.00    +0.009 C 
ATOM     29  C   UNL     1      -1.760  -0.175  -2.272  0.00  0.00    +0.003 C 
ATOM     30  C   UNL     1      -2.713  -0.922  -1.336  0.00  0.00    +0.009 C 
ENDBRANCH  27  29
ENDBRANCH   1  27
TORSDOF 7
