REMARK  Name = ZINC11568933
REMARK  7 active torsions:
REMARK  status: ('A' for Active; 'I' for Inactive)
REMARK    1  A    between atoms: C_1  and  C_2
REMARK    2  A    between atoms: N_6  and  C_15
REMARK    3  A    between atoms: C_9  and  N_14
REMARK    4  A    between atoms: C_15  and  C_16
REMARK    5  A    between atoms: C_16  and  C_18
REMARK    6  A    between atoms: C_16  and  O_20
REMARK    7  A    between atoms: C_18  and  O_19
REMARK                            x       y       z     vdW  Elec       q    Type
REMARK                         _______ _______ _______ _____ _____    ______ ____
ROOT
ATOM      1  C   UNL     1       1.256   7.842  -2.421  0.00  0.00    +0.062 C 
ATOM      2  C   UNL     1       2.116   7.369  -1.247  0.00  0.00    +0.256 C 
ATOM      3  C   UNL     1       2.222   5.865  -1.273  0.00  0.00    +0.260 C 
ATOM      4  O   UNL     1       2.150   5.268  -2.327  0.00  0.00    -0.271 OA
ATOM      5  N   UNL     1       2.392   5.185  -0.119  0.00  0.00    -0.263 N 
ATOM      6  C   UNL     1       2.442   5.897   1.088  0.00  0.00    +0.080 A 
ATOM      7  C   UNL     1       2.930   5.302   2.239  0.00  0.00    +0.050 A 
ATOM      8  C   UNL     1       2.970   6.024   3.425  0.00  0.00    +0.027 A 
ATOM      9  C   UNL     1       2.522   7.338   3.454  0.00  0.00    +0.026 A 
ATOM     10  C   UNL     1       2.035   7.932   2.305  0.00  0.00    +0.049 A 
ATOM     11  C   UNL     1       1.994   7.217   1.121  0.00  0.00    +0.143 A 
ATOM     12  O   UNL     1       1.519   7.790  -0.018  0.00  0.00    -0.478 OA
ENDROOT
BRANCH   8  13
ATOM     13  N   UNL     1       3.463   5.426   4.591  0.00  0.00    -0.358 N 
ATOM     14  H   UNL     1       3.776   4.509   4.571  0.00  0.00    +0.142 HD
ATOM     15  H   UNL     1       3.491   5.930   5.419  0.00  0.00    +0.142 HD
ENDBRANCH   8  13
BRANCH   5  16
ATOM     16  C   UNL     1       2.527   3.727  -0.128  0.00  0.00    +0.147 C 
BRANCH  16  17
ATOM     17  C   UNL     1       1.145   3.085   0.008  0.00  0.00    +0.157 C 
BRANCH  17  18
ATOM     18  O   UNL     1       0.546   3.500   1.237  0.00  0.00    -0.388 OA
ATOM     19  H   UNL     1       1.052   3.256   2.023  0.00  0.00    +0.210 HD
ENDBRANCH  17  18
BRANCH  17  20
ATOM     20  C   UNL     1       1.286   1.562  -0.002  0.00  0.00    +0.188 C 
BRANCH  20  21
ATOM     21  O   UNL     1      -0.011   0.963   0.007  0.00  0.00    -0.392 OA
ATOM     22  H   UNL     1       0.002  -0.004   0.002  0.00  0.00    +0.210 HD
ENDBRANCH  20  21
ENDBRANCH  17  20
ENDBRANCH  16  17
ENDBRANCH   5  16
TORSDOF 6
