REMARK  Name = ZINC00675544
REMARK  10 active torsions:
REMARK  status: ('A' for Active; 'I' for Inactive)
REMARK    1  A    between atoms: C_1  and  C_2
REMARK    2  A    between atoms: C_2  and  C_3
REMARK    3  A    between atoms: C_2  and  C_4
REMARK    4  A    between atoms: C_2  and  C_5
REMARK    5  A    between atoms: C_8  and  C_12
REMARK    6  A    between atoms: N_14  and  C_15
REMARK    7  A    between atoms: C_15  and  N_17
REMARK    8  A    between atoms: N_17  and  C_18
REMARK    9  A    between atoms: C_21  and  S_24
REMARK   10  A    between atoms: S_24  and  N_27
REMARK                            x       y       z     vdW  Elec       q    Type
REMARK                         _______ _______ _______ _____ _____    ______ ____
ROOT
ATOM      1  C   UNL     1      -5.101   3.279  -0.357  0.00  0.00    +0.141 C 
ATOM      2  S   UNL     1      -5.313   4.842  -1.024  0.00  0.00    -0.018 S 
ENDROOT
BRANCH   1   5
ATOM      3  C   UNL     1      -2.828   3.363  -0.880  0.00  0.00    +0.250 C 
ATOM      4  O   UNL     1      -2.978   4.472  -1.354  0.00  0.00    -0.270 OA
ATOM      5  N   UNL     1      -3.882   2.706  -0.356  0.00  0.00    -0.264 N 
ATOM      6  H   UNL     1      -3.762   1.821   0.022  0.00  0.00    +0.157 HD
BRANCH   3  10
ATOM      7  C   UNL     1       1.016   1.557  -0.875  0.00  0.00    -0.028 A 
ATOM      8  C   UNL     1      -0.064   0.880  -0.336  0.00  0.00    +0.006 A 
ATOM      9  C   UNL     1      -1.316   1.459  -0.340  0.00  0.00    +0.013 A 
ATOM     10  C   UNL     1      -1.490   2.735  -0.879  0.00  0.00    +0.038 A 
ATOM     11  C   UNL     1      -0.397   3.413  -1.421  0.00  0.00    +0.028 A 
ATOM     12  C   UNL     1       0.850   2.820  -1.416  0.00  0.00    +0.022 A 
ATOM     13 BR   UNL     1       2.333   3.736  -2.149  0.00  0.00    -0.050 Br
BRANCH   7  15
ATOM     14  C   UNL     1       2.285  -0.484  -0.263  0.00  0.00    +0.015 C 
ATOM     15  C   UNL     1       2.380   0.915  -0.873  0.00  0.00    -0.012 C 
ATOM     16  C   UNL     1       2.897   0.812  -2.309  0.00  0.00    +0.015 C 
ATOM     17  C   UNL     1       3.344   1.768  -0.045  0.00  0.00    +0.015 C 
ENDBRANCH   7  15
ENDBRANCH   3  10
ENDBRANCH   1   5
BRANCH   1  18
ATOM     18  N   UNL     1      -6.155   2.622   0.167  0.00  0.00    -0.297 N 
ATOM     19  H   UNL     1      -6.049   1.713   0.488  0.00  0.00    +0.154 HD
BRANCH  18  20
ATOM     20  C   UNL     1      -7.402   3.251   0.247  0.00  0.00    +0.033 A 
ATOM     21  C   UNL     1      -8.149   3.170   1.415  0.00  0.00    +0.025 A 
ATOM     22  C   UNL     1      -9.377   3.797   1.493  0.00  0.00    +0.030 A 
ATOM     23  C   UNL     1      -9.869   4.494   0.405  0.00  0.00    +0.105 A 
ATOM     24  C   UNL     1      -9.130   4.572  -0.762  0.00  0.00    +0.030 A 
ATOM     25  C   UNL     1      -7.899   3.953  -0.844  0.00  0.00    +0.025 A 
BRANCH  23  26
ATOM     26  S   UNL     1     -11.440   5.286   0.505  0.00  0.00    +0.056 S 
ATOM     27  O   UNL     1     -11.687   5.524   1.884  0.00  0.00    -0.153 OA
ATOM     28  O   UNL     1     -11.431   6.330  -0.458  0.00  0.00    -0.153 OA
BRANCH  26  29
ATOM     29  N   UNL     1     -12.574   4.188   0.004  0.00  0.00    -0.204 NA
ATOM     30  H   UNL     1     -12.300   3.300  -0.273  0.00  0.00    +0.144 HD
ATOM     31  H   UNL     1     -13.512   4.434  -0.015  0.00  0.00    +0.144 HD
ENDBRANCH  26  29
ENDBRANCH  23  26
ENDBRANCH  18  20
ENDBRANCH   1  18
TORSDOF 7
