REMARK  Name = ZINC55941213
REMARK  11 active torsions:
REMARK  status: ('A' for Active; 'I' for Inactive)
REMARK    1  A    between atoms: C_1  and  C_2
REMARK    2  A    between atoms: C_4  and  C_28
REMARK    3  A    between atoms: C_6  and  O_8
REMARK    4  A    between atoms: O_8  and  C_9
REMARK    5  A    between atoms: C_12  and  N_15
REMARK    6  A    between atoms: C_16  and  C_18
REMARK    7  A    between atoms: C_18  and  C_20
REMARK    8  A    between atoms: C_18  and  N_24
REMARK    9  A    between atoms: C_20  and  C_21
REMARK   10  A    between atoms: C_21  and  S_22
REMARK   11  A    between atoms: S_22  and  C_23
REMARK                            x       y       z     vdW  Elec       q    Type
REMARK                         _______ _______ _______ _____ _____    ______ ____
ROOT
ATOM      1  N   UNL     1       0.460   0.111   7.056  0.00  0.00    -0.284 N 
ATOM      2  C   UNL     1      -0.217   1.267   7.198  0.00  0.00    +0.238 C 
ATOM      3  O   UNL     1      -0.845   1.721   6.265  0.00  0.00    -0.273 OA
ATOM      4  H   UNL     1       1.010  -0.222   7.784  0.00  0.00    +0.155 HD
ENDROOT
BRANCH   1   8
ATOM      5  C   UNL     1       0.197  -2.037   3.492  0.00  0.00    +0.129 A 
ATOM      6  C   UNL     1       0.178  -0.649   3.469  0.00  0.00    +0.048 A 
ATOM      7  C   UNL     1       0.265   0.062   4.649  0.00  0.00    +0.027 A 
ATOM      8  C   UNL     1       0.372  -0.611   5.859  0.00  0.00    +0.034 A 
ATOM      9  C   UNL     1       0.391  -1.999   5.881  0.00  0.00    +0.027 A 
ATOM     10  C   UNL     1       0.298  -2.709   4.701  0.00  0.00    +0.048 A 
BRANCH   5  11
ATOM     11  O   UNL     1       0.111  -2.737   2.330  0.00  0.00    -0.456 OA
BRANCH  11  17
ATOM     12  C   UNL     1       2.553   0.076  -0.824  0.00  0.00    +0.044 C 
ATOM     13  C   UNL     1       1.305  -0.658  -0.407  0.00  0.00    -0.047 A 
ATOM     14  C   UNL     1       0.182  -0.625  -1.213  0.00  0.00    +0.007 A 
ATOM     15  C   UNL     1      -0.965  -1.298  -0.834  0.00  0.00    -0.047 A 
ATOM     16  C   UNL     1      -0.991  -2.006   0.352  0.00  0.00    +0.049 A 
ATOM     17  C   UNL     1       0.135  -2.041   1.163  0.00  0.00    +0.129 A 
ATOM     18  C   UNL     1       1.286  -1.369   0.777  0.00  0.00    +0.049 A 
ATOM     19  C   UNL     1      -2.187  -1.258  -1.714  0.00  0.00    +0.044 C 
ENDBRANCH  11  17
ENDBRANCH   5  11
ENDBRANCH   1   8
BRANCH   2  20
ATOM     20  C   UNL     1      -0.196   1.996   8.517  0.00  0.00    +0.161 C 
BRANCH  20  21
ATOM     21  N   UNL     1      -0.572   3.397   8.307  0.00  0.00    -0.288 N 
ATOM     22  C   UNL     1      -1.777   3.700   7.787  0.00  0.00    +0.298 C 
ATOM     23  O   UNL     1      -2.553   2.812   7.492  0.00  0.00    -0.253 OA
ATOM     24  N   UNL     1      -2.123   4.989   7.593  0.00  0.00    -0.313 N 
ATOM     25  H   UNL     1       0.047   4.106   8.542  0.00  0.00    +0.151 HD
ATOM     26  H   UNL     1      -1.504   5.697   7.829  0.00  0.00    +0.146 HD
ATOM     27  H   UNL     1      -2.991   5.207   7.219  0.00  0.00    +0.146 HD
ENDBRANCH  20  21
BRANCH  20  28
ATOM     28  C   UNL     1      -1.189   1.341   9.479  0.00  0.00    +0.042 C 
BRANCH  28  29
ATOM     29  C   UNL     1      -1.078   2.000  10.855  0.00  0.00    +0.071 C 
BRANCH  29  30
ATOM     30  S   UNL     1      -2.256   1.223  11.995  0.00  0.00    -0.164 S 
ATOM     31  C   UNL     1      -2.001   2.106  13.558  0.00  0.00    +0.084 C 
ENDBRANCH  29  30
ENDBRANCH  28  29
ENDBRANCH  20  28
ENDBRANCH   2  20
TORSDOF 8
