REMARK  Name = ZINC01596428
REMARK  6 active torsions:
REMARK  status: ('A' for Active; 'I' for Inactive)
REMARK    1  A    between atoms: C_1  and  C_2
REMARK    2  A    between atoms: C_4  and  O_19
REMARK    3  A    between atoms: C_6  and  C_17
REMARK    4  A    between atoms: C_6  and  C_18
REMARK    5  A    between atoms: C_9  and  C_15
REMARK    6  A    between atoms: C_9  and  O_16
REMARK                            x       y       z     vdW  Elec       q    Type
REMARK                         _______ _______ _______ _____ _____    ______ ____
ROOT
ATOM      1  C   UNL     1      -2.951   3.563  -2.739  0.00  0.00    +0.040 C 
ATOM      2  C   UNL     1      -2.899   3.502  -1.234  0.00  0.00    -0.053 C 
ATOM      3  C   UNL     1      -1.938   2.832  -0.601  0.00  0.00    -0.012 C 
ATOM      4  C   UNL     1      -0.799   2.054  -1.208  0.00  0.00    +0.154 C 
ATOM      5  C   UNL     1      -0.019   1.526   0.010  0.00  0.00    +0.014 C 
ATOM      6  C   UNL     1      -0.760   2.030   1.223  0.00  0.00    -0.011 C 
ATOM      7  C   UNL     1      -1.813   2.743   0.867  0.00  0.00    -0.007 C 
ATOM      8  C   UNL     1      -2.803   3.405   1.811  0.00  0.00    +0.147 C 
ATOM      9  C   UNL     1      -3.486   4.513   1.027  0.00  0.00    +0.179 C 
ATOM     10  O   UNL     1      -3.663   5.604   1.513  0.00  0.00    -0.293 OA
ATOM     11  C   UNL     1      -3.936   4.201  -0.382  0.00  0.00    +0.054 C 
ATOM     12  C   UNL     1      -5.401   3.834  -0.599  0.00  0.00    +0.020 C 
ATOM     13  C   UNL     1      -4.872   5.191  -1.068  0.00  0.00    +0.020 C 
ATOM     14  C   UNL     1      -3.839   2.384   2.283  0.00  0.00    +0.055 C 
ATOM     15  C   UNL     1       0.002  -0.004   0.002  0.00  0.00    +0.018 C 
ATOM     16  C   UNL     1       1.410   2.073  -0.000  0.00  0.00    +0.018 C 
ENDROOT
BRANCH   8  17
ATOM     17  O   UNL     1      -2.114   3.956   2.935  0.00  0.00    -0.377 OA
ATOM     18  H   UNL     1      -2.687   4.427   3.556  0.00  0.00    +0.211 HD
ENDBRANCH   8  17
BRANCH   4  19
ATOM     19  O   UNL     1      -1.297   0.968  -1.993  0.00  0.00    -0.386 OA
ATOM     20  H   UNL     1      -1.797   1.244  -2.773  0.00  0.00    +0.210 HD
ENDBRANCH   4  19
TORSDOF 2
