REMARK  Name = ZINC09722378
REMARK  7 active torsions:
REMARK  status: ('A' for Active; 'I' for Inactive)
REMARK    1  A    between atoms: C_1  and  N_2
REMARK    2  A    between atoms: N_2  and  C_3
REMARK    3  A    between atoms: N_2  and  S_4
REMARK    4  A    between atoms: S_4  and  C_7
REMARK    5  A    between atoms: N_12  and  C_14
REMARK    6  A    between atoms: C_14  and  C_15
REMARK    7  A    between atoms: N_17  and  C_18
REMARK                            x       y       z     vdW  Elec       q    Type
REMARK                         _______ _______ _______ _____ _____    ______ ____
ROOT
ATOM      1  C   UNL     1      -4.179  -0.116   3.558  0.00  0.00    +0.237 C 
ATOM      2  O   UNL     1      -4.572   0.370   2.518  0.00  0.00    -0.274 OA
ATOM      3  N   UNL     1      -4.991  -0.916   4.277  0.00  0.00    -0.284 N 
ATOM      4  H   UNL     1      -4.653  -1.365   5.067  0.00  0.00    +0.155 HD
ENDROOT
BRANCH   3   5
ATOM      5  C   UNL     1      -6.323  -1.097   3.884  0.00  0.00    +0.036 A 
ATOM      6  C   UNL     1      -6.951  -2.318   4.103  0.00  0.00    +0.025 A 
ATOM      7  C   UNL     1      -8.263  -2.504   3.717  0.00  0.00    +0.029 A 
ATOM      8  C   UNL     1      -8.959  -1.469   3.110  0.00  0.00    +0.067 A 
ATOM      9  C   UNL     1      -8.331  -0.241   2.888  0.00  0.00    +0.069 A 
ATOM     10  C   UNL     1      -7.015  -0.057   3.282  0.00  0.00    +0.051 A 
ATOM     11  N   UNL     1      -9.268   0.585   2.272  0.00  0.00    -0.306 N 
ATOM     12  H   UNL     1      -9.120   1.503   1.996  0.00  0.00    +0.170 HD
ATOM     13  C   UNL     1     -10.413  -0.108   2.124  0.00  0.00    +0.325 A 
ATOM     14  O   UNL     1     -11.433   0.324   1.620  0.00  0.00    -0.247 OA
ATOM     15  N   UNL     1     -10.259  -1.350   2.620  0.00  0.00    -0.306 N 
ATOM     16  H   UNL     1     -10.937  -2.044   2.634  0.00  0.00    +0.170 HD
ENDBRANCH   3   5
BRANCH   1  17
ATOM     17  C   UNL     1      -2.783   0.174   4.045  0.00  0.00    +0.220 C 
BRANCH  17  23
ATOM     18  C   UNL     1      -0.765   1.326   1.175  0.00  0.00    +0.122 A 
ATOM     19  C   UNL     1      -0.842   2.720   1.307  0.00  0.00    +0.035 A 
ATOM     20  C   UNL     1      -1.556   3.254   2.339  0.00  0.00    +0.072 A 
ATOM     21  C   UNL     1      -2.200   2.395   3.247  0.00  0.00    +0.252 A 
ATOM     22  O   UNL     1      -2.842   2.860   4.175  0.00  0.00    -0.268 OA
ATOM     23  N   UNL     1      -2.108   1.061   3.094  0.00  0.00    -0.305 N 
ATOM     24  C   UNL     1      -1.401   0.527   2.064  0.00  0.00    +0.118 A 
BRANCH  18  25
ATOM     25  S   UNL     1       0.151   0.615  -0.150  0.00  0.00    +0.062 S 
ATOM     26  O   UNL     1       0.115  -0.793   0.040  0.00  0.00    -0.153 OA
ATOM     27  O   UNL     1       1.370   1.340  -0.237  0.00  0.00    -0.153 OA
BRANCH  25  29
ATOM     28  C   UNL     1      -0.415   2.150  -2.304  0.00  0.00    +0.131 C 
ATOM     29  N   UNL     1      -0.685   0.926  -1.546  0.00  0.00    -0.183 NA
ATOM     30  C   UNL     1      -1.694  -0.023  -2.022  0.00  0.00    +0.131 C 
ENDBRANCH  25  29
ENDBRANCH  18  25
ENDBRANCH  17  23
ENDBRANCH   1  17
TORSDOF 5
