REMARK  Name = ZINC56568758
REMARK  10 active torsions:
REMARK  status: ('A' for Active; 'I' for Inactive)
REMARK    1  A    between atoms: C_1  and  C_2
REMARK    2  A    between atoms: N_4  and  C_5
REMARK    3  A    between atoms: C_8  and  O_26
REMARK    4  A    between atoms: C_9  and  N_11
REMARK    5  A    between atoms: N_14  and  C_15
REMARK    6  A    between atoms: C_15  and  C_16
REMARK    7  A    between atoms: C_16  and  C_17
REMARK    8  A    between atoms: C_16  and  C_18
REMARK    9  A    between atoms: C_16  and  C_19
REMARK   10  A    between atoms: O_26  and  C_27
REMARK                            x       y       z     vdW  Elec       q    Type
REMARK                         _______ _______ _______ _____ _____    ______ ____
ROOT
ATOM      1  N   UNL     1      -3.757  -4.660  -0.232  0.00  0.00    -0.266 N 
ATOM      2  C   UNL     1      -4.883  -3.923  -0.311  0.00  0.00    +0.304 C 
ATOM      3  O   UNL     1      -4.821  -2.710  -0.245  0.00  0.00    -0.253 OA
ATOM      4  N   UNL     1      -6.077  -4.529  -0.462  0.00  0.00    -0.298 N 
ATOM      5  H   UNL     1      -3.812  -5.628  -0.218  0.00  0.00    +0.156 HD
ATOM      6  H   UNL     1      -6.126  -5.497  -0.515  0.00  0.00    +0.150 HD
ENDROOT
BRANCH   1  11
ATOM      7  C   UNL     1      -1.135  -2.196   0.555  0.00  0.00    +0.035 A 
ATOM      8  C   UNL     1      -0.033  -2.781  -0.053  0.00  0.00    +0.027 A 
ATOM      9  C   UNL     1      -0.166  -3.985  -0.718  0.00  0.00    +0.049 A 
ATOM     10  C   UNL     1      -1.400  -4.612  -0.779  0.00  0.00    +0.141 A 
ATOM     11  C   UNL     1      -2.508  -4.028  -0.171  0.00  0.00    +0.079 A 
ATOM     12  C   UNL     1      -2.373  -2.822   0.501  0.00  0.00    +0.050 A 
BRANCH   7  16
ATOM     13  C   UNL     1      -0.071   1.310   1.428  0.00  0.00    +0.109 C 
ATOM     14  C   UNL     1      -0.144  -0.041   0.764  0.00  0.00    +0.214 C 
ATOM     15  O   UNL     1       0.564  -0.288  -0.189  0.00  0.00    -0.276 OA
ATOM     16  N   UNL     1      -0.998  -0.975   1.229  0.00  0.00    -0.286 N 
ATOM     17  H   UNL     1      -1.516  -0.802   2.030  0.00  0.00    +0.155 HD
ENDBRANCH   7  16
BRANCH  10  18
ATOM     18  O   UNL     1      -1.529  -5.797  -1.435  0.00  0.00    -0.493 OA
ATOM     19  C   UNL     1      -0.351  -6.338  -2.036  0.00  0.00    +0.277 C 
ENDBRANCH  10  18
ENDBRANCH   1  11
BRANCH   4  20
ATOM     20  C   UNL     1      -7.300  -3.728  -0.547  0.00  0.00    +0.116 C 
BRANCH  20  21
ATOM     21  C   UNL     1      -8.506  -4.654  -0.716  0.00  0.00    +0.006 C 
ATOM     22  C   UNL     1      -8.344  -5.475  -1.997  0.00  0.00    +0.017 C 
ATOM     23  C   UNL     1      -8.597  -5.597   0.486  0.00  0.00    +0.017 C 
BRANCH  21  24
ATOM     24  C   UNL     1      -9.764  -3.830  -0.803  0.00  0.00    -0.040 A 
ATOM     25  C   UNL     1      -9.693  -2.451  -0.734  0.00  0.00    +0.005 A 
ATOM     26  C   UNL     1     -10.847  -1.694  -0.815  0.00  0.00    +0.020 A 
ATOM     27  C   UNL     1     -12.073  -2.317  -0.964  0.00  0.00    +0.041 A 
ATOM     28  C   UNL     1     -12.144  -3.697  -1.034  0.00  0.00    +0.020 A 
ATOM     29  C   UNL     1     -10.989  -4.452  -0.959  0.00  0.00    +0.005 A 
ATOM     30 CL   UNL     1     -13.523  -1.367  -1.065  0.00  0.00    -0.084 Cl
ENDBRANCH  21  24
ENDBRANCH  20  21
ENDBRANCH   4  20
TORSDOF 6
