REMARK  Name = ZINC37138111
REMARK  7 active torsions:
REMARK  status: ('A' for Active; 'I' for Inactive)
REMARK    1  A    between atoms: C_1  and  C_2
REMARK    2  A    between atoms: C_2  and  C_4
REMARK    3  A    between atoms: C_2  and  N_12
REMARK    4  A    between atoms: N_9  and  C_11
REMARK    5  A    between atoms: N_12  and  C_13
REMARK    6  A    between atoms: C_15  and  S_20
REMARK    7  A    between atoms: S_20  and  N_23
REMARK                            x       y       z     vdW  Elec       q    Type
REMARK                         _______ _______ _______ _____ _____    ______ ____
ROOT
ATOM      1  C   UNL     1      -2.076  -0.648  -1.187  0.00  0.00    +0.048 A 
ATOM      2  C   UNL     1      -1.472  -0.308  -2.391  0.00  0.00    +0.053 A 
ATOM      3  C   UNL     1      -2.170  -0.445  -3.575  0.00  0.00    +0.107 A 
ATOM      4  C   UNL     1      -3.469  -0.918  -3.564  0.00  0.00    +0.030 A 
ATOM      5  C   UNL     1      -4.074  -1.257  -2.368  0.00  0.00    +0.024 A 
ATOM      6  C   UNL     1      -3.380  -1.129  -1.179  0.00  0.00    +0.062 A 
ATOM      7 CL   UNL     1      -4.138  -1.560   0.322  0.00  0.00    -0.082 Cl
ENDROOT
BRANCH   3   8
ATOM      8  S   UNL     1      -1.403  -0.015  -5.102  0.00  0.00    +0.056 S 
ATOM      9  O   UNL     1      -2.453   0.283  -6.013  0.00  0.00    -0.153 OA
ATOM     10  O   UNL     1      -0.376   0.917  -4.793  0.00  0.00    -0.153 OA
BRANCH   8  11
ATOM     11  N   UNL     1      -0.652  -1.375  -5.674  0.00  0.00    -0.204 NA
ATOM     12  H   UNL     1      -0.696  -2.202  -5.168  0.00  0.00    +0.144 HD
ATOM     13  H   UNL     1      -0.168  -1.345  -6.513  0.00  0.00    +0.144 HD
ENDBRANCH   8  11
ENDBRANCH   3   8
BRANCH   1  14
ATOM     14  N   UNL     1      -1.372  -0.511   0.012  0.00  0.00    -0.340 N 
ATOM     15  H   UNL     1      -1.794  -0.752   0.852  0.00  0.00    +0.146 HD
BRANCH  14  17
ATOM     16  C   UNL     1      -0.019   1.526   0.010  0.00  0.00    +0.028 C 
ATOM     17  C   UNL     1       0.002  -0.004   0.002  0.00  0.00    +0.069 C 
BRANCH  17  18
ATOM     18  C   UNL     1       0.742  -0.511   1.242  0.00  0.00    -0.008 C 
ATOM     19  C   UNL     1       0.027  -0.016   2.502  0.00  0.00    +0.002 C 
ATOM     20  C   UNL     1       0.819  -0.462   3.735  0.00  0.00    -0.018 C 
ATOM     21  C   UNL     1       2.251   0.068   3.634  0.00  0.00    -0.079 C 
ATOM     22  N   UNL     1       2.888  -0.462   2.423  0.00  0.00    +0.378 N 
ATOM     23  C   UNL     1       2.177   0.020   1.233  0.00  0.00    -0.074 C 
ATOM     24  C   UNL     1       4.286  -0.013   2.371  0.00  0.00    -0.096 C 
ATOM     25  H   UNL     1       2.861  -1.470   2.443  0.00  0.00    -0.082 HD
ENDBRANCH  17  18
ENDBRANCH  14  17
ENDBRANCH   1  14
TORSDOF 5
