REMARK  Name = ZINC00899293
REMARK  7 active torsions:
REMARK  status: ('A' for Active; 'I' for Inactive)
REMARK    1  A    between atoms: C_4  and  C_7
REMARK    2  A    between atoms: N_9  and  C_10
REMARK    3  A    between atoms: C_10  and  C_19
REMARK    4  A    between atoms: C_11  and  C_12
REMARK    5  A    between atoms: N_21  and  C_22
REMARK    6  A    between atoms: C_25  and  S_28
REMARK    7  A    between atoms: S_28  and  N_31
REMARK                            x       y       z     vdW  Elec       q    Type
REMARK                         _______ _______ _______ _____ _____    ______ ____
ROOT
ATOM      1  C   UNL     1       2.898   3.112  -0.178  0.00  0.00    +0.097 C 
ATOM      2  C   UNL     1       1.707   3.755  -0.181  0.00  0.00    +0.038 C 
ENDROOT
BRANCH   2   3
ATOM      3  C   UNL     1       0.457   2.986  -0.274  0.00  0.00    -0.005 A 
ATOM      4  C   UNL     1       0.368   1.889  -1.136  0.00  0.00    +0.009 A 
ATOM      5  C   UNL     1      -0.808   1.173  -1.217  0.00  0.00    +0.001 A 
ATOM      6  C   UNL     1      -1.901   1.541  -0.451  0.00  0.00    +0.001 A 
ATOM      7  C   UNL     1      -1.821   2.621   0.409  0.00  0.00    +0.020 A 
ATOM      8  C   UNL     1      -0.651   3.349   0.501  0.00  0.00    +0.048 A 
ATOM      9 CL   UNL     1      -0.555   4.709   1.575  0.00  0.00    -0.083 Cl
ENDBRANCH   2   3
BRANCH   1  12
ATOM     10  C   UNL     1       5.272   3.213  -0.086  0.00  0.00    +0.248 C 
ATOM     11  O   UNL     1       5.310   1.999  -0.035  0.00  0.00    -0.270 OA
ATOM     12  N   UNL     1       4.088   3.845  -0.208  0.00  0.00    -0.277 N 
ATOM     13  H   UNL     1       4.062   4.808  -0.317  0.00  0.00    +0.155 HD
BRANCH  10  17
ATOM     14  C   UNL     1       8.869   5.462   0.119  0.00  0.00    +0.000 A 
ATOM     15  C   UNL     1       8.916   4.080   0.178  0.00  0.00    +0.001 A 
ATOM     16  C   UNL     1       7.752   3.344   0.112  0.00  0.00    +0.013 A 
ATOM     17  C   UNL     1       6.524   3.995  -0.015  0.00  0.00    +0.037 A 
ATOM     18  C   UNL     1       6.484   5.389  -0.079  0.00  0.00    +0.013 A 
ATOM     19  C   UNL     1       7.655   6.114  -0.007  0.00  0.00    +0.001 A 
ENDBRANCH  10  17
ENDBRANCH   1  12
BRANCH   1  20
ATOM     20  C   UNL     1       2.940   1.643  -0.144  0.00  0.00    +0.262 C 
ATOM     21  O   UNL     1       3.179   1.018  -1.159  0.00  0.00    -0.268 OA
ATOM     22  N   UNL     1       2.713   0.990   1.013  0.00  0.00    -0.280 N 
ATOM     23  H   UNL     1       2.477   1.486   1.812  0.00  0.00    +0.155 HD
BRANCH  22  24
ATOM     24  C   UNL     1       2.820  -0.403   1.061  0.00  0.00    +0.034 A 
ATOM     25  C   UNL     1       3.741  -1.059   0.256  0.00  0.00    +0.025 A 
ATOM     26  C   UNL     1       3.848  -2.435   0.309  0.00  0.00    +0.030 A 
ATOM     27  C   UNL     1       3.030  -3.161   1.156  0.00  0.00    +0.105 A 
ATOM     28  C   UNL     1       2.107  -2.511   1.955  0.00  0.00    +0.030 A 
ATOM     29  C   UNL     1       2.000  -1.135   1.911  0.00  0.00    +0.025 A 
BRANCH  27  30
ATOM     30  S   UNL     1       3.164  -4.916   1.217  0.00  0.00    +0.056 S 
ATOM     31  O   UNL     1       4.475  -5.239   0.776  0.00  0.00    -0.153 OA
ATOM     32  O   UNL     1       2.667  -5.318   2.487  0.00  0.00    -0.153 OA
BRANCH  30  33
ATOM     33  N   UNL     1       2.120  -5.527   0.086  0.00  0.00    -0.204 NA
ATOM     34  H   UNL     1       1.583  -4.925  -0.454  0.00  0.00    +0.144 HD
ATOM     35  H   UNL     1       2.045  -6.486  -0.037  0.00  0.00    +0.144 HD
ENDBRANCH  30  33
ENDBRANCH  27  30
ENDBRANCH  22  24
ENDBRANCH   1  20
TORSDOF 7
