REMARK  Name = ZINC02239017
REMARK  8 active torsions:
REMARK  status: ('A' for Active; 'I' for Inactive)
REMARK    1  A    between atoms: C_1  and  C_2
REMARK    2  A    between atoms: C_3  and  C_9
REMARK    3  A    between atoms: N_7  and  C_8
REMARK    4  A    between atoms: N_11  and  N_12
REMARK    5  A    between atoms: N_12  and  S_13
REMARK    6  A    between atoms: S_13  and  C_16
REMARK    7  A    between atoms: C_19  and  N_22
REMARK    8  A    between atoms: C_23  and  C_25
REMARK                            x       y       z     vdW  Elec       q    Type
REMARK                         _______ _______ _______ _____ _____    ______ ____
ROOT
ATOM      1  N   UNL     1       0.176  -0.644  -4.730  0.00  0.00    -0.108 NA
ATOM      2  H   UNL     1      -0.561  -0.040  -4.913  0.00  0.00    +0.172 HD
ENDROOT
BRANCH   1   5
ATOM      3  C   UNL     1       0.522  -0.252  -2.407  0.00  0.00    +0.267 C 
ATOM      4  O   UNL     1       0.465   0.946  -2.615  0.00  0.00    -0.268 OA
ATOM      5  N   UNL     1       0.385  -1.120  -3.429  0.00  0.00    -0.227 N 
ATOM      6  H   UNL     1       0.430  -2.075  -3.264  0.00  0.00    +0.171 HD
BRANCH   3   9
ATOM      7  C   UNL     1       0.875   1.453   0.132  0.00  0.00    +0.065 C 
ATOM      8  C   UNL     1       0.902  -0.053   0.110  0.00  0.00    +0.036 A 
ATOM      9  C   UNL     1       0.741  -0.751  -1.046  0.00  0.00    +0.097 A 
ATOM     10  S   UNL     1       0.864  -2.434  -0.467  0.00  0.00    -0.057 S 
ATOM     11  C   UNL     1       1.107  -2.119   1.167  0.00  0.00    +0.126 A 
ATOM     12  S   UNL     1       1.325  -3.241   2.442  0.00  0.00    -0.025 S 
ATOM     13  N   UNL     1       1.094  -0.773   1.232  0.00  0.00    -0.335 N 
ATOM     14  C   UNL     1       1.282  -0.096   2.518  0.00  0.00    +0.150 C 
ENDBRANCH   3   9
ENDBRANCH   1   5
BRANCH   1  15
ATOM     15  S   UNL     1       1.187  -1.111  -5.955  0.00  0.00    +0.074 S 
ATOM     16  O   UNL     1       0.638  -0.587  -7.157  0.00  0.00    -0.152 OA
ATOM     17  O   UNL     1       2.509  -0.811  -5.527  0.00  0.00    -0.152 OA
BRANCH  15  18
ATOM     18  C   UNL     1       1.083  -2.865  -6.077  0.00  0.00    +0.107 A 
ATOM     19  C   UNL     1       1.938  -3.660  -5.336  0.00  0.00    +0.030 A 
ATOM     20  C   UNL     1       1.859  -5.036  -5.429  0.00  0.00    +0.025 A 
ATOM     21  C   UNL     1       0.918  -5.621  -6.267  0.00  0.00    +0.033 A 
ATOM     22  C   UNL     1       0.061  -4.819  -7.010  0.00  0.00    +0.025 A 
ATOM     23  C   UNL     1       0.142  -3.445  -6.908  0.00  0.00    +0.030 A 
BRANCH  21  24
ATOM     24  N   UNL     1       0.836  -7.014  -6.364  0.00  0.00    -0.286 N 
ATOM     25  C   UNL     1       1.102  -7.782  -5.289  0.00  0.00    +0.214 C 
ATOM     26  O   UNL     1       1.320  -7.264  -4.214  0.00  0.00    -0.276 OA
ATOM     27  C   UNL     1       1.130  -9.282  -5.422  0.00  0.00    +0.109 C 
ATOM     28  H   UNL     1       0.587  -7.428  -7.205  0.00  0.00    +0.155 HD
ENDBRANCH  21  24
ENDBRANCH  15  18
ENDBRANCH   1  15
TORSDOF 5
