REMARK  Name = ZINC36635763
REMARK  3 active torsions:
REMARK  status: ('A' for Active; 'I' for Inactive)
REMARK    1  A    between atoms: C_6  and  N_7
REMARK    2  A    between atoms: N_7  and  C_8
REMARK    3  A    between atoms: N_13  and  C_16
REMARK                            x       y       z     vdW  Elec       q    Type
REMARK                         _______ _______ _______ _____ _____    ______ ____
ROOT
ATOM      1  C   UNL     1      -1.270  -2.058  -0.042  0.00  0.00    +0.166 C 
ATOM      2  C   UNL     1      -2.398  -2.878   0.617  0.00  0.00    +0.128 C 
ATOM      3  C   UNL     1      -2.935  -3.721  -0.519  0.00  0.00    +0.228 C 
ATOM      4  O   UNL     1      -3.842  -4.520  -0.433  0.00  0.00    -0.275 OA
ATOM      5  N   UNL     1      -2.248  -3.445  -1.635  0.00  0.00    -0.209 N 
ATOM      6  C   UNL     1      -1.284  -2.523  -1.482  0.00  0.00    +0.247 C 
ATOM      7  O   UNL     1      -0.544  -2.125  -2.356  0.00  0.00    -0.273 OA
ENDROOT
BRANCH   5   8
ATOM      8  C   UNL     1      -2.513  -4.069  -2.863  0.00  0.00    +0.044 A 
ATOM      9  C   UNL     1      -1.580  -4.934  -3.418  0.00  0.00    +0.027 A 
ATOM     10  C   UNL     1      -1.842  -5.548  -4.627  0.00  0.00    +0.040 A 
ATOM     11  C   UNL     1      -3.034  -5.300  -5.286  0.00  0.00    +0.124 A 
ATOM     12  C   UNL     1      -3.966  -4.437  -4.734  0.00  0.00    +0.040 A 
ATOM     13  C   UNL     1      -3.710  -3.826  -3.522  0.00  0.00    +0.027 A 
ATOM     14  F   UNL     1      -3.289  -5.901  -6.469  0.00  0.00    -0.205 F 
ENDBRANCH   5   8
BRANCH   1  15
ATOM     15  N   UNL     1      -1.560  -0.624   0.039  0.00  0.00    -0.333 N 
ATOM     16  H   UNL     1      -2.474  -0.320   0.150  0.00  0.00    +0.147 HD
BRANCH  15  22
ATOM     17  C   UNL     1      -0.793   1.664   0.035  0.00  0.00    +0.024 A 
ATOM     18  C   UNL     1       0.238   2.580  -0.046  0.00  0.00    +0.017 A 
ATOM     19  C   UNL     1       1.541   2.144  -0.204  0.00  0.00    +0.018 A 
ATOM     20  C   UNL     1       1.817   0.790  -0.281  0.00  0.00    +0.017 A 
ATOM     21  C   UNL     1       0.790  -0.130  -0.201  0.00  0.00    +0.024 A 
ATOM     22  C   UNL     1      -0.520   0.305  -0.043  0.00  0.00    +0.028 A 
ATOM     23 BR   UNL     1       2.950   3.401  -0.315  0.00  0.00    -0.050 Br
ENDBRANCH  15  22
ENDBRANCH   1  15
TORSDOF 3
