REMARK  Name = ZINC42439253
REMARK  4 active torsions:
REMARK  status: ('A' for Active; 'I' for Inactive)
REMARK    1  A    between atoms: C_1  and  C_2
REMARK    2  A    between atoms: C_6  and  C_20
REMARK    3  A    between atoms: C_13  and  C_15
REMARK    4  A    between atoms: C_16  and  C_17
REMARK                            x       y       z     vdW  Elec       q    Type
REMARK                         _______ _______ _______ _____ _____    ______ ____
ROOT
ATOM      1  C   UNL     1       0.015   1.527  -0.011  0.00  0.00    +0.028 C 
ATOM      2  C   UNL     1       0.015  -0.003  -0.006  0.00  0.00    +0.075 C 
ATOM      3  C   UNL     1       0.630  -0.520  -1.310  0.00  0.00    +0.023 C 
ATOM      4  C   UNL     1       0.755  -2.044  -1.242  0.00  0.00    +0.016 C 
ATOM      5  C   UNL     1       1.679  -2.430  -0.085  0.00  0.00    +0.092 C 
ATOM      6  C   UNL     1       1.076  -1.935   1.233  0.00  0.00    +0.122 C 
ATOM      7  N   UNL     1       0.815  -0.493   1.125  0.00  0.00    -0.282 N 
ATOM      8  C   UNL     1       1.304   0.365   2.042  0.00  0.00    +0.309 C 
ATOM      9  O   UNL     1       0.996   1.540   2.000  0.00  0.00    -0.252 OA
ATOM     10  N   UNL     1       2.134  -0.080   3.006  0.00  0.00    -0.236 N 
ATOM     11  C   UNL     1       2.539   0.753   3.985  0.00  0.00    +0.244 C 
ATOM     12  O   UNL     1       2.156   1.906   3.998  0.00  0.00    -0.270 OA
ATOM     13  H   UNL     1       2.440  -1.001   2.995  0.00  0.00    +0.159 HD
ENDROOT
BRANCH   5  14
ATOM     14  C   UNL     1       1.828  -3.929  -0.039  0.00  0.00    +0.215 C 
ATOM     15  O   UNL     1       1.251  -4.621  -0.851  0.00  0.00    -0.276 OA
ATOM     16  N   UNL     1       2.601  -4.501   0.905  0.00  0.00    -0.329 N 
ATOM     17  H   UNL     1       3.062  -3.948   1.555  0.00  0.00    +0.145 HD
ATOM     18  H   UNL     1       2.697  -5.466   0.935  0.00  0.00    +0.145 HD
ENDBRANCH   5  14
BRANCH  11  19
ATOM     19  C   UNL     1       3.449   0.265   5.042  0.00  0.00    +0.075 C 
ATOM     20  C   UNL     1       3.853   1.095   6.017  0.00  0.00    +0.101 C 
BRANCH  20  21
ATOM     21  C   UNL     1       4.761   0.608   7.071  0.00  0.00    +0.380 C 
ATOM     22  O   UNL     1       5.147  -0.552   7.058  0.00  0.00    -0.241 OA
ATOM     23  O   UNL     1       5.128   1.364   7.959  0.00  0.00    -0.241 OA
ENDBRANCH  20  21
ENDBRANCH  11  19
TORSDOF 3
