REMARK  Name = ZINC49501699
REMARK  5 active torsions:
REMARK  status: ('A' for Active; 'I' for Inactive)
REMARK    1  A    between atoms: C_1  and  C_2
REMARK    2  A    between atoms: C_4  and  S_8
REMARK    3  A    between atoms: C_5  and  C_7
REMARK    4  A    between atoms: S_8  and  N_11
REMARK    5  A    between atoms: C_12  and  C_14
REMARK                            x       y       z     vdW  Elec       q    Type
REMARK                         _______ _______ _______ _____ _____    ______ ____
ROOT
ATOM      1  S   UNL     1      -2.104  -3.392  -0.008  0.00  0.00    +0.103 S 
ATOM      2  O   UNL     1      -1.813  -4.339   1.011  0.00  0.00    -0.146 OA
ATOM      3  O   UNL     1      -3.308  -2.638  -0.025  0.00  0.00    -0.146 OA
ENDROOT
BRANCH   1   7
ATOM      4  C   UNL     1      -0.018   1.503   0.010  0.00  0.00    +0.051 C 
ATOM      5  C   UNL     1       0.002  -0.004   0.002  0.00  0.00    -0.011 A 
ATOM      6  C   UNL     1      -1.039  -0.872   0.002  0.00  0.00    +0.040 A 
ATOM      7  C   UNL     1      -0.780  -2.230  -0.007  0.00  0.00    +0.123 A 
ATOM      8  C   UNL     1       0.507  -2.653  -0.016  0.00  0.00    +0.014 A 
ATOM      9  S   UNL     1       1.404  -1.109  -0.018  0.00  0.00    -0.097 S 
ATOM     10  C   UNL     1       1.043  -4.062  -0.027  0.00  0.00    +0.053 C 
ENDBRANCH   1   7
BRANCH   1  11
ATOM     11  N   UNL     1      -2.038  -4.210  -1.446  0.00  0.00    -0.086 NA
ATOM     12  C   UNL     1      -2.911  -5.137  -1.708  0.00  0.00    +0.295 C 
ATOM     13  O   UNL     1      -3.874  -5.433  -0.806  0.00  0.00    -0.264 OA
BRANCH  12  14
ATOM     14  C   UNL     1      -2.852  -5.867  -2.994  0.00  0.00    +0.043 A 
ATOM     15  C   UNL     1      -1.856  -5.567  -3.924  0.00  0.00    +0.014 A 
ATOM     16  C   UNL     1      -1.805  -6.252  -5.120  0.00  0.00    +0.016 A 
ATOM     17  C   UNL     1      -2.740  -7.234  -5.399  0.00  0.00    +0.018 A 
ATOM     18  C   UNL     1      -3.731  -7.536  -4.480  0.00  0.00    +0.016 A 
ATOM     19  C   UNL     1      -3.787  -6.862  -3.278  0.00  0.00    +0.014 A 
ATOM     20 BR   UNL     1      -2.664  -8.168  -7.042  0.00  0.00    -0.050 Br
ENDBRANCH  12  14
ENDBRANCH   1  11
TORSDOF 3
