REMARK  Name = ZINC04450194
REMARK  6 active torsions:
REMARK  status: ('A' for Active; 'I' for Inactive)
REMARK    1  A    between atoms: C_1  and  C_2
REMARK    2  A    between atoms: C_2  and  O_3
REMARK    3  A    between atoms: O_3  and  C_4
REMARK    4  A    between atoms: C_6  and  C_11
REMARK    5  A    between atoms: C_9  and  O_10
REMARK    6  A    between atoms: N_22  and  C_23
REMARK                            x       y       z     vdW  Elec       q    Type
REMARK                         _______ _______ _______ _____ _____    ______ ____
ROOT
ATOM      1  C   UNL     1      -1.210  -0.758   0.020  0.00  0.00    +0.198 C 
ATOM      2  N   UNL     1      -2.208  -0.005   0.788  0.00  0.00    -0.321 N 
ATOM      3  C   UNL     1      -2.191  -0.092   2.176  0.00  0.00    +0.041 A 
ATOM      4  C   UNL     1      -2.645   0.943   2.976  0.00  0.00    +0.024 A 
ATOM      5  C   UNL     1      -2.616   0.808   4.351  0.00  0.00    +0.002 A 
ATOM      6  C   UNL     1      -2.138  -0.355   4.934  0.00  0.00    +0.001 A 
ATOM      7  C   UNL     1      -1.679  -1.394   4.152  0.00  0.00    +0.015 A 
ATOM      8  C   UNL     1      -1.698  -1.269   2.764  0.00  0.00    +0.058 A 
ATOM      9  C   UNL     1      -1.207  -2.345   1.885  0.00  0.00    +0.254 C 
ATOM     10  O   UNL     1      -0.935  -3.437   2.346  0.00  0.00    -0.270 OA
ATOM     11  N   UNL     1      -1.061  -2.107   0.566  0.00  0.00    -0.242 N 
ATOM     12  H   UNL     1      -2.869   0.543   0.336  0.00  0.00    +0.148 HD
ENDROOT
BRANCH  11  13
ATOM     13  C   UNL     1      -0.763  -3.169  -0.295  0.00  0.00    +0.074 A 
ATOM     14  C   UNL     1       0.559  -3.513  -0.545  0.00  0.00    +0.026 A 
ATOM     15  C   UNL     1       0.850  -4.565  -1.391  0.00  0.00    +0.002 A 
ATOM     16  C   UNL     1      -0.173  -5.269  -2.000  0.00  0.00    +0.003 A 
ATOM     17  C   UNL     1      -1.491  -4.928  -1.759  0.00  0.00    +0.040 A 
ATOM     18  C   UNL     1      -1.790  -3.879  -0.908  0.00  0.00    +0.145 A 
ATOM     19  F   UNL     1      -3.078  -3.545  -0.673  0.00  0.00    -0.204 F 
ENDBRANCH  11  13
BRANCH   1  22
ATOM     20  C   UNL     1       1.881   1.163  -0.994  0.00  0.00    +0.162 A 
ATOM     21  C   UNL     1       0.663   0.505  -1.055  0.00  0.00    +0.056 A 
ATOM     22  C   UNL     1       0.115  -0.043   0.089  0.00  0.00    -0.005 A 
ATOM     23  C   UNL     1       0.780   0.063   1.297  0.00  0.00    +0.011 A 
ATOM     24  C   UNL     1       1.995   0.718   1.365  0.00  0.00    +0.049 A 
ATOM     25  C   UNL     1       2.550   1.270   0.222  0.00  0.00    +0.158 A 
BRANCH  25  26
ATOM     26  O   UNL     1       3.746   1.914   0.287  0.00  0.00    -0.503 OA
ATOM     27  H   UNL     1       4.511   1.339   0.142  0.00  0.00    +0.292 HD
ENDBRANCH  25  26
BRANCH  20  28
ATOM     28  O   UNL     1       2.422   1.703  -2.119  0.00  0.00    -0.489 OA
BRANCH  28  30
ATOM     29  C   UNL     1       2.441   2.220  -4.479  0.00  0.00    +0.048 C 
ATOM     30  C   UNL     1       1.680   1.554  -3.331  0.00  0.00    +0.226 C 
ENDBRANCH  28  30
ENDBRANCH  20  28
ENDBRANCH   1  22
TORSDOF 5
