REMARK  Name = ZINC67569969
REMARK  7 active torsions:
REMARK  status: ('A' for Active; 'I' for Inactive)
REMARK    1  A    between atoms: C_4  and  C_7
REMARK    2  A    between atoms: C_7  and  N_8
REMARK    3  A    between atoms: C_13  and  C_15
REMARK    4  A    between atoms: C_15  and  N_16
REMARK    5  A    between atoms: N_19  and  C_20
REMARK    6  A    between atoms: C_20  and  C_21
REMARK    7  A    between atoms: N_23  and  C_24
REMARK                            x       y       z     vdW  Elec       q    Type
REMARK                         _______ _______ _______ _____ _____    ______ ____
ROOT
ATOM      1  N   UNL     1       6.635   0.453   1.144  0.00  0.00    -0.301 N 
ATOM      2  C   UNL     1       7.423   1.376   0.557  0.00  0.00    +0.300 C 
ATOM      3  O   UNL     1       7.986   1.118  -0.489  0.00  0.00    -0.253 OA
ATOM      4  N   UNL     1       7.589   2.584   1.132  0.00  0.00    -0.291 N 
ATOM      5  H   UNL     1       6.186   0.658   1.979  0.00  0.00    +0.150 HD
ATOM      6  H   UNL     1       7.140   2.789   1.967  0.00  0.00    +0.151 HD
ENDROOT
BRANCH   1   7
ATOM      7  C   UNL     1       6.455  -0.860   0.519  0.00  0.00    +0.090 C 
BRANCH   7  13
ATOM      8  N   UNL     1       4.189  -0.886   1.442  0.00  0.00    +0.385 N 
ATOM      9  C   UNL     1       3.169  -1.681   2.137  0.00  0.00    -0.078 C 
ATOM     10  C   UNL     1       3.640  -1.992   3.559  0.00  0.00    -0.019 C 
ATOM     11  C   UNL     1       4.950  -2.783   3.495  0.00  0.00    -0.003 C 
ATOM     12  C   UNL     1       5.984  -1.976   2.704  0.00  0.00    -0.014 C 
ATOM     13  C   UNL     1       5.425  -1.666   1.314  0.00  0.00    -0.051 C 
ATOM     14  H   UNL     1       4.375  -0.046   1.970  0.00  0.00    -0.081 HD
BRANCH   8  15
ATOM     15  C   UNL     1       3.699  -0.524   0.105  0.00  0.00    -0.043 C 
BRANCH  15  19
ATOM     16  C   UNL     1       0.283   2.014   0.478  0.00  0.00    +0.000 A 
ATOM     17  C   UNL     1       1.549   2.564   0.417  0.00  0.00    +0.000 A 
ATOM     18  C   UNL     1       2.655   1.743   0.297  0.00  0.00    +0.002 A 
ATOM     19  C   UNL     1       2.494   0.371   0.238  0.00  0.00    -0.064 A 
ATOM     20  C   UNL     1       1.227  -0.179   0.299  0.00  0.00    +0.002 A 
ATOM     21  C   UNL     1       0.121   0.642   0.418  0.00  0.00    +0.000 A 
ENDBRANCH  15  19
ENDBRANCH   8  15
ENDBRANCH   7  13
ENDBRANCH   1   7
BRANCH   4  22
ATOM     22  C   UNL     1       8.446   3.587   0.495  0.00  0.00    +0.202 C 
BRANCH  22  23
ATOM     23  C   UNL     1       8.461   4.839   1.332  0.00  0.00    +0.234 C 
ATOM     24  O   UNL     1       7.819   4.890   2.360  0.00  0.00    -0.274 OA
ATOM     25  N   UNL     1       9.188   5.904   0.939  0.00  0.00    -0.284 N 
ATOM     26  H   UNL     1       9.755   5.841   0.155  0.00  0.00    +0.155 HD
BRANCH  25  27
ATOM     27  C   UNL     1       9.124   7.100   1.662  0.00  0.00    +0.033 A 
ATOM     28  C   UNL     1       9.197   8.319   1.000  0.00  0.00    +0.023 A 
ATOM     29  C   UNL     1       9.134   9.497   1.717  0.00  0.00    +0.002 A 
ATOM     30  C   UNL     1       8.999   9.466   3.092  0.00  0.00    +0.000 A 
ATOM     31  C   UNL     1       8.926   8.254   3.755  0.00  0.00    +0.002 A 
ATOM     32  C   UNL     1       8.982   7.072   3.043  0.00  0.00    +0.023 A 
ENDBRANCH  25  27
ENDBRANCH  22  23
ENDBRANCH   4  22
TORSDOF 7
