REMARK  Name = ZINC07170995
REMARK  14 active torsions:
REMARK  status: ('A' for Active; 'I' for Inactive)
REMARK    1  A    between atoms: C_1  and  C_2
REMARK    2  A    between atoms: C_2  and  C_4
REMARK    3  A    between atoms: C_2  and  S_11
REMARK    4  A    between atoms: N_6  and  C_7
REMARK    5  A    between atoms: C_7  and  C_8
REMARK    6  A    between atoms: C_7  and  C_9
REMARK    7  A    between atoms: C_7  and  C_10
REMARK    8  A    between atoms: S_11  and  C_12
REMARK    9  A    between atoms: C_15  and  C_18
REMARK   10  A    between atoms: N_16  and  N_17
REMARK   11  A    between atoms: C_21  and  C_24
REMARK   12  A    between atoms: C_24  and  C_25
REMARK   13  A    between atoms: C_24  and  C_26
REMARK   14  A    between atoms: C_24  and  C_27
REMARK                            x       y       z     vdW  Elec       q    Type
REMARK                         _______ _______ _______ _____ _____    ______ ____
ROOT
ATOM      1  C   UNL     1      -2.335  -0.110   1.573  0.00  0.00    +0.209 A 
ATOM      2  N   UNL     1      -1.690   0.582   2.486  0.00  0.00    -0.121 NA
ATOM      3  N   UNL     1      -2.450   0.790   3.501  0.00  0.00    -0.127 NA
ATOM      4  C   UNL     1      -3.627   0.245   3.299  0.00  0.00    +0.182 A 
ATOM      5  N   UNL     1      -3.591  -0.343   2.055  0.00  0.00    -0.224 N 
ENDROOT
BRANCH   4   6
ATOM      6  C   UNL     1      -4.776   0.264   4.229  0.00  0.00    +0.021 A 
ATOM      7  C   UNL     1      -5.847  -0.610   4.038  0.00  0.00    +0.012 A 
ATOM      8  C   UNL     1      -6.916  -0.587   4.910  0.00  0.00    +0.005 A 
ATOM      9  C   UNL     1      -6.928   0.300   5.971  0.00  0.00    -0.042 A 
ATOM     10  C   UNL     1      -5.869   1.170   6.166  0.00  0.00    +0.005 A 
ATOM     11  C   UNL     1      -4.792   1.153   5.305  0.00  0.00    +0.012 A 
BRANCH   9  12
ATOM     12  C   UNL     1      -8.099   0.320   6.920  0.00  0.00    -0.013 C 
ATOM     13  C   UNL     1      -8.243  -1.053   7.581  0.00  0.00    +0.015 C 
ATOM     14  C   UNL     1      -7.866   1.382   7.996  0.00  0.00    +0.015 C 
ATOM     15  C   UNL     1      -9.377   0.649   6.146  0.00  0.00    +0.015 C 
ENDBRANCH   9  12
ENDBRANCH   4   6
BRANCH   5  16
ATOM     16  N   UNL     1      -4.601  -1.022   1.434  0.00  0.00    -0.295 N 
ATOM     17  H   UNL     1      -4.569  -2.005   1.660  0.00  0.00    +0.163 HD
ATOM     18  H   UNL     1      -5.499  -0.626   1.667  0.00  0.00    +0.163 HD
ENDBRANCH   5  16
BRANCH   1  19
ATOM     19  S   UNL     1      -1.700  -0.632   0.015  0.00  0.00    -0.072 S 
BRANCH  19  21
ATOM     20  C   UNL     1      -0.019   1.526   0.010  0.00  0.00    +0.029 C 
ATOM     21  C   UNL     1       0.002  -0.004   0.002  0.00  0.00    +0.137 C 
BRANCH  21  22
ATOM     22  C   UNL     1       0.707  -0.490  -1.238  0.00  0.00    +0.227 C 
ATOM     23  O   UNL     1       0.066  -0.782  -2.225  0.00  0.00    -0.275 OA
ATOM     24  N   UNL     1       2.051  -0.601  -1.250  0.00  0.00    -0.310 N 
ATOM     25  H   UNL     1       2.563  -0.367  -0.460  0.00  0.00    +0.149 HD
BRANCH  24  26
ATOM     26  C   UNL     1       2.736  -1.073  -2.455  0.00  0.00    +0.026 C 
ATOM     27  C   UNL     1       2.433  -0.127  -3.618  0.00  0.00    +0.031 C 
ATOM     28  C   UNL     1       4.245  -1.105  -2.204  0.00  0.00    +0.031 C 
ATOM     29  C   UNL     1       2.247  -2.480  -2.801  0.00  0.00    +0.031 C 
ENDBRANCH  24  26
ENDBRANCH  21  22
ENDBRANCH  19  21
ENDBRANCH   1  19
TORSDOF 7
