REMARK  Name = ZINC16222491
REMARK  6 active torsions:
REMARK  status: ('A' for Active; 'I' for Inactive)
REMARK    1  A    between atoms: C_1  and  C_2
REMARK    2  A    between atoms: C_2  and  C_3
REMARK    3  A    between atoms: C_2  and  O_4
REMARK    4  A    between atoms: O_4  and  C_5
REMARK    5  A    between atoms: C_5  and  C_7
REMARK    6  A    between atoms: C_10  and  N_13
REMARK                            x       y       z     vdW  Elec       q    Type
REMARK                         _______ _______ _______ _____ _____    ______ ____
ROOT
ATOM      1  N   UNL     1      -4.939   3.966   0.049  0.00  0.00    -0.202 N 
ATOM      2  C   UNL     1      -5.751   3.858  -1.019  0.00  0.00    +0.258 C 
ATOM      3  O   UNL     1      -5.415   3.175  -1.968  0.00  0.00    -0.269 OA
ATOM      4  C   UNL     1      -7.045   4.556  -1.043  0.00  0.00    +0.046 A 
ATOM      5  C   UNL     1      -7.914   4.469  -2.120  0.00  0.00    +0.014 A 
ATOM      6  C   UNL     1      -9.124   5.152  -2.098  0.00  0.00    +0.001 A 
ATOM      7  C   UNL     1      -9.492   5.920  -1.031  0.00  0.00    +0.008 A 
ATOM      8  C   UNL     1      -8.640   6.036   0.081  0.00  0.00    -0.016 A 
ATOM      9  C   UNL     1      -7.409   5.347   0.070  0.00  0.00    +0.006 A 
ATOM     10  C   UNL     1      -6.530   5.443   1.173  0.00  0.00    +0.046 A 
ATOM     11  C   UNL     1      -6.896   6.221   2.261  0.00  0.00    +0.014 A 
ATOM     12  C   UNL     1      -8.112   6.895   2.259  0.00  0.00    +0.001 A 
ATOM     13  C   UNL     1      -8.973   6.814   1.203  0.00  0.00    +0.008 A 
ATOM     14  C   UNL     1      -5.256   4.711   1.125  0.00  0.00    +0.258 C 
ATOM     15  O   UNL     1      -4.484   4.779   2.062  0.00  0.00    -0.269 OA
ENDROOT
BRANCH   1  19
ATOM     16  C   UNL     1      -1.302   1.931   0.019  0.00  0.00    +0.059 A 
ATOM     17  C   UNL     1      -1.379   3.236  -0.477  0.00  0.00    +0.017 A 
ATOM     18  C   UNL     1      -2.583   3.903  -0.470  0.00  0.00    +0.025 A 
ATOM     19  C   UNL     1      -3.720   3.284   0.039  0.00  0.00    +0.045 A 
ATOM     20  C   UNL     1      -3.646   1.987   0.537  0.00  0.00    +0.025 A 
ATOM     21  C   UNL     1      -2.446   1.312   0.529  0.00  0.00    +0.017 A 
BRANCH  16  22
ATOM     22  C   UNL     1      -0.014   1.211   0.009  0.00  0.00    +0.339 C 
ATOM     23  O   UNL     1       0.052   0.079   0.444  0.00  0.00    -0.245 OA
BRANCH  22  24
ATOM     24  O   UNL     1       1.087   1.807  -0.489  0.00  0.00    -0.458 OA
BRANCH  24  26
ATOM     25  C   UNL     1       2.441   0.245  -1.776  0.00  0.00    +0.052 C 
ATOM     26  C   UNL     1       2.318   1.038  -0.473  0.00  0.00    +0.171 C 
ATOM     27  C   UNL     1       3.511   1.986  -0.338  0.00  0.00    +0.052 C 
ENDBRANCH  24  26
ENDBRANCH  22  24
ENDBRANCH  16  22
ENDBRANCH   1  19
TORSDOF 4
