REMARK  Name = ZINC02050114
REMARK  10 active torsions:
REMARK  status: ('A' for Active; 'I' for Inactive)
REMARK    1  A    between atoms: C_1  and  C_2
REMARK    2  A    between atoms: C_2  and  C_3
REMARK    3  A    between atoms: C_3  and  C_4
REMARK    4  A    between atoms: C_4  and  C_5
REMARK    5  A    between atoms: N_7  and  C_8
REMARK    6  A    between atoms: C_8  and  C_9
REMARK    7  A    between atoms: C_8  and  C_13
REMARK    8  A    between atoms: C_8  and  N_17
REMARK    9  A    between atoms: N_17  and  C_18
REMARK   10  A    between atoms: C_19  and  C_27
REMARK                            x       y       z     vdW  Elec       q    Type
REMARK                         _______ _______ _______ _____ _____    ______ ____
ROOT
ATOM      1  C   UNL     1      -2.348   7.065  -3.024  0.00  0.00    +0.293 C 
ENDROOT
BRANCH   1   4
ATOM      2  C   UNL     1      -1.876   9.454  -2.923  0.00  0.00    +0.215 C 
ATOM      3  O   UNL     1      -0.760   9.189  -2.530  0.00  0.00    -0.276 OA
ATOM      4  N   UNL     1      -2.728   8.462  -3.250  0.00  0.00    -0.280 N 
ATOM      5  H   UNL     1      -3.594   8.673  -3.634  0.00  0.00    +0.151 HD
BRANCH   2   6
ATOM      6  C   UNL     1      -2.310  10.891  -3.046  0.00  0.00    +0.096 C 
BRANCH   6   7
ATOM      7  C   UNL     1      -1.164  11.809  -2.616  0.00  0.00    +0.009 C 
BRANCH   7   9
ATOM      8  C   UNL     1      -0.459  14.187  -2.312  0.00  0.00    +0.004 C 
ATOM      9  C   UNL     1      -1.605  13.269  -2.742  0.00  0.00    -0.003 C 
ENDBRANCH   7   9
ENDBRANCH   6   7
ENDBRANCH   2   6
ENDBRANCH   1   4
BRANCH   1  10
ATOM     10  C   UNL     1      -1.332   6.636  -4.085  0.00  0.00    +0.436 C 
ATOM     11  F   UNL     1      -1.061   5.271  -3.945  0.00  0.00    -0.166 F 
ATOM     12  F   UNL     1      -1.857   6.879  -5.359  0.00  0.00    -0.166 F 
ATOM     13  F   UNL     1      -0.150   7.365  -3.921  0.00  0.00    -0.166 F 
ENDBRANCH   1  10
BRANCH   1  14
ATOM     14  C   UNL     1      -3.590   6.176  -3.118  0.00  0.00    +0.436 C 
ATOM     15  F   UNL     1      -4.479   6.508  -2.091  0.00  0.00    -0.166 F 
ATOM     16  F   UNL     1      -4.212   6.374  -4.356  0.00  0.00    -0.166 F 
ATOM     17  F   UNL     1      -3.213   4.835  -2.994  0.00  0.00    -0.166 F 
ENDBRANCH   1  14
BRANCH   1  18
ATOM     18  N   UNL     1      -1.750   6.930  -1.694  0.00  0.00    -0.303 N 
ATOM     19  H   UNL     1      -0.937   6.415  -1.577  0.00  0.00    +0.149 HD
BRANCH  18  20
ATOM     20  C   UNL     1      -2.346   7.537  -0.604  0.00  0.00    +0.080 A 
ATOM     21  C   UNL     1      -2.001   7.433   0.738  0.00  0.00    +0.068 A 
ATOM     22  C   UNL     1      -2.798   8.183   1.695  0.00  0.00    -0.023 A 
ATOM     23  C   UNL     1      -3.804   8.909   1.163  0.00  0.00    -0.005 A 
ATOM     24  S   UNL     1      -3.705   8.612  -0.580  0.00  0.00    -0.078 S 
ATOM     25  C   UNL     1      -4.782   9.772   1.898  0.00  0.00    +0.043 C 
ATOM     26  C   UNL     1      -4.711   9.421   3.391  0.00  0.00    +0.005 C 
ATOM     27  C   UNL     1      -3.242   9.384   3.823  0.00  0.00    +0.005 C 
ATOM     28  C   UNL     1      -2.546   8.175   3.198  0.00  0.00    +0.037 C 
BRANCH  21  29
ATOM     29  C   UNL     1      -0.877   6.601   1.171  0.00  0.00    +0.244 C 
ATOM     30  O   UNL     1       0.240   7.079   1.247  0.00  0.00    -0.270 OA
ATOM     31  N   UNL     1      -1.079   5.306   1.486  0.00  0.00    -0.325 N 
ATOM     32  H   UNL     1      -1.969   4.925   1.425  0.00  0.00    +0.145 HD
ATOM     33  H   UNL     1      -0.334   4.755   1.773  0.00  0.00    +0.145 HD
ENDBRANCH  21  29
ENDBRANCH  18  20
ENDBRANCH   1  18
TORSDOF 9
