REMARK  Name = ZINC66328680
REMARK  8 active torsions:
REMARK  status: ('A' for Active; 'I' for Inactive)
REMARK    1  A    between atoms: C_1  and  C_2
REMARK    2  A    between atoms: C_2  and  C_4
REMARK    3  A    between atoms: C_2  and  N_21
REMARK    4  A    between atoms: C_4  and  C_5
REMARK    5  A    between atoms: N_7  and  C_8
REMARK    6  A    between atoms: C_11  and  N_14
REMARK    7  A    between atoms: N_17  and  C_18
REMARK    8  A    between atoms: C_22  and  C_24
REMARK                            x       y       z     vdW  Elec       q    Type
REMARK                         _______ _______ _______ _____ _____    ______ ____
ROOT
ATOM      1  C   UNL     1       0.633  -2.007  -1.288  0.00  0.00    +0.219 C 
ATOM      2  O   UNL     1       0.068  -2.629  -0.413  0.00  0.00    -0.275 OA
ATOM      3  N   UNL     1       1.191  -2.660  -2.326  0.00  0.00    -0.285 N 
ATOM      4  H   UNL     1       1.584  -2.161  -3.059  0.00  0.00    +0.155 HD
ENDROOT
BRANCH   3   5
ATOM      5  C   UNL     1       1.204  -4.061  -2.348  0.00  0.00    +0.033 A 
ATOM      6  C   UNL     1       2.287  -4.738  -2.893  0.00  0.00    +0.025 A 
ATOM      7  C   UNL     1       2.299  -6.118  -2.913  0.00  0.00    +0.025 A 
ATOM      8  C   UNL     1       1.228  -6.830  -2.390  0.00  0.00    +0.035 A 
ATOM      9  C   UNL     1       0.145  -6.153  -1.845  0.00  0.00    +0.025 A 
ATOM     10  C   UNL     1       0.135  -4.773  -1.818  0.00  0.00    +0.025 A 
BRANCH   8  11
ATOM     11  N   UNL     1       1.240  -8.231  -2.411  0.00  0.00    -0.269 N 
ATOM     12  C   UNL     1       0.093  -8.912  -2.599  0.00  0.00    +0.304 C 
ATOM     13  O   UNL     1      -0.965  -8.315  -2.665  0.00  0.00    -0.253 OA
ATOM     14  N   UNL     1       0.117 -10.255  -2.712  0.00  0.00    -0.296 N 
ATOM     15  H   UNL     1       2.075  -8.710  -2.292  0.00  0.00    +0.156 HD
ATOM     16  H   UNL     1       0.960 -10.731  -2.660  0.00  0.00    +0.151 HD
BRANCH  14  17
ATOM     17  C   UNL     1      -1.131 -10.995  -2.916  0.00  0.00    +0.075 C 
ATOM     18  C   UNL     1      -1.333 -12.276  -2.104  0.00  0.00    +0.024 C 
ATOM     19  C   UNL     1      -1.039 -12.359  -3.603  0.00  0.00    +0.024 C 
ENDBRANCH  14  17
ENDBRANCH   8  11
ENDBRANCH   3   5
BRANCH   1  20
ATOM     20  C   UNL     1       0.711  -0.504  -1.214  0.00  0.00    +0.118 C 
BRANCH  20  22
ATOM     21  C   UNL     1      -0.025   1.511   0.067  0.00  0.00    +0.028 C 
ATOM     22  C   UNL     1       0.005  -0.019   0.053  0.00  0.00    +0.079 C 
BRANCH  22  23
ATOM     23  N   UNL     1       0.728  -0.503   1.232  0.00  0.00    -0.312 N 
ATOM     24  C   UNL     1       0.081  -0.654   2.404  0.00  0.00    +0.216 C 
ATOM     25  O   UNL     1      -1.100  -0.390   2.484  0.00  0.00    -0.276 OA
ATOM     26  H   UNL     1       1.672  -0.715   1.168  0.00  0.00    +0.149 HD
BRANCH  24  27
ATOM     27  C   UNL     1       0.825  -1.153   3.617  0.00  0.00    +0.075 C 
ATOM     28  C   UNL     1       1.397  -2.542   3.328  0.00  0.00    +0.013 C 
ATOM     29  C   UNL     1       2.153  -3.048   4.559  0.00  0.00    +0.001 C 
ATOM     30  C   UNL     1       1.194  -3.128   5.748  0.00  0.00    +0.000 C 
ATOM     31  C   UNL     1       0.621  -1.739   6.037  0.00  0.00    +0.001 C 
ATOM     32  C   UNL     1      -0.134  -1.233   4.806  0.00  0.00    +0.013 C 
ENDBRANCH  24  27
ENDBRANCH  22  23
ENDBRANCH  20  22
ENDBRANCH   1  20
TORSDOF 7
