REMARK  Name = ZINC10099745
REMARK  14 active torsions:
REMARK  status: ('A' for Active; 'I' for Inactive)
REMARK    1  A    between atoms: C_1  and  C_2
REMARK    2  A    between atoms: C_2  and  O_3
REMARK    3  A    between atoms: O_3  and  C_4
REMARK    4  A    between atoms: C_4  and  C_6
REMARK    5  A    between atoms: N_14  and  C_15
REMARK    6  A    between atoms: C_15  and  C_17
REMARK    7  A    between atoms: C_20  and  S_23
REMARK    8  A    between atoms: S_23  and  N_26
REMARK    9  A    between atoms: N_26  and  C_27
REMARK   10  A    between atoms: N_26  and  C_28
REMARK   11  A    between atoms: N_31  and  C_32
REMARK   12  A    between atoms: C_32  and  C_33
REMARK   13  A    between atoms: C_33  and  O_34
REMARK   14  A    between atoms: O_34  and  C_35
REMARK                            x       y       z     vdW  Elec       q    Type
REMARK                         _______ _______ _______ _____ _____    ______ ____
ROOT
ATOM      1  C   UNL     1      -6.178   5.468  10.826  0.00  0.00    +0.060 A 
ATOM      2  C   UNL     1      -7.261   5.332   9.950  0.00  0.00    +0.017 A 
ATOM      3  C   UNL     1      -7.082   4.914   8.668  0.00  0.00    +0.028 A 
ATOM      4  C   UNL     1      -5.800   4.606   8.177  0.00  0.00    +0.058 A 
ATOM      5  C   UNL     1      -4.724   4.748   9.069  0.00  0.00    +0.040 A 
ATOM      6  C   UNL     1      -4.892   5.167  10.364  0.00  0.00    +0.032 A 
ATOM      7  S   UNL     1      -3.320   4.268   8.095  0.00  0.00    -0.052 S 
ATOM      8  C   UNL     1      -4.150   3.922   6.612  0.00  0.00    +0.167 A 
ATOM      9  N   UNL     1      -3.637   3.504   5.460  0.00  0.00    -0.152 NA
ATOM     10  N   UNL     1      -5.452   4.175   6.914  0.00  0.00    -0.319 N 
ENDROOT
BRANCH   1  11
ATOM     11  C   UNL     1      -6.389   5.921  12.214  0.00  0.00    +0.339 C 
ATOM     12  O   UNL     1      -5.442   6.035  12.966  0.00  0.00    -0.245 OA
BRANCH  11  13
ATOM     13  O   UNL     1      -7.632   6.207  12.647  0.00  0.00    -0.461 OA
BRANCH  13  15
ATOM     14  C   UNL     1      -9.239   6.923  14.332  0.00  0.00    +0.048 C 
ATOM     15  C   UNL     1      -7.765   6.647  14.025  0.00  0.00    +0.229 C 
ENDBRANCH  13  15
ENDBRANCH  11  13
ENDBRANCH   1  11
BRANCH   9  16
ATOM     16  C   UNL     1      -2.320   3.308   5.346  0.00  0.00    +0.269 C 
ATOM     17  O   UNL     1      -1.589   3.511   6.300  0.00  0.00    -0.268 OA
BRANCH  16  18
ATOM     18  C   UNL     1      -1.749   2.842   4.061  0.00  0.00    +0.039 A 
ATOM     19  C   UNL     1      -0.375   2.636   3.939  0.00  0.00    +0.015 A 
ATOM     20  C   UNL     1       0.151   2.202   2.740  0.00  0.00    +0.029 A 
ATOM     21  C   UNL     1      -0.681   1.972   1.659  0.00  0.00    +0.106 A 
ATOM     22  C   UNL     1      -2.044   2.180   1.772  0.00  0.00    +0.029 A 
ATOM     23  C   UNL     1      -2.583   2.608   2.968  0.00  0.00    +0.015 A 
BRANCH  21  24
ATOM     24  S   UNL     1      -0.002   1.418   0.131  0.00  0.00    +0.061 S 
ATOM     25  O   UNL     1       1.359   1.827   0.119  0.00  0.00    -0.153 OA
ATOM     26  O   UNL     1      -0.921   1.798  -0.884  0.00  0.00    -0.153 OA
BRANCH  24  27
ATOM     27  N   UNL     1       0.003  -0.238   0.168  0.00  0.00    -0.177 NA
ATOM     28  C   UNL     1      -1.157  -0.985  -0.326  0.00  0.00    +0.132 C 
BRANCH  27  29
ATOM     29  C   UNL     1       1.166  -0.955   0.696  0.00  0.00    +0.080 C 
ATOM     30  C   UNL     1       1.198  -2.475   0.520  0.00  0.00    +0.022 C 
ATOM     31  C   UNL     1       0.945  -1.870   1.902  0.00  0.00    +0.022 C 
ENDBRANCH  27  29
ENDBRANCH  24  27
ENDBRANCH  21  24
ENDBRANCH  16  18
ENDBRANCH   9  16
BRANCH  10  32
ATOM     32  C   UNL     1      -6.488   3.988   5.895  0.00  0.00    +0.152 C 
BRANCH  32  33
ATOM     33  C   UNL     1      -5.943   4.414   4.530  0.00  0.00    +0.181 C 
BRANCH  33  34
ATOM     34  O   UNL     1      -6.992   4.360   3.561  0.00  0.00    -0.381 OA
ATOM     35  C   UNL     1      -6.586   4.741   2.245  0.00  0.00    +0.194 C 
ENDBRANCH  33  34
ENDBRANCH  32  33
ENDBRANCH  10  32
TORSDOF 11
