REMARK  Name = ZINC14037105
REMARK  12 active torsions:
REMARK  status: ('A' for Active; 'I' for Inactive)
REMARK    1  A    between atoms: C_1  and  C_2
REMARK    2  A    between atoms: C_2  and  C_3
REMARK    3  A    between atoms: C_3  and  O_4
REMARK    4  A    between atoms: O_4  and  C_5
REMARK    5  A    between atoms: C_10  and  C_11
REMARK    6  A    between atoms: N_13  and  C_14
REMARK    7  A    between atoms: C_14  and  N_16
REMARK    8  A    between atoms: N_16  and  N_17
REMARK    9  A    between atoms: C_18  and  C_20
REMARK   10  A    between atoms: C_23  and  N_26
REMARK   11  A    between atoms: C_27  and  C_29
REMARK   12  A    between atoms: C_34  and  C_35
REMARK                            x       y       z     vdW  Elec       q    Type
REMARK                         _______ _______ _______ _____ _____    ______ ____
ROOT
ATOM      1  N   UNL     1       1.062   1.750   0.321  0.00  0.00    -0.231 N 
ATOM      2  C   UNL     1      -0.108   1.081   0.312  0.00  0.00    +0.260 C 
ATOM      3  O   UNL     1      -0.113  -0.135   0.330  0.00  0.00    -0.269 OA
ATOM      4  H   UNL     1       1.065   2.720   0.306  0.00  0.00    +0.173 HD
ENDROOT
BRANCH   2   5
ATOM      5  C   UNL     1      -1.383   1.823   0.273  0.00  0.00    +0.038 A 
ATOM      6  C   UNL     1      -1.379   3.220   0.258  0.00  0.00    +0.015 A 
ATOM      7  C   UNL     1      -2.570   3.910   0.216  0.00  0.00    +0.024 A 
ATOM      8  C   UNL     1      -3.777   3.217   0.201  0.00  0.00    +0.034 A 
ATOM      9  C   UNL     1      -3.784   1.826   0.222  0.00  0.00    +0.024 A 
ATOM     10  C   UNL     1      -2.597   1.130   0.258  0.00  0.00    +0.015 A 
BRANCH   8  11
ATOM     11  N   UNL     1      -4.981   3.918   0.164  0.00  0.00    -0.281 N 
ATOM     12  C   UNL     1      -6.027   3.426  -0.528  0.00  0.00    +0.249 C 
ATOM     13  O   UNL     1      -5.950   2.329  -1.046  0.00  0.00    -0.270 OA
ATOM     14  H   UNL     1      -5.066   4.761   0.637  0.00  0.00    +0.155 HD
BRANCH  12  15
ATOM     15  C   UNL     1      -7.267   4.219  -0.658  0.00  0.00    +0.040 A 
ATOM     16  C   UNL     1      -7.329   5.513  -0.137  0.00  0.00    +0.013 A 
ATOM     17  C   UNL     1      -8.488   6.250  -0.265  0.00  0.00    +0.001 A 
ATOM     18  C   UNL     1      -9.591   5.705  -0.900  0.00  0.00    +0.000 A 
ATOM     19  C   UNL     1      -9.538   4.422  -1.413  0.00  0.00    +0.004 A 
ATOM     20  C   UNL     1      -8.383   3.676  -1.296  0.00  0.00    -0.038 A 
ATOM     21  C   UNL     1      -8.327   2.278  -1.856  0.00  0.00    +0.044 C 
ENDBRANCH  12  15
ENDBRANCH   8  11
ENDBRANCH   2   5
BRANCH   1  22
ATOM     22  N   UNL     1       2.272   1.045   0.352  0.00  0.00    -0.245 N 
ATOM     23  H   UNL     1       2.268   0.075   0.367  0.00  0.00    +0.172 HD
BRANCH  22  24
ATOM     24  C   UNL     1       3.442   1.714   0.361  0.00  0.00    +0.153 C 
ATOM     25  S   UNL     1       4.921   0.853   0.399  0.00  0.00    -0.017 S 
BRANCH  24  28
ATOM     26  C   UNL     1       4.617   3.731   0.350  0.00  0.00    +0.253 C 
ATOM     27  O   UNL     1       5.667   3.120   0.377  0.00  0.00    -0.270 OA
ATOM     28  N   UNL     1       3.447   3.062   0.341  0.00  0.00    -0.263 N 
ATOM     29  H   UNL     1       2.609   3.550   0.320  0.00  0.00    +0.157 HD
BRANCH  26  35
ATOM     30  C   UNL     1       5.837   5.906   0.337  0.00  0.00    +0.133 A 
ATOM     31  C   UNL     1       5.830   7.293   0.316  0.00  0.00    +0.046 A 
ATOM     32  C   UNL     1       4.633   7.979   0.286  0.00  0.00    +0.004 A 
ATOM     33  C   UNL     1       3.430   7.290   0.276  0.00  0.00    +0.001 A 
ATOM     34  C   UNL     1       3.418   5.913   0.291  0.00  0.00    +0.017 A 
ATOM     35  C   UNL     1       4.623   5.206   0.328  0.00  0.00    +0.079 A 
BRANCH  30  36
ATOM     36  O   UNL     1       7.013   5.231   0.367  0.00  0.00    -0.491 OA
BRANCH  36  37
ATOM     37  C   UNL     1       8.210   6.012   0.375  0.00  0.00    +0.229 C 
BRANCH  37  39
ATOM     38  C   UNL     1      10.706   5.919   0.417  0.00  0.00    +0.007 C 
ATOM     39  C   UNL     1       9.425   5.083   0.409  0.00  0.00    +0.038 C 
ENDBRANCH  37  39
ENDBRANCH  36  37
ENDBRANCH  30  36
ENDBRANCH  26  35
ENDBRANCH  24  28
ENDBRANCH  22  24
ENDBRANCH   1  22
TORSDOF 10
