REMARK  Name = ZINC06072528
REMARK  5 active torsions:
REMARK  status: ('A' for Active; 'I' for Inactive)
REMARK    1  A    between atoms: C_1  and  O_16
REMARK    2  A    between atoms: C_3  and  O_15
REMARK    3  A    between atoms: C_8  and  C_10
REMARK    4  A    between atoms: C_10  and  C_12
REMARK    5  A    between atoms: C_10  and  O_14
REMARK                            x       y       z     vdW  Elec       q    Type
REMARK                         _______ _______ _______ _____ _____    ______ ____
ROOT
ATOM      1  C   UNL     1      -2.772   3.547   1.329  0.00  0.00    +0.198 C 
ATOM      2  C   UNL     1      -2.356   4.803   2.127  0.00  0.00    +0.255 C 
ATOM      3  C   UNL     1      -0.843   4.758   2.157  0.00  0.00    +0.339 C 
ATOM      4  O   UNL     1      -0.136   5.555   2.727  0.00  0.00    -0.248 OA
ATOM      5  O   UNL     1      -0.406   3.702   1.457  0.00  0.00    -0.454 OA
ATOM      6  C   UNL     1      -1.471   2.714   1.331  0.00  0.00    +0.247 C 
ENDROOT
BRANCH   2   7
ATOM      7  O   UNL     1      -2.805   5.987   1.465  0.00  0.00    -0.378 OA
ATOM      8  H   UNL     1      -2.530   6.807   1.898  0.00  0.00    +0.211 HD
ENDBRANCH   2   7
BRANCH   1   9
ATOM      9  O   UNL     1      -3.152   3.894  -0.004  0.00  0.00    -0.385 OA
ATOM     10  H   UNL     1      -3.963   4.418  -0.059  0.00  0.00    +0.210 HD
ENDBRANCH   1   9
BRANCH   6  11
ATOM     11  C   UNL     1      -1.329   1.940   0.019  0.00  0.00    +0.271 C 
BRANCH  11  12
ATOM     12  C   UNL     1      -0.014   1.204   0.009  0.00  0.00    +0.388 C 
ATOM     13  O   UNL     1       0.002  -0.004   0.002  0.00  0.00    -0.243 OA
ATOM     14  O   UNL     1       1.139   1.891   0.001  0.00  0.00    -0.243 OA
ENDBRANCH  11  12
BRANCH  11  15
ATOM     15  O   UNL     1      -2.401   1.002  -0.099  0.00  0.00    -0.377 OA
ATOM     16  H   UNL     1      -2.433   0.350   0.615  0.00  0.00    +0.211 HD
ENDBRANCH  11  15
ENDBRANCH   6  11
TORSDOF 5
