REMARK  Name = ZINC10029216
REMARK  9 active torsions:
REMARK  status: ('A' for Active; 'I' for Inactive)
REMARK    1  A    between atoms: C_1  and  C_2
REMARK    2  A    between atoms: C_9  and  N_14
REMARK    3  A    between atoms: C_10  and  C_11
REMARK    4  A    between atoms: C_15  and  C_17
REMARK    5  A    between atoms: C_17  and  C_18
REMARK    6  A    between atoms: C_18  and  S_19
REMARK    7  A    between atoms: S_19  and  C_22
REMARK    8  A    between atoms: C_25  and  O_28
REMARK    9  A    between atoms: O_28  and  C_29
REMARK                            x       y       z     vdW  Elec       q    Type
REMARK                         _______ _______ _______ _____ _____    ______ ____
ROOT
ATOM      1  N   UNL     1      -2.304  -5.917   0.763  0.00  0.00    -0.279 N 
ATOM      2  C   UNL     1      -3.569  -6.205   0.396  0.00  0.00    +0.219 C 
ATOM      3  O   UNL     1      -4.297  -5.325  -0.013  0.00  0.00    -0.275 OA
ATOM      4  H   UNL     1      -1.722  -6.620   1.090  0.00  0.00    +0.155 HD
ENDROOT
BRANCH   1  12
ATOM      5  C   UNL     1      -0.019   1.526   0.010  0.00  0.00    +0.008 C 
ATOM      6  C   UNL     1       0.002  -0.004   0.002  0.00  0.00    -0.009 C 
ATOM      7  C   UNL     1       0.742  -0.514   1.242  0.00  0.00    +0.008 C 
ATOM      8  C   UNL     1       0.984  -2.020   1.121  0.00  0.00    +0.037 C 
ATOM      9  C   UNL     1      -0.340  -2.706   0.809  0.00  0.00    -0.023 A 
ATOM     10  C   UNL     1      -1.390  -2.006   0.327  0.00  0.00    -0.004 A 
ATOM     11  S   UNL     1      -2.678  -3.203   0.125  0.00  0.00    -0.077 S 
ATOM     12  C   UNL     1      -1.836  -4.615   0.673  0.00  0.00    +0.084 A 
ATOM     13  C   UNL     1      -0.579  -4.127   0.999  0.00  0.00    +0.068 A 
ATOM     14  C   UNL     1      -1.437  -0.538   0.030  0.00  0.00    +0.046 C 
BRANCH  13  15
ATOM     15  C   UNL     1       0.470  -5.011   1.517  0.00  0.00    +0.244 C 
ATOM     16  O   UNL     1       0.577  -5.192   2.716  0.00  0.00    -0.270 OA
ATOM     17  N   UNL     1       1.315  -5.624   0.665  0.00  0.00    -0.325 N 
ATOM     18  H   UNL     1       1.230  -5.480  -0.291  0.00  0.00    +0.145 HD
ATOM     19  H   UNL     1       2.009  -6.209   1.007  0.00  0.00    +0.145 HD
ENDBRANCH  13  15
ENDBRANCH   1  12
BRANCH   2  20
ATOM     20  C   UNL     1      -4.078  -7.620   0.494  0.00  0.00    +0.119 C 
BRANCH  20  21
ATOM     21  C   UNL     1      -5.532  -7.673   0.019  0.00  0.00    +0.181 C 
BRANCH  21  22
ATOM     22  S   UNL     1      -6.144  -9.376   0.137  0.00  0.00    -0.003 S 
ATOM     23  O   UNL     1      -5.477 -10.203  -0.806  0.00  0.00    -0.169 OA
ATOM     24  O   UNL     1      -6.245  -9.767   1.499  0.00  0.00    -0.169 OA
BRANCH  22  25
ATOM     25  C   UNL     1      -7.810  -9.299  -0.433  0.00  0.00    +0.088 A 
ATOM     26  C   UNL     1      -8.836  -9.062   0.463  0.00  0.00    +0.030 A 
ATOM     27  C   UNL     1     -10.142  -8.995   0.018  0.00  0.00    +0.047 A 
ATOM     28  C   UNL     1     -10.425  -9.177  -1.328  0.00  0.00    +0.120 A 
ATOM     29  C   UNL     1      -9.395  -9.419  -2.224  0.00  0.00    +0.047 A 
ATOM     30  C   UNL     1      -8.089  -9.480  -1.775  0.00  0.00    +0.030 A 
BRANCH  28  31
ATOM     31  O   UNL     1     -11.710  -9.116  -1.767  0.00  0.00    -0.495 OA
ATOM     32  C   UNL     1     -12.719  -8.863  -0.788  0.00  0.00    +0.277 C 
ENDBRANCH  28  31
ENDBRANCH  22  25
ENDBRANCH  21  22
ENDBRANCH  20  21
ENDBRANCH   2  20
TORSDOF 7
