REMARK  Name = ZINC20527627
REMARK  10 active torsions:
REMARK  status: ('A' for Active; 'I' for Inactive)
REMARK    1  A    between atoms: C_1  and  N_2
REMARK    2  A    between atoms: N_2  and  C_3
REMARK    3  A    between atoms: N_2  and  C_4
REMARK    4  A    between atoms: C_7  and  C_10
REMARK    5  A    between atoms: N_11  and  N_12
REMARK    6  A    between atoms: C_16  and  S_19
REMARK    7  A    between atoms: N_17  and  N_18
REMARK    8  A    between atoms: S_19  and  C_20
REMARK    9  A    between atoms: C_20  and  C_21
REMARK   10  A    between atoms: N_23  and  C_24
REMARK                            x       y       z     vdW  Elec       q    Type
REMARK                         _______ _______ _______ _____ _____    ______ ____
ROOT
ATOM      1  N   UNL     1      -0.013   1.383   0.075  0.00  0.00    -0.204 N 
ATOM      2  C   UNL     1       0.006  -0.004   0.057  0.00  0.00    +0.254 A 
ATOM      3  N   UNL     1      -1.045  -0.789   0.067  0.00  0.00    -0.109 NA
ATOM      4  N   UNL     1      -0.594  -2.115   0.038  0.00  0.00    -0.119 NA
ATOM      5  C   UNL     1       0.717  -2.098   0.022  0.00  0.00    +0.210 A 
ATOM      6  N   UNL     1       1.122  -0.793   0.033  0.00  0.00    -0.211 N 
ATOM      7  H   UNL     1       0.933   1.945   0.074  0.00  0.00    +0.177 HD
ENDROOT
BRANCH   6   8
ATOM      8  N   UNL     1       2.415  -0.354   0.021  0.00  0.00    -0.294 N 
ATOM      9  H   UNL     1       3.242  -1.079   0.002  0.00  0.00    +0.163 HD
ATOM     10  H   UNL     1       2.630   0.725   0.031  0.00  0.00    +0.163 HD
ENDBRANCH   6   8
BRANCH   1  12
ATOM     11  C   UNL     1      -1.252   3.366   0.110  0.00  0.00    +0.138 C 
ATOM     12  N   UNL     1      -1.235   2.067   0.093  0.00  0.00    -0.188 NA
BRANCH  11  16
ATOM     13  C   UNL     1      -4.956   5.440   0.164  0.00  0.00    +0.029 A 
ATOM     14  C   UNL     1      -3.762   6.152   0.164  0.00  0.00    +0.024 A 
ATOM     15  C   UNL     1      -2.558   5.483   0.147  0.00  0.00    +0.011 A 
ATOM     16  C   UNL     1      -2.538   4.086   0.129  0.00  0.00    -0.005 A 
ATOM     17  C   UNL     1      -3.740   3.373   0.124  0.00  0.00    +0.011 A 
ATOM     18  C   UNL     1      -4.940   4.049   0.146  0.00  0.00    +0.024 A 
BRANCH  13  20
ATOM     19  C   UNL     1      -6.193   7.586   0.200  0.00  0.00    +0.129 C 
ATOM     20  N   UNL     1      -6.174   6.122   0.181  0.00  0.00    -0.336 N 
ATOM     21  C   UNL     1      -7.433   5.372   0.181  0.00  0.00    +0.129 C 
ENDBRANCH  13  20
ENDBRANCH  11  16
ENDBRANCH   1  12
BRANCH   5  22
ATOM     22  S   UNL     1       1.771  -3.509  -0.009  0.00  0.00    -0.075 S 
BRANCH  22  23
ATOM     23  C   UNL     1       0.624  -4.914  -0.012  0.00  0.00    +0.173 C 
BRANCH  23  24
ATOM     24  C   UNL     1       1.406  -6.202  -0.038  0.00  0.00    +0.228 C 
ATOM     25  O   UNL     1       2.619  -6.174  -0.054  0.00  0.00    -0.275 OA
ATOM     26  N   UNL     1       0.759  -7.384  -0.045  0.00  0.00    -0.284 N 
ATOM     27  H   UNL     1      -0.337  -7.411   0.043  0.00  0.00    +0.155 HD
BRANCH  26  28
ATOM     28  C   UNL     1       1.481  -8.577  -0.164  0.00  0.00    +0.053 A 
ATOM     29  C   UNL     1       2.738  -8.690   0.415  0.00  0.00    +0.025 A 
ATOM     30  C   UNL     1       3.449  -9.868   0.297  0.00  0.00    +0.003 A 
ATOM     31  C   UNL     1       2.911 -10.936  -0.397  0.00  0.00    +0.021 A 
ATOM     32  C   UNL     1       1.658 -10.828  -0.976  0.00  0.00    +0.061 A 
ATOM     33  C   UNL     1       0.939  -9.652  -0.856  0.00  0.00    +0.080 A 
ATOM     34 CL   UNL     1      -0.635  -9.519  -1.576  0.00  0.00    -0.080 Cl
ATOM     35 CL   UNL     1       0.987 -12.171  -1.847  0.00  0.00    -0.082 Cl
ENDBRANCH  26  28
ENDBRANCH  23  24
ENDBRANCH  22  23
ENDBRANCH   5  22
TORSDOF 8
