REMARK  Name = ZINC32097181
REMARK  3 active torsions:
REMARK  status: ('A' for Active; 'I' for Inactive)
REMARK    1  A    between atoms: C_3  and  O_27
REMARK    2  A    between atoms: C_6  and  N_7
REMARK    3  A    between atoms: O_27  and  C_28
REMARK                            x       y       z     vdW  Elec       q    Type
REMARK                         _______ _______ _______ _____ _____    ______ ____
ROOT
ATOM      1  N   UNL     1      -1.203  -0.722   0.010  0.00  0.00    -0.218 N 
ATOM      2  C   UNL     1      -1.434  -1.895  -0.614  0.00  0.00    +0.133 A 
ATOM      3  C   UNL     1      -2.736  -2.247  -0.363  0.00  0.00    +0.032 A 
ATOM      4  C   UNL     1      -3.297  -1.266   0.441  0.00  0.00    +0.141 A 
ATOM      5  N   UNL     1      -2.384  -0.352   0.675  0.00  0.00    -0.173 NA
ATOM      6  C   UNL     1      -3.346  -3.500  -0.927  0.00  0.00    +0.111 C 
ATOM      7  C   UNL     1      -2.249  -4.542  -1.140  0.00  0.00    +0.122 C 
ATOM      8  C   UNL     1      -1.020  -3.921  -1.744  0.00  0.00    +0.220 C 
ATOM      9  O   UNL     1      -0.387  -4.551  -2.565  0.00  0.00    -0.275 OA
ATOM     10  N   UNL     1      -0.600  -2.685  -1.403  0.00  0.00    -0.270 N 
ATOM     11  C   UNL     1      -4.081  -3.221  -2.198  0.00  0.00    -0.005 A 
ATOM     12  C   UNL     1      -3.655  -2.722  -3.410  0.00  0.00    +0.026 A 
ATOM     13  C   UNL     1      -4.616  -2.583  -4.408  0.00  0.00    +0.041 A 
ATOM     14  C   UNL     1      -5.935  -2.929  -4.189  0.00  0.00    +0.022 A 
ATOM     15  C   UNL     1      -6.369  -3.431  -2.973  0.00  0.00    +0.025 A 
ATOM     16  C   UNL     1      -5.415  -3.577  -1.964  0.00  0.00    +0.038 A 
ATOM     17  N   UNL     1      -5.568  -4.048  -0.671  0.00  0.00    -0.284 N 
ATOM     18  C   UNL     1      -4.403  -4.038   0.011  0.00  0.00    +0.233 C 
ATOM     19  O   UNL     1      -4.237  -4.394   1.159  0.00  0.00    -0.274 OA
ATOM     20 CL   UNL     1      -4.146  -1.959  -5.959  0.00  0.00    -0.084 Cl
ATOM     21  H   UNL     1       0.262  -2.354  -1.700  0.00  0.00    +0.156 HD
ATOM     22  H   UNL     1      -6.412  -4.348  -0.299  0.00  0.00    +0.155 HD
ENDROOT
BRANCH   1  28
ATOM     23  C   UNL     1      -0.017   1.384   0.010  0.00  0.00    +0.031 A 
ATOM     24  C   UNL     1       1.170   2.091   0.002  0.00  0.00    +0.048 A 
ATOM     25  C   UNL     1       2.380   1.413  -0.013  0.00  0.00    +0.130 A 
ATOM     26  C   UNL     1       2.400   0.026  -0.021  0.00  0.00    +0.048 A 
ATOM     27  C   UNL     1       1.214  -0.681  -0.013  0.00  0.00    +0.031 A 
ATOM     28  C   UNL     1       0.002  -0.004   0.002  0.00  0.00    +0.068 A 
BRANCH  25  29
ATOM     29  O   UNL     1       3.548   2.109  -0.022  0.00  0.00    -0.406 OA
BRANCH  29  30
ATOM     30  C   UNL     1       4.757   1.347  -0.038  0.00  0.00    +0.575 C 
ATOM     31  F   UNL     1       4.789   0.547  -1.185  0.00  0.00    -0.133 F 
ATOM     32  F   UNL     1       5.855   2.215  -0.045  0.00  0.00    -0.133 F 
ATOM     33  F   UNL     1       4.812   0.535   1.100  0.00  0.00    -0.133 F 
ENDBRANCH  29  30
ENDBRANCH  25  29
ENDBRANCH   1  28
TORSDOF 3
