REMARK  Name = ZINC08841316
REMARK  12 active torsions:
REMARK  status: ('A' for Active; 'I' for Inactive)
REMARK    1  A    between atoms: C_1  and  C_2
REMARK    2  A    between atoms: C_2  and  C_3
REMARK    3  A    between atoms: N_11  and  C_12
REMARK    4  A    between atoms: C_12  and  C_14
REMARK    5  A    between atoms: N_19  and  S_20
REMARK    6  A    between atoms: S_20  and  C_23
REMARK    7  A    between atoms: C_26  and  C_29
REMARK    8  A    between atoms: N_30  and  C_31
REMARK    9  A    between atoms: C_31  and  C_32
REMARK   10  A    between atoms: C_32  and  O_34
REMARK   11  A    between atoms: O_34  and  C_35
REMARK   12  A    between atoms: C_35  and  C_36
REMARK                            x       y       z     vdW  Elec       q    Type
REMARK                         _______ _______ _______ _____ _____    ______ ____
ROOT
ATOM      1  C   UNL     1       0.925   1.984   0.110  0.00  0.00    -0.046 A 
ATOM      2  C   UNL     1       2.150   1.338   0.087  0.00  0.00    +0.006 A 
ATOM      3  C   UNL     1       2.232  -0.034   0.054  0.00  0.00    +0.027 A 
ATOM      4  C   UNL     1       1.070  -0.822   0.043  0.00  0.00    +0.058 A 
ATOM      5  C   UNL     1      -0.155  -0.140   0.069  0.00  0.00    +0.039 A 
ATOM      6  C   UNL     1      -0.236   1.232   0.101  0.00  0.00    +0.020 A 
ATOM      7  S   UNL     1      -1.351  -1.452   0.046  0.00  0.00    -0.052 S 
ATOM      8  C   UNL     1      -0.254  -2.794   0.006  0.00  0.00    +0.167 A 
ATOM      9  N   UNL     1      -0.540  -4.094  -0.022  0.00  0.00    -0.155 NA
ATOM     10  N   UNL     1       0.969  -2.200   0.011  0.00  0.00    -0.310 N 
ENDROOT
BRANCH   1  12
ATOM     11  C   UNL     1       0.845   3.965   1.600  0.00  0.00    +0.009 C 
ATOM     12  C   UNL     1       0.858   3.489   0.146  0.00  0.00    +0.032 C 
ENDBRANCH   1  12
BRANCH   9  13
ATOM     13  C   UNL     1       0.436  -4.991   0.065  0.00  0.00    +0.257 C 
ATOM     14  O   UNL     1       1.107  -5.064   1.077  0.00  0.00    -0.272 OA
BRANCH  13  15
ATOM     15  C   UNL     1       0.713  -5.918  -1.091  0.00  0.00    +0.167 C 
ATOM     16  C   UNL     1       1.134  -5.101  -2.330  0.00  0.00    +0.031 C 
ATOM     17  C   UNL     1       2.683  -5.176  -2.287  0.00  0.00    +0.019 C 
ATOM     18  C   UNL     1       2.910  -6.609  -1.742  0.00  0.00    +0.110 C 
ATOM     19  N   UNL     1       1.831  -6.813  -0.758  0.00  0.00    -0.165 NA
BRANCH  19  20
ATOM     20  S   UNL     1       1.873  -7.874   0.513  0.00  0.00    +0.062 S 
ATOM     21  O   UNL     1       3.244  -8.102   0.807  0.00  0.00    -0.153 OA
ATOM     22  O   UNL     1       0.958  -7.382   1.483  0.00  0.00    -0.153 OA
BRANCH  20  23
ATOM     23  C   UNL     1       1.219  -9.405  -0.064  0.00  0.00    +0.106 A 
ATOM     24  C   UNL     1      -0.135  -9.661   0.039  0.00  0.00    +0.029 A 
ATOM     25  C   UNL     1      -0.648 -10.860  -0.419  0.00  0.00    +0.005 A 
ATOM     26  C   UNL     1       0.194 -11.807  -0.970  0.00  0.00    -0.050 A 
ATOM     27  C   UNL     1       1.549 -11.553  -1.069  0.00  0.00    +0.005 A 
ATOM     28  C   UNL     1       2.062 -10.352  -0.616  0.00  0.00    +0.029 A 
ATOM     29  C   UNL     1      -0.365 -13.116  -1.465  0.00  0.00    +0.044 C 
ENDBRANCH  20  23
ENDBRANCH  19  20
ENDBRANCH  13  15
ENDBRANCH   9  13
BRANCH  10  30
ATOM     30  C   UNL     1       2.181  -3.022  -0.017  0.00  0.00    +0.244 C 
BRANCH  30  31
ATOM     31  C   UNL     1       2.682  -3.228   1.389  0.00  0.00    +0.327 C 
ATOM     32  O   UNL     1       2.086  -2.738   2.320  0.00  0.00    -0.249 OA
BRANCH  31  33
ATOM     33  O   UNL     1       3.788  -3.955   1.608  0.00  0.00    -0.464 OA
BRANCH  33  34
ATOM     34  C   UNL     1       4.212  -4.112   2.988  0.00  0.00    +0.229 C 
ATOM     35  C   UNL     1       5.481  -4.964   3.039  0.00  0.00    +0.048 C 
ENDBRANCH  33  34
ENDBRANCH  31  33
ENDBRANCH  30  31
ENDBRANCH  10  30
TORSDOF 9
