REMARK  Name = ZINC57355143
REMARK  9 active torsions:
REMARK  status: ('A' for Active; 'I' for Inactive)
REMARK    1  A    between atoms: C_1  and  C_2
REMARK    2  A    between atoms: C_2  and  C_4
REMARK    3  A    between atoms: C_2  and  N_14
REMARK    4  A    between atoms: C_7  and  S_10
REMARK    5  A    between atoms: S_10  and  N_13
REMARK    6  A    between atoms: N_14  and  C_15
REMARK    7  A    between atoms: C_15  and  C_16
REMARK    8  A    between atoms: N_18  and  C_19
REMARK    9  A    between atoms: C_20  and  C_29
REMARK                            x       y       z     vdW  Elec       q    Type
REMARK                         _______ _______ _______ _____ _____    ______ ____
ROOT
ATOM      1  C   UNL     1      -0.191  -0.572   2.348  0.00  0.00    +0.178 C 
ENDROOT
BRANCH   1   2
ATOM      2  C   UNL     1       0.572  -1.074   3.547  0.00  0.00    +0.231 C 
ATOM      3  O   UNL     1       1.752  -1.338   3.448  0.00  0.00    -0.274 OA
ATOM      4  N   UNL     1      -0.057  -1.229   4.729  0.00  0.00    -0.278 N 
ATOM      5  H   UNL     1      -1.000  -1.018   4.808  0.00  0.00    +0.155 HD
BRANCH   4   6
ATOM      6  C   UNL     1       0.645  -1.692   5.833  0.00  0.00    +0.090 A 
ATOM      7  C   UNL     1       0.168  -1.916   7.112  0.00  0.00    +0.084 A 
ATOM      8  C   UNL     1       1.114  -2.406   8.104  0.00  0.00    -0.018 A 
ATOM      9  C   UNL     1       2.366  -2.576   7.629  0.00  0.00    -0.004 A 
ATOM     10  S   UNL     1       2.267  -2.114   5.922  0.00  0.00    -0.077 S 
ATOM     11  C   UNL     1       3.574  -3.043   8.380  0.00  0.00    +0.043 C 
ATOM     12  C   UNL     1       3.217  -4.312   9.167  0.00  0.00    +0.005 C 
ATOM     13  C   UNL     1       2.697  -3.902  10.541  0.00  0.00    +0.001 C 
ATOM     14  C   UNL     1       1.946  -2.575  10.448  0.00  0.00    +0.005 C 
ATOM     15  C   UNL     1       0.726  -2.715   9.543  0.00  0.00    +0.037 C 
BRANCH   7  16
ATOM     16  C   UNL     1      -1.203  -1.674   7.447  0.00  0.00    +0.102 C 
ATOM     17  N   UNL     1      -2.291  -1.483   7.713  0.00  0.00    -0.191 NA
ENDBRANCH   7  16
ENDBRANCH   4   6
ENDBRANCH   1   2
BRANCH   1  18
ATOM     18  N   UNL     1       0.713  -0.491   1.192  0.00  0.00    -0.302 NA
ATOM     19  H   UNL     1       1.151  -1.381   1.012  0.00  0.00    +0.123 HD
BRANCH  18  21
ATOM     20  C   UNL     1      -0.019   1.526   0.010  0.00  0.00    +0.029 C 
ATOM     21  C   UNL     1       0.002  -0.004   0.002  0.00  0.00    +0.081 C 
BRANCH  21  22
ATOM     22  C   UNL     1       0.707  -0.490  -1.238  0.00  0.00    -0.031 A 
ATOM     23  C   UNL     1       2.089  -0.511  -1.284  0.00  0.00    +0.007 A 
ATOM     24  C   UNL     1       2.736  -0.957  -2.421  0.00  0.00    +0.029 A 
ATOM     25  C   UNL     1       2.002  -1.382  -3.512  0.00  0.00    +0.105 A 
ATOM     26  C   UNL     1       0.620  -1.362  -3.466  0.00  0.00    +0.029 A 
ATOM     27  C   UNL     1      -0.027  -0.920  -2.327  0.00  0.00    +0.007 A 
BRANCH  25  28
ATOM     28  S   UNL     1       2.826  -1.949  -4.962  0.00  0.00    +0.056 S 
ATOM     29  O   UNL     1       1.916  -1.778  -6.040  0.00  0.00    -0.153 OA
ATOM     30  O   UNL     1       4.117  -1.356  -4.954  0.00  0.00    -0.153 OA
BRANCH  28  31
ATOM     31  N   UNL     1       3.054  -3.580  -4.790  0.00  0.00    -0.204 NA
ATOM     32  H   UNL     1       3.075  -4.153  -5.573  0.00  0.00    +0.144 HD
ATOM     33  H   UNL     1       3.167  -3.963  -3.906  0.00  0.00    +0.144 HD
ENDBRANCH  28  31
ENDBRANCH  25  28
ENDBRANCH  21  22
ENDBRANCH  18  21
ENDBRANCH   1  18
TORSDOF 8
