REMARK  Name = ZINC66790465
REMARK  5 active torsions:
REMARK  status: ('A' for Active; 'I' for Inactive)
REMARK    1  A    between atoms: C_10  and  C_13
REMARK    2  A    between atoms: C_13  and  C_14
REMARK    3  A    between atoms: N_16  and  N_17
REMARK    4  A    between atoms: C_18  and  C_20
REMARK    5  A    between atoms: C_20  and  C_21
REMARK                            x       y       z     vdW  Elec       q    Type
REMARK                         _______ _______ _______ _____ _____    ______ ____
ROOT
ATOM      1  C   UNL     1       4.815  -1.711   2.839  0.00  0.00    +0.231 C 
ATOM      2  O   UNL     1       5.762  -1.647   2.085  0.00  0.00    -0.274 OA
ATOM      3  N   UNL     1       4.975  -1.431   4.148  0.00  0.00    -0.234 N 
ATOM      4  H   UNL     1       4.218  -1.483   4.751  0.00  0.00    +0.173 HD
ENDROOT
BRANCH   3   5
ATOM      5  N   UNL     1       6.236  -1.066   4.637  0.00  0.00    -0.234 N 
ATOM      6  C   UNL     1       6.397  -0.786   5.945  0.00  0.00    +0.229 C 
ATOM      7  O   UNL     1       5.450  -0.851   6.700  0.00  0.00    -0.274 OA
ATOM      8  H   UNL     1       6.994  -1.015   4.033  0.00  0.00    +0.173 HD
BRANCH   6   9
ATOM      9  C   UNL     1       7.754  -0.393   6.471  0.00  0.00    +0.101 C 
BRANCH   9  10
ATOM     10  C   UNL     1       7.661  -0.132   7.975  0.00  0.00    -0.002 C 
ATOM     11  C   UNL     1       6.763   1.081   8.228  0.00  0.00    +0.004 C 
ATOM     12  C   UNL     1       6.671   1.343   9.732  0.00  0.00    +0.000 C 
ATOM     13  C   UNL     1       8.069   1.619  10.289  0.00  0.00    +0.000 C 
ATOM     14  C   UNL     1       8.967   0.407  10.036  0.00  0.00    +0.000 C 
ATOM     15  C   UNL     1       9.060   0.145   8.531  0.00  0.00    +0.004 C 
ENDBRANCH   9  10
ENDBRANCH   6   9
ENDBRANCH   3   5
BRANCH   1  16
ATOM     16  C   UNL     1       3.458  -2.104   2.314  0.00  0.00    +0.121 C 
BRANCH  16  26
ATOM     17  C   UNL     1      -0.017   1.377   0.010  0.00  0.00    +0.002 A 
ATOM     18  C   UNL     1       1.166   2.094   0.002  0.00  0.00    +0.001 A 
ATOM     19  C   UNL     1       2.377   1.426  -0.018  0.00  0.00    +0.016 A 
ATOM     20  C   UNL     1       2.401   0.041  -0.027  0.00  0.00    +0.030 A 
ATOM     21  C   UNL     1       1.213  -0.690  -0.012  0.00  0.00    +0.047 A 
ATOM     22  C   UNL     1       0.002  -0.004   0.002  0.00  0.00    +0.024 A 
ATOM     23  N   UNL     1       1.206  -2.081   0.003  0.00  0.00    -0.284 N 
ATOM     24  C   UNL     1       2.227  -2.877   0.302  0.00  0.00    +0.231 C 
ATOM     25  O   UNL     1       2.087  -4.073   0.160  0.00  0.00    -0.274 OA
ATOM     26  C   UNL     1       3.550  -2.366   0.809  0.00  0.00    +0.146 C 
ATOM     27  S   UNL     1       3.943  -0.818  -0.063  0.00  0.00    -0.110 S 
ATOM     28  H   UNL     1       0.369  -2.514  -0.229  0.00  0.00    +0.155 HD
ENDBRANCH  16  26
ENDBRANCH   1  16
TORSDOF 5
