REMARK  Name = ZINC02361594
REMARK  8 active torsions:
REMARK  status: ('A' for Active; 'I' for Inactive)
REMARK    1  A    between atoms: C_1  and  C_2
REMARK    2  A    between atoms: C_2  and  O_3
REMARK    3  A    between atoms: O_3  and  C_4
REMARK    4  A    between atoms: C_7  and  N_10
REMARK    5  A    between atoms: C_11  and  C_13
REMARK    6  A    between atoms: C_13  and  S_14
REMARK    7  A    between atoms: S_14  and  C_15
REMARK    8  A    between atoms: C_27  and  N_52
REMARK                            x       y       z     vdW  Elec       q    Type
REMARK                         _______ _______ _______ _____ _____    ______ ____
ROOT
ATOM      1  C   UNL     1       0.825  -1.307   0.075  0.00  0.00    +0.191 A 
ATOM      2  N   UNL     1      -0.321  -0.635   0.088  0.00  0.00    -0.207 NA
ATOM      3  C   UNL     1      -0.361   0.686   0.108  0.00  0.00    +0.129 A 
ATOM      4  C   UNL     1       0.859   1.419   0.115  0.00  0.00    +0.051 A 
ATOM      5  C   UNL     1       1.056   2.868   0.137  0.00  0.00    -0.028 A 
ATOM      6  C   UNL     1       2.330   3.315   0.138  0.00  0.00    -0.021 A 
ATOM      7  S   UNL     1       3.331   1.854   0.112  0.00  0.00    -0.075 S 
ATOM      8  C   UNL     1       2.035   0.642   0.100  0.00  0.00    +0.115 A 
ATOM      9  N   UNL     1       1.992  -0.676   0.080  0.00  0.00    -0.215 NA
ATOM     10  C   UNL     1       2.775   4.745   0.156  0.00  0.00    -0.036 C 
ATOM     11  C   UNL     1       0.447   5.219   0.624  0.00  0.00    -0.074 C 
ATOM     12  C   UNL     1      -0.099   3.866   0.161  0.00  0.00    +0.018 C 
ATOM     13  C   UNL     1       1.940   7.016  -0.013  0.00  0.00    -0.096 C 
ATOM     14  N   UNL     1      -1.575   1.348   0.115  0.00  0.00    -0.343 N 
ATOM     15  H   UNL     1      -2.401   0.847   0.037  0.00  0.00    +0.144 HD
ATOM     16  H   UNL     1      -1.600   2.314   0.198  0.00  0.00    +0.144 HD
ATOM     17  N   UNL     1       1.610   5.588  -0.207  0.00  0.00    +0.381 N 
ATOM     18  H   UNL     1       1.379   5.430  -1.195  0.00  0.00    -0.082 HD
ENDROOT
BRANCH   1  19
ATOM     19  S   UNL     1       0.795  -3.068   0.049  0.00  0.00    -0.077 S 
BRANCH  19  20
ATOM     20  C   UNL     1      -0.992  -3.352   0.050  0.00  0.00    +0.173 C 
BRANCH  20  22
ATOM     21  N   UNL     1      -2.536  -5.285   0.026  0.00  0.00    -0.285 N 
ATOM     22  C   UNL     1      -1.266  -4.834   0.029  0.00  0.00    +0.227 C 
ATOM     23  O   UNL     1      -0.343  -5.621   0.014  0.00  0.00    -0.275 OA
ATOM     24  H   UNL     1      -3.273  -4.658  -0.042  0.00  0.00    +0.155 HD
BRANCH  21  28
ATOM     25  C   UNL     1      -3.297  -9.375   0.310  0.00  0.00    +0.121 A 
ATOM     26  C   UNL     1      -2.220  -8.822   0.985  0.00  0.00    +0.047 A 
ATOM     27  C   UNL     1      -1.967  -7.468   0.892  0.00  0.00    +0.027 A 
ATOM     28  C   UNL     1      -2.792  -6.659   0.121  0.00  0.00    +0.034 A 
ATOM     29  C   UNL     1      -3.873  -7.213  -0.551  0.00  0.00    +0.027 A 
ATOM     30  C   UNL     1      -4.122  -8.568  -0.461  0.00  0.00    +0.047 A 
BRANCH  25  31
ATOM     31  O   UNL     1      -3.546 -10.708   0.403  0.00  0.00    -0.492 OA
BRANCH  31  33
ATOM     32  C   UNL     1      -4.791 -12.719  -0.095  0.00  0.00    +0.048 C 
ATOM     33  C   UNL     1      -4.673 -11.210  -0.319  0.00  0.00    +0.225 C 
ENDBRANCH  31  33
ENDBRANCH  25  31
ENDBRANCH  21  28
ENDBRANCH  20  22
ENDBRANCH  19  20
ENDBRANCH   1  19
TORSDOF 6
