REMARK  Name = ZINC40683311
REMARK  5 active torsions:
REMARK  status: ('A' for Active; 'I' for Inactive)
REMARK    1  A    between atoms: C_10  and  C_11
REMARK    2  A    between atoms: N_13  and  N_14
REMARK    3  A    between atoms: C_16  and  N_32
REMARK    4  A    between atoms: C_17  and  O_21
REMARK    5  A    between atoms: O_21  and  C_22
REMARK                            x       y       z     vdW  Elec       q    Type
REMARK                         _______ _______ _______ _____ _____    ______ ____
ROOT
ATOM      1  N   UNL     1       7.334   0.210  -0.149  0.00  0.00    -0.246 N 
ATOM      2  C   UNL     1       8.540  -0.472  -0.050  0.00  0.00    +0.163 A 
ATOM      3  C   UNL     1       9.747   0.228   0.035  0.00  0.00    +0.129 A 
ATOM      4  C   UNL     1      10.928  -0.505   0.133  0.00  0.00    +0.246 A 
ATOM      5  N   UNL     1      10.863  -1.833   0.142  0.00  0.00    -0.199 NA
ATOM      6  C   UNL     1       9.705  -2.456   0.060  0.00  0.00    +0.227 A 
ATOM      7  N   UNL     1       8.565  -1.802  -0.028  0.00  0.00    -0.217 NA
ATOM      8  H   UNL     1       7.325   1.180  -0.164  0.00  0.00    +0.172 HD
ENDROOT
BRANCH   1  11
ATOM      9  C   UNL     1       4.960   0.159  -0.324  0.00  0.00    +0.261 C 
ATOM     10  O   UNL     1       4.949   1.375  -0.343  0.00  0.00    -0.269 OA
ATOM     11  N   UNL     1       6.130  -0.503  -0.228  0.00  0.00    -0.231 N 
ATOM     12  H   UNL     1       6.139  -1.472  -0.212  0.00  0.00    +0.173 HD
BRANCH   9  22
ATOM     13  C   UNL     1      -0.001   1.384  -0.331  0.00  0.00    +0.001 A 
ATOM     14  C   UNL     1       1.183   2.114  -0.251  0.00  0.00    +0.001 A 
ATOM     15  C   UNL     1       2.393   1.489  -0.275  0.00  0.00    +0.009 A 
ATOM     16  C   UNL     1       2.452   0.093  -0.380  0.00  0.00    -0.006 A 
ATOM     17  C   UNL     1       1.250  -0.651  -0.461  0.00  0.00    -0.017 A 
ATOM     18  C   UNL     1       0.019   0.026  -0.434  0.00  0.00    +0.008 A 
ATOM     19  C   UNL     1       1.308  -2.052  -0.565  0.00  0.00    +0.008 A 
ATOM     20  C   UNL     1       2.513  -2.687  -0.588  0.00  0.00    +0.001 A 
ATOM     21  C   UNL     1       3.703  -1.974  -0.509  0.00  0.00    +0.014 A 
ATOM     22  C   UNL     1       3.693  -0.591  -0.407  0.00  0.00    +0.046 A 
ENDBRANCH   9  22
ENDBRANCH   1  11
BRANCH   3  23
ATOM     23  N   UNL     1       9.768   1.632   0.021  0.00  0.00    -0.351 N 
ATOM     24  H   UNL     1       8.938   2.129  -0.048  0.00  0.00    +0.143 HD
ATOM     25  H   UNL     1      10.614   2.104   0.081  0.00  0.00    +0.143 HD
ENDBRANCH   3  23
BRANCH   4  26
ATOM     26  O   UNL     1      12.126   0.127   0.217  0.00  0.00    -0.436 OA
BRANCH  26  27
ATOM     27  C   UNL     1      13.250  -0.634   0.205  0.00  0.00    +0.138 A 
ATOM     28  C   UNL     1      13.829  -1.037   1.387  0.00  0.00    +0.047 A 
ATOM     29  C   UNL     1      14.982  -1.817   1.386  0.00  0.00    +0.004 A 
ATOM     30  C   UNL     1      15.568  -2.204   0.219  0.00  0.00    +0.009 A 
ATOM     31  C   UNL     1      15.007  -1.814  -1.009  0.00  0.00    -0.014 A 
ATOM     32  C   UNL     1      13.831  -1.024  -1.020  0.00  0.00    +0.024 A 
ATOM     33  C   UNL     1      13.269  -0.640  -2.248  0.00  0.00    +0.012 A 
ATOM     34  C   UNL     1      13.857  -1.035  -3.410  0.00  0.00    +0.001 A 
ATOM     35  C   UNL     1      15.010  -1.817  -3.401  0.00  0.00    +0.001 A 
ATOM     36  C   UNL     1      15.589  -2.198  -2.230  0.00  0.00    +0.008 A 
ENDBRANCH  26  27
ENDBRANCH   4  26
TORSDOF 5
