REMARK  Name = ZINC19351327
REMARK  11 active torsions:
REMARK  status: ('A' for Active; 'I' for Inactive)
REMARK    1  A    between atoms: C_1  and  C_2
REMARK    2  A    between atoms: C_5  and  C_8
REMARK    3  A    between atoms: N_10  and  C_11
REMARK    4  A    between atoms: C_11  and  C_13
REMARK    5  A    between atoms: C_11  and  C_16
REMARK    6  A    between atoms: C_13  and  C_14
REMARK    7  A    between atoms: C_13  and  C_15
REMARK    8  A    between atoms: C_16  and  O_18
REMARK    9  A    between atoms: O_18  and  C_19
REMARK   10  A    between atoms: C_19  and  C_20
REMARK   11  A    between atoms: N_25  and  C_26
REMARK                            x       y       z     vdW  Elec       q    Type
REMARK                         _______ _______ _______ _____ _____    ______ ____
ROOT
ATOM      1  C   UNL     1      -0.723   1.947   1.250  0.00  0.00    +0.328 C 
ATOM      2  O   UNL     1      -1.164   1.151   2.045  0.00  0.00    -0.249 OA
ENDROOT
BRANCH   1   3
ATOM      3  C   UNL     1      -0.018   1.461   0.010  0.00  0.00    +0.185 C 
BRANCH   3   6
ATOM      4  C   UNL     1       0.961  -0.661  -0.680  0.00  0.00    +0.245 C 
ATOM      5  O   UNL     1       1.809  -0.039  -1.289  0.00  0.00    -0.270 OA
ATOM      6  N   UNL     1       0.002  -0.004   0.002  0.00  0.00    -0.298 N 
ATOM      7  H   UNL     1      -0.765  -0.568   0.553  0.00  0.00    +0.150 HD
BRANCH   4  12
ATOM      8  C   UNL     1       1.040  -6.415  -0.710  0.00  0.00    +0.044 C 
ATOM      9  C   UNL     1       1.019  -4.909  -0.702  0.00  0.00    -0.050 A 
ATOM     10  C   UNL     1       1.986  -4.203  -1.397  0.00  0.00    +0.004 A 
ATOM     11  C   UNL     1       1.972  -2.823  -1.394  0.00  0.00    +0.013 A 
ATOM     12  C   UNL     1       0.981  -2.140  -0.688  0.00  0.00    +0.037 A 
ATOM     13  C   UNL     1       0.012  -2.858   0.014  0.00  0.00    +0.013 A 
ATOM     14  C   UNL     1       0.034  -4.237  -0.001  0.00  0.00    +0.004 A 
ENDBRANCH   4  12
ENDBRANCH   3   6
BRANCH   3  15
ATOM     15  C   UNL     1      -0.758   1.968  -1.230  0.00  0.00    +0.014 C 
ATOM     16  C   UNL     1      -2.226   1.542  -1.156  0.00  0.00    +0.009 C 
ATOM     17  C   UNL     1      -0.671   3.494  -1.286  0.00  0.00    +0.009 C 
ENDBRANCH   3  15
ENDBRANCH   1   3
BRANCH   1  18
ATOM     18  O   UNL     1      -0.862   3.264   1.471  0.00  0.00    -0.454 OA
BRANCH  18  19
ATOM     19  C   UNL     1      -1.552   3.659   2.685  0.00  0.00    +0.328 C 
BRANCH  19  20
ATOM     20  C   UNL     1      -1.611   5.163   2.762  0.00  0.00    +0.258 C 
ATOM     21  O   UNL     1      -1.120   5.835   1.881  0.00  0.00    -0.272 OA
ATOM     22  N   UNL     1      -2.210   5.761   3.811  0.00  0.00    -0.237 N 
ATOM     23  C   UNL     1      -2.263   7.106   3.880  0.00  0.00    +0.306 C 
ATOM     24  O   UNL     1      -1.770   7.780   2.996  0.00  0.00    -0.252 OA
ATOM     25  N   UNL     1      -2.861   7.704   4.929  0.00  0.00    -0.296 N 
ATOM     26  H   UNL     1      -2.655   5.152   4.611  0.00  0.00    +0.159 HD
ATOM     27  H   UNL     1      -3.307   7.095   5.729  0.00  0.00    +0.151 HD
BRANCH  25  28
ATOM     28  C   UNL     1      -2.919   9.166   5.004  0.00  0.00    +0.074 C 
ATOM     29  C   UNL     1      -1.626   9.696   5.627  0.00  0.00    +0.022 C 
ATOM     30  C   UNL     1      -1.686  11.223   5.705  0.00  0.00    +0.002 C 
ATOM     31  C   UNL     1      -2.878  11.643   6.568  0.00  0.00    +0.000 C 
ATOM     32  C   UNL     1      -4.171  11.113   5.945  0.00  0.00    +0.002 C 
ATOM     33  C   UNL     1      -4.111   9.586   5.867  0.00  0.00    +0.022 C 
ENDBRANCH  25  28
ENDBRANCH  19  20
ENDBRANCH  18  19
ENDBRANCH   1  18
TORSDOF 8
