REMARK  Name = ZINC23179397
REMARK  8 active torsions:
REMARK  status: ('A' for Active; 'I' for Inactive)
REMARK    1  A    between atoms: C_1  and  S_2
REMARK    2  A    between atoms: S_2  and  N_5
REMARK    3  A    between atoms: N_5  and  C_6
REMARK    4  A    between atoms: C_6  and  C_7
REMARK    5  A    between atoms: C_7  and  C_8
REMARK    6  A    between atoms: C_11  and  C_13
REMARK    7  A    between atoms: N_15  and  N_16
REMARK    8  A    between atoms: C_17  and  C_19
REMARK                            x       y       z     vdW  Elec       q    Type
REMARK                         _______ _______ _______ _____ _____    ______ ____
ROOT
ATOM      1  C   UNL     1      -0.018   1.462   0.010  0.00  0.00    +0.267 C 
ATOM      2  O   UNL     1      -1.080   2.056   0.018  0.00  0.00    -0.268 OA
ATOM      3  N   UNL     1       1.140   2.151   0.003  0.00  0.00    -0.230 N 
ATOM      4  H   UNL     1       2.100   1.614  -0.009  0.00  0.00    +0.173 HD
ENDROOT
BRANCH   1   8
ATOM      5  C   UNL     1       0.544  -2.616  -0.019  0.00  0.00    -0.008 A 
ATOM      6  C   UNL     1      -0.759  -2.231  -0.003  0.00  0.00    +0.012 A 
ATOM      7  C   UNL     1      -1.062  -0.892   0.007  0.00  0.00    +0.021 A 
ATOM      8  C   UNL     1       0.002  -0.004   0.002  0.00  0.00    +0.076 A 
ATOM      9  S   UNL     1       1.402  -1.110  -0.025  0.00  0.00    -0.089 S 
BRANCH   5  10
ATOM     10  C   UNL     1       1.107  -4.014  -0.033  0.00  0.00    +0.059 C 
BRANCH  10  11
ATOM     11  C   UNL     1       1.284  -4.478  -1.480  0.00  0.00    +0.110 C 
BRANCH  11  12
ATOM     12  N   UNL     1       1.831  -5.837  -1.495  0.00  0.00    -0.194 NA
ATOM     13  H   UNL     1       2.418  -6.202  -0.639  0.00  0.00    +0.148 HD
BRANCH  12  15
ATOM     14  C   UNL     1       2.856  -5.849  -4.049  0.00  0.00    +0.214 C 
ATOM     15  S   UNL     1       1.782  -6.734  -2.885  0.00  0.00    +0.027 S 
ATOM     16  O   UNL     1       2.365  -7.981  -2.532  0.00  0.00    -0.158 OA
ATOM     17  O   UNL     1       0.430  -6.663  -3.316  0.00  0.00    -0.158 OA
ENDBRANCH  12  15
ENDBRANCH  11  12
ENDBRANCH  10  11
ENDBRANCH   5  10
ENDBRANCH   1   8
BRANCH   3  18
ATOM     18  N   UNL     1       1.121   3.552   0.010  0.00  0.00    -0.230 N 
ATOM     19  C   UNL     1       2.279   4.242   0.003  0.00  0.00    +0.267 C 
ATOM     20  O   UNL     1       3.341   3.648  -0.010  0.00  0.00    -0.268 OA
ATOM     21  H   UNL     1       0.161   4.089   0.022  0.00  0.00    +0.173 HD
BRANCH  19  22
ATOM     22  C   UNL     1       2.259   5.707   0.011  0.00  0.00    +0.076 A 
ATOM     23  C   UNL     1       3.320   6.595   0.006  0.00  0.00    +0.024 A 
ATOM     24  C   UNL     1       3.035   7.955   0.009  0.00  0.00    -0.036 A 
ATOM     25  C   UNL     1       1.728   8.300   0.047  0.00  0.00    -0.006 A 
ATOM     26  S   UNL     1       0.859   6.816   0.023  0.00  0.00    -0.088 S 
ATOM     27  C   UNL     1       1.165   9.702   0.111  0.00  0.00    +0.043 C 
ATOM     28  C   UNL     1       1.469  10.376  -1.238  0.00  0.00    +0.005 C 
ATOM     29  C   UNL     1       2.906  10.842  -1.278  0.00  0.00    +0.001 C 
ATOM     30  C   UNL     1       3.957   9.768  -1.391  0.00  0.00    +0.005 C 
ATOM     31  C   UNL     1       4.146   9.009  -0.076  0.00  0.00    +0.036 C 
ENDBRANCH  19  22
ENDBRANCH   3  18
TORSDOF 7
