REMARK  Name = ZINC00340077
REMARK  4 active torsions:
REMARK  status: ('A' for Active; 'I' for Inactive)
REMARK    1  A    between atoms: C_1  and  C_2
REMARK    2  A    between atoms: C_9  and  N_23
REMARK    3  A    between atoms: C_10  and  C_21
REMARK    4  A    between atoms: C_11  and  C_13
REMARK                            x       y       z     vdW  Elec       q    Type
REMARK                         _______ _______ _______ _____ _____    ______ ____
ROOT
ATOM      1  C   UNL     1       4.088   1.360  -3.114  0.00  0.00    +0.068 C 
ATOM      2  C   UNL     1       3.898   2.751  -2.566  0.00  0.00    +0.068 A 
ATOM      3  C   UNL     1       3.721   3.083  -1.230  0.00  0.00    +0.049 A 
ATOM      4  C   UNL     1       3.585   4.440  -1.145  0.00  0.00    +0.222 A 
ATOM      5  N   UNL     1       3.674   4.936  -2.390  0.00  0.00    -0.246 N 
ATOM      6  H   UNL     1       3.611   5.900  -2.646  0.00  0.00    +0.192 HD
ATOM      7  N   UNL     1       3.871   3.859  -3.268  0.00  0.00    -0.176 NA
ATOM      8  O   UNL     1       3.397   5.085   0.033  0.00  0.00    -0.423 OA
ATOM      9  C   UNL     1       3.619   4.391   1.168  0.00  0.00    +0.200 C 
ATOM     10  C   UNL     1       3.758   3.047   1.212  0.00  0.00    +0.098 C 
ATOM     11  C   UNL     1       3.672   2.184  -0.021  0.00  0.00    +0.101 C 
ENDROOT
BRANCH  11  12
ATOM     12  C   UNL     1       2.378   1.413  -0.013  0.00  0.00    -0.033 A 
ATOM     13  C   UNL     1       2.397   0.030  -0.021  0.00  0.00    +0.007 A 
ATOM     14  C   UNL     1       1.211  -0.679  -0.013  0.00  0.00    +0.040 A 
ATOM     15  C   UNL     1       0.002  -0.004   0.002  0.00  0.00    +0.137 A 
ATOM     16  C   UNL     1      -0.017   1.381   0.010  0.00  0.00    +0.053 A 
ATOM     17  C   UNL     1       1.172   2.088   0.002  0.00  0.00    +0.022 A 
ATOM     18 BR   UNL     1      -1.667   2.305   0.022  0.00  0.00    -0.047 Br
ATOM     19  F   UNL     1      -1.158  -0.696   0.009  0.00  0.00    -0.204 F 
ENDBRANCH  11  12
BRANCH   9  20
ATOM     20  N   UNL     1       3.708   5.090   2.346  0.00  0.00    -0.328 N 
ATOM     21  H   UNL     1       3.867   4.618   3.179  0.00  0.00    +0.145 HD
ATOM     22  H   UNL     1       3.612   6.055   2.346  0.00  0.00    +0.145 HD
ENDBRANCH   9  20
BRANCH  10  23
ATOM     23  C   UNL     1       3.996   2.421   2.478  0.00  0.00    +0.101 C 
ATOM     24  N   UNL     1       4.184   1.923   3.482  0.00  0.00    -0.191 NA
ENDBRANCH  10  23
TORSDOF 3
