REMARK  Name = ZINC65393820
REMARK  1 active torsions:
REMARK  status: ('A' for Active; 'I' for Inactive)
REMARK    1  A    between atoms: C_4  and  C_12
REMARK                            x       y       z     vdW  Elec       q    Type
REMARK                         _______ _______ _______ _____ _____    ______ ____
ROOT
ATOM      1  C   UNL     1      -0.018   1.511   0.010  0.00  0.00    +0.067 C 
ATOM      2  C   UNL     1       1.452   1.950  -0.001  0.00  0.00    +0.087 C 
ATOM      3  N   UNL     1       2.178   1.425  -1.150  0.00  0.00    -0.307 NA
ATOM      4  C   UNL     1       1.878   0.050  -1.544  0.00  0.00    +0.107 C 
ATOM      5  C   UNL     1       1.297  -0.729  -0.363  0.00  0.00    +0.121 C 
ATOM      6  C   UNL     1       0.002  -0.004   0.002  0.00  0.00    +0.035 C 
ATOM      7  N   UNL     1      -0.914  -0.842   0.220  0.00  0.00    -0.276 NA
ATOM      8  C   UNL     1      -0.415  -2.213   0.025  0.00  0.00    +0.225 C 
ATOM      9  N   UNL     1       0.860  -2.083  -0.759  0.00  0.00    -0.288 NA
ATOM     10  H   UNL     1       2.109   2.051  -1.938  0.00  0.00    +0.123 HD
ATOM     11  H   UNL     1       0.679  -2.129  -1.751  0.00  0.00    +0.124 HD
ENDROOT
BRANCH   4  12
ATOM     12  C   UNL     1       3.143  -0.624  -2.007  0.00  0.00    -0.028 C 
ATOM     13  C   UNL     1       3.198  -1.198  -3.247  0.00  0.00    +0.011 C 
ATOM     14  C   UNL     1       4.445  -1.746  -3.598  0.00  0.00    -0.018 C 
ATOM     15  C   UNL     1       4.804  -2.778  -4.378  0.00  0.00    +0.025 C 
ATOM     16  C   UNL     1       6.165  -3.084  -4.151  0.00  0.00    +0.106 C 
ATOM     17  N   UNL     1       6.736  -2.223  -3.357  0.00  0.00    -0.279 NA
ATOM     18  C   UNL     1       5.749  -1.203  -3.034  0.00  0.00    +0.158 C 
ATOM     19  C   UNL     1       5.540  -0.957  -1.570  0.00  0.00    +0.004 C 
ATOM     20  C   UNL     1       4.312  -0.659  -1.133  0.00  0.00    +0.003 C 
ENDBRANCH   4  12
TORSDOF 1
