REMARK  Name = ZINC04834432
REMARK  8 active torsions:
REMARK  status: ('A' for Active; 'I' for Inactive)
REMARK    1  A    between atoms: C_1  and  C_2
REMARK    2  A    between atoms: C_7  and  N_12
REMARK    3  A    between atoms: C_9  and  C_11
REMARK    4  A    between atoms: C_13  and  C_15
REMARK    5  A    between atoms: C_20  and  N_21
REMARK    6  A    between atoms: N_21  and  C_22
REMARK    7  A    between atoms: C_22  and  C_23
REMARK    8  A    between atoms: C_23  and  O_24
REMARK                            x       y       z     vdW  Elec       q    Type
REMARK                         _______ _______ _______ _____ _____    ______ ____
ROOT
ATOM      1  C   UNL     1       1.226   1.956   0.076  0.00  0.00    +0.058 A 
ATOM      2  C   UNL     1       1.191   3.345  -0.024  0.00  0.00    +0.015 A 
ATOM      3  C   UNL     1       2.365   4.071  -0.111  0.00  0.00    +0.013 A 
ATOM      4  C   UNL     1       3.596   3.422  -0.100  0.00  0.00    +0.035 A 
ATOM      5  C   UNL     1       3.651   2.021   0.001  0.00  0.00    +0.055 A 
ATOM      6  C   UNL     1       2.462   1.284   0.095  0.00  0.00    +0.051 A 
ATOM      7  C   UNL     1       4.951   1.330   0.013  0.00  0.00    +0.196 C 
ATOM      8  O   UNL     1       4.995   0.118   0.100  0.00  0.00    -0.287 OA
ATOM      9  C   UNL     1       6.203   2.111  -0.081  0.00  0.00    +0.033 A 
ATOM     10  C   UNL     1       7.436   1.464  -0.071  0.00  0.00    +0.012 A 
ATOM     11  C   UNL     1       8.603   2.202  -0.160  0.00  0.00    +0.001 A 
ATOM     12  C   UNL     1       8.554   3.581  -0.259  0.00  0.00    +0.001 A 
ATOM     13  C   UNL     1       7.337   4.240  -0.271  0.00  0.00    +0.012 A 
ATOM     14  C   UNL     1       6.153   3.512  -0.182  0.00  0.00    +0.033 A 
ATOM     15  C   UNL     1       4.849   4.206  -0.194  0.00  0.00    +0.195 C 
ATOM     16  O   UNL     1       4.804   5.417  -0.281  0.00  0.00    -0.287 OA
ENDROOT
BRANCH   1  18
ATOM     17  N   UNL     1      -1.210   1.838   0.264  0.00  0.00    -0.308 N 
ATOM     18  C   UNL     1      -0.033   1.190   0.169  0.00  0.00    +0.246 C 
ATOM     19  O   UNL     1      -0.007  -0.025   0.153  0.00  0.00    -0.270 OA
ATOM     20  H   UNL     1      -1.231   2.808   0.276  0.00  0.00    +0.149 HD
BRANCH  17  26
ATOM     21  C   UNL     1      -4.592  -0.153   1.938  0.00  0.00    +0.008 C 
ATOM     22  C   UNL     1      -4.829   1.131   1.140  0.00  0.00    -0.009 C 
ATOM     23  C   UNL     1      -5.307   0.774  -0.269  0.00  0.00    +0.003 C 
ATOM     24  C   UNL     1      -4.242  -0.072  -0.970  0.00  0.00    +0.002 C 
ATOM     25  C   UNL     1      -2.938   0.722  -1.059  0.00  0.00    +0.022 C 
ATOM     26  C   UNL     1      -2.460   1.078   0.350  0.00  0.00    +0.076 C 
ATOM     27  C   UNL     1      -3.525   1.925   1.051  0.00  0.00    +0.009 C 
ATOM     28  C   UNL     1      -3.047   2.281   2.460  0.00  0.00    +0.009 C 
ENDBRANCH  17  26
ENDBRANCH   1  18
BRANCH   6  29
ATOM     29  N   UNL     1       2.503  -0.091   0.200  0.00  0.00    -0.341 N 
ATOM     30  H   UNL     1       1.808  -0.520  -0.392  0.00  0.00    +0.146 HD
BRANCH  29  31
ATOM     31  C   UNL     1       2.342  -0.518   1.596  0.00  0.00    +0.129 C 
BRANCH  31  32
ATOM     32  C   UNL     1       2.497  -2.037   1.686  0.00  0.00    +0.174 C 
BRANCH  32  33
ATOM     33  O   UNL     1       3.832  -2.402   1.332  0.00  0.00    -0.393 OA
ATOM     34  H   UNL     1       4.003  -3.353   1.367  0.00  0.00    +0.209 HD
ENDBRANCH  32  33
ENDBRANCH  31  32
ENDBRANCH  29  31
ENDBRANCH   6  29
TORSDOF 6
