REMARK  Name = ZINC36587120
REMARK  14 active torsions:
REMARK  status: ('A' for Active; 'I' for Inactive)
REMARK    1  A    between atoms: C_1  and  C_2
REMARK    2  A    between atoms: C_2  and  C_3
REMARK    3  A    between atoms: C_2  and  C_4
REMARK    4  A    between atoms: C_2  and  N_5
REMARK    5  A    between atoms: N_5  and  C_6
REMARK    6  A    between atoms: C_6  and  C_8
REMARK    7  A    between atoms: C_6  and  C_17
REMARK    8  A    between atoms: C_11  and  O_16
REMARK    9  A    between atoms: C_12  and  O_14
REMARK   10  A    between atoms: O_14  and  C_15
REMARK   11  A    between atoms: N_19  and  C_20
REMARK   12  A    between atoms: C_26  and  C_28
REMARK   13  A    between atoms: C_32  and  O_35
REMARK   14  A    between atoms: C_33  and  O_34
REMARK                            x       y       z     vdW  Elec       q    Type
REMARK                         _______ _______ _______ _____ _____    ______ ____
ROOT
ATOM      1  C   UNL     1       1.336  -1.523   0.262  0.00  0.00    +0.193 C 
ENDROOT
BRANCH   1   2
ATOM      2  C   UNL     1       1.663  -2.816   0.964  0.00  0.00    -0.014 A 
ATOM      3  C   UNL     1       0.658  -3.545   1.570  0.00  0.00    +0.010 A 
ATOM      4  C   UNL     1       0.953  -4.731   2.215  0.00  0.00    +0.049 A 
ATOM      5  C   UNL     1       2.259  -5.193   2.254  0.00  0.00    +0.158 A 
ATOM      6  C   UNL     1       3.271  -4.459   1.642  0.00  0.00    +0.162 A 
ATOM      7  C   UNL     1       2.968  -3.273   0.994  0.00  0.00    +0.055 A 
BRANCH   6   8
ATOM      8  O   UNL     1       4.554  -4.908   1.677  0.00  0.00    -0.491 OA
ATOM      9  C   UNL     1       5.541  -4.103   1.029  0.00  0.00    +0.277 C 
ENDBRANCH   6   8
BRANCH   5  10
ATOM     10  O   UNL     1       2.551  -6.360   2.888  0.00  0.00    -0.503 OA
ATOM     11  H   UNL     1       2.501  -7.140   2.319  0.00  0.00    +0.292 HD
ENDBRANCH   5  10
ENDBRANCH   1   2
BRANCH   1  12
ATOM     12  C   UNL     1       1.455  -0.379   1.236  0.00  0.00    +0.238 C 
ATOM     13  O   UNL     1       0.499   0.336   1.451  0.00  0.00    -0.273 OA
ATOM     14  N   UNL     1       2.623  -0.150   1.869  0.00  0.00    -0.311 N 
ATOM     15  H   UNL     1       3.387  -0.722   1.697  0.00  0.00    +0.149 HD
BRANCH  14  16
ATOM     16  C   UNL     1       2.738   0.962   2.815  0.00  0.00    +0.073 C 
ATOM     17  C   UNL     1       3.067   2.247   2.054  0.00  0.00    +0.022 C 
ATOM     18  C   UNL     1       3.187   3.409   3.043  0.00  0.00    +0.002 C 
ATOM     19  C   UNL     1       4.303   3.110   4.047  0.00  0.00    +0.000 C 
ATOM     20  C   UNL     1       3.974   1.824   4.808  0.00  0.00    +0.002 C 
ATOM     21  C   UNL     1       3.853   0.663   3.819  0.00  0.00    +0.022 C 
ENDBRANCH  14  16
ENDBRANCH   1  12
BRANCH   1  22
ATOM     22  N   UNL     1      -0.032  -1.582  -0.258  0.00  0.00    -0.277 N 
ATOM     23  C   UNL     1      -1.049  -1.923   0.559  0.00  0.00    +0.252 C 
ATOM     24  O   UNL     1      -0.984  -1.675   1.747  0.00  0.00    -0.270 OA
BRANCH  23  25
ATOM     25  C   UNL     1      -2.241  -2.597   0.010  0.00  0.00    +0.082 A 
ATOM     26  C   UNL     1      -2.428  -2.678  -1.373  0.00  0.00    +0.017 A 
ATOM     27  C   UNL     1      -3.542  -3.308  -1.882  0.00  0.00    +0.005 A 
ATOM     28  C   UNL     1      -4.482  -3.864  -1.030  0.00  0.00    +0.049 A 
ATOM     29  C   UNL     1      -4.311  -3.792   0.342  0.00  0.00    +0.159 A 
ATOM     30  C   UNL     1      -3.188  -3.163   0.871  0.00  0.00    +0.171 A 
BRANCH  30  31
ATOM     31  O   UNL     1      -3.014  -3.096   2.216  0.00  0.00    -0.503 OA
ATOM     32  H   UNL     1      -3.404  -2.311   2.624  0.00  0.00    +0.292 HD
ENDBRANCH  30  31
BRANCH  29  33
ATOM     33  O   UNL     1      -5.238  -4.340   1.173  0.00  0.00    -0.503 OA
ATOM     34  H   UNL     1      -5.066  -5.264   1.399  0.00  0.00    +0.292 HD
ENDBRANCH  29  33
ENDBRANCH  23  25
BRANCH  22  36
ATOM     35  C   UNL     1       0.752  -0.276  -2.171  0.00  0.00    +0.031 C 
ATOM     36  C   UNL     1      -0.295  -1.270  -1.665  0.00  0.00    +0.030 C 
ATOM     37  C   UNL     1      -1.690  -0.654  -1.798  0.00  0.00    +0.031 C 
ATOM     38  C   UNL     1      -0.223  -2.554  -2.494  0.00  0.00    +0.031 C 
ENDBRANCH  22  36
ENDBRANCH   1  22
TORSDOF 10
