REMARK  Name = ZINC59856202
REMARK  7 active torsions:
REMARK  status: ('A' for Active; 'I' for Inactive)
REMARK    1  A    between atoms: C_1  and  N_2
REMARK    2  A    between atoms: C_3  and  C_19
REMARK    3  A    between atoms: C_6  and  S_7
REMARK    4  A    between atoms: S_7  and  C_8
REMARK    5  A    between atoms: C_8  and  C_9
REMARK    6  A    between atoms: C_10  and  N_16
REMARK    7  A    between atoms: C_22  and  N_25
REMARK                            x       y       z     vdW  Elec       q    Type
REMARK                         _______ _______ _______ _____ _____    ______ ____
ROOT
ATOM      1  C   UNL     1      -1.521   0.040  -0.016  0.00  0.00    +0.153 C 
ATOM      2  N   UNL     1      -1.168  -1.374   0.138  0.00  0.00    -0.305 N 
ATOM      3  C   UNL     1      -1.228  -2.355  -0.824  0.00  0.00    +0.165 A 
ATOM      4  N   UNL     1      -0.824  -3.471  -0.262  0.00  0.00    -0.128 NA
ATOM      5  N   UNL     1      -0.520  -3.257   0.968  0.00  0.00    -0.122 NA
ATOM      6  C   UNL     1      -0.705  -1.991   1.266  0.00  0.00    +0.192 A 
ENDROOT
BRANCH   3   7
ATOM      7  C   UNL     1      -1.665  -2.186  -2.225  0.00  0.00    +0.019 A 
ATOM      8  C   UNL     1      -1.685  -0.915  -2.804  0.00  0.00    +0.013 A 
ATOM      9  C   UNL     1      -2.093  -0.761  -4.111  0.00  0.00    +0.023 A 
ATOM     10  C   UNL     1      -2.486  -1.869  -4.854  0.00  0.00    +0.025 A 
ATOM     11  C   UNL     1      -2.468  -3.135  -4.280  0.00  0.00    +0.023 A 
ATOM     12  C   UNL     1      -2.055  -3.297  -2.976  0.00  0.00    +0.013 A 
BRANCH  10  13
ATOM     13  N   UNL     1      -2.900  -1.709  -6.177  0.00  0.00    -0.358 N 
ATOM     14  H   UNL     1      -2.913  -0.825  -6.577  0.00  0.00    +0.142 HD
ATOM     15  H   UNL     1      -3.175  -2.481  -6.696  0.00  0.00    +0.142 HD
ENDBRANCH  10  13
ENDBRANCH   3   7
BRANCH   6  16
ATOM     16  S   UNL     1      -0.415  -1.232   2.829  0.00  0.00    -0.081 S 
BRANCH  16  17
ATOM     17  C   UNL     1       0.184  -2.590   3.872  0.00  0.00    +0.116 C 
BRANCH  17  18
ATOM     18  C   UNL     1       0.474  -2.069   5.256  0.00  0.00    +0.011 A 
ATOM     19  C   UNL     1       1.728  -1.572   5.559  0.00  0.00    +0.132 A 
ATOM     20  C   UNL     1       1.995  -1.095   6.829  0.00  0.00    +0.033 A 
ATOM     21  C   UNL     1       1.008  -1.115   7.797  0.00  0.00    +0.004 A 
ATOM     22  C   UNL     1      -0.246  -1.611   7.495  0.00  0.00    +0.020 A 
ATOM     23  C   UNL     1      -0.515  -2.083   6.223  0.00  0.00    +0.047 A 
ATOM     24 CL   UNL     1      -2.092  -2.700   5.841  0.00  0.00    -0.083 Cl
BRANCH  19  25
ATOM     25  N   UNL     1       2.786  -1.551   4.524  0.00  0.00    +0.057 N 
ATOM     26  O   UNL     1       3.931  -1.796   4.824  0.00  0.00    -0.126 OA
ATOM     27  O   UNL     1       2.504  -1.288   3.378  0.00  0.00    -0.126 OA
ENDBRANCH  19  25
ENDBRANCH  17  18
ENDBRANCH  16  17
ENDBRANCH   6  16
TORSDOF 6
