REMARK  Name = ZINC21459549
REMARK  10 active torsions:
REMARK  status: ('A' for Active; 'I' for Inactive)
REMARK    1  A    between atoms: C_1  and  C_2
REMARK    2  A    between atoms: C_2  and  C_4
REMARK    3  A    between atoms: C_2  and  S_18
REMARK    4  A    between atoms: N_6  and  C_7
REMARK    5  A    between atoms: C_11  and  C_13
REMARK    6  A    between atoms: S_18  and  C_19
REMARK    7  A    between atoms: C_22  and  C_25
REMARK    8  A    between atoms: N_23  and  N_24
REMARK    9  A    between atoms: C_28  and  O_31
REMARK   10  A    between atoms: O_31  and  C_32
REMARK                            x       y       z     vdW  Elec       q    Type
REMARK                         _______ _______ _______ _____ _____    ______ ____
ROOT
ATOM      1  C   UNL     1      -3.301   3.742  -1.211  0.00  0.00    +0.029 C 
ATOM      2  C   UNL     1      -3.618   3.198   0.183  0.00  0.00    +0.137 C 
ENDROOT
BRANCH   2   3
ATOM      3  C   UNL     1      -5.107   3.011   0.323  0.00  0.00    +0.230 C 
ATOM      4  O   UNL     1      -5.595   1.909   0.193  0.00  0.00    -0.274 OA
ATOM      5  N   UNL     1      -5.897   4.070   0.594  0.00  0.00    -0.285 N 
ATOM      6  H   UNL     1      -5.448   5.053   0.798  0.00  0.00    +0.155 HD
BRANCH   5   7
ATOM      7  C   UNL     1      -7.288   3.918   0.615  0.00  0.00    +0.034 A 
ATOM      8  C   UNL     1      -7.902   3.016  -0.245  0.00  0.00    +0.025 A 
ATOM      9  C   UNL     1      -9.274   2.865  -0.219  0.00  0.00    +0.022 A 
ATOM     10  C   UNL     1     -10.039   3.618   0.655  0.00  0.00    +0.053 A 
ATOM     11  C   UNL     1      -9.430   4.521   1.509  0.00  0.00    +0.075 A 
ATOM     12  C   UNL     1      -8.057   4.672   1.490  0.00  0.00    +0.037 A 
ATOM     13 CL   UNL     1     -11.764   3.430   0.681  0.00  0.00    -0.083 Cl
BRANCH  11  14
ATOM     14  C   UNL     1     -10.265   5.339   2.459  0.00  0.00    +0.419 C 
ATOM     15  F   UNL     1      -9.431   6.173   3.213  0.00  0.00    -0.166 F 
ATOM     16  F   UNL     1     -11.170   6.120   1.732  0.00  0.00    -0.166 F 
ATOM     17  F   UNL     1     -10.969   4.486   3.316  0.00  0.00    -0.166 F 
ENDBRANCH  11  14
ENDBRANCH   5   7
ENDBRANCH   2   3
BRANCH   2  18
ATOM     18  S   UNL     1      -2.787   1.607   0.413  0.00  0.00    -0.072 S 
BRANCH  18  19
ATOM     19  C   UNL     1      -1.105   2.130   0.353  0.00  0.00    +0.209 A 
ATOM     20  N   UNL     1      -0.677   3.361   0.186  0.00  0.00    -0.121 NA
ATOM     21  N   UNL     1       0.608   3.385   0.186  0.00  0.00    -0.127 NA
ATOM     22  C   UNL     1       1.079   2.172   0.358  0.00  0.00    +0.182 A 
ATOM     23  N   UNL     1      -0.003   1.331   0.474  0.00  0.00    -0.224 N 
BRANCH  22  24
ATOM     24  C   UNL     1       2.504   1.783   0.417  0.00  0.00    +0.021 A 
ATOM     25  C   UNL     1       2.868   0.530   0.915  0.00  0.00    +0.015 A 
ATOM     26  C   UNL     1       4.198   0.170   0.963  0.00  0.00    +0.046 A 
ATOM     27  C   UNL     1       5.175   1.054   0.527  0.00  0.00    +0.120 A 
ATOM     28  C   UNL     1       4.818   2.303   0.036  0.00  0.00    +0.046 A 
ATOM     29  C   UNL     1       3.490   2.669  -0.021  0.00  0.00    +0.015 A 
BRANCH  27  30
ATOM     30  O   UNL     1       6.485   0.697   0.580  0.00  0.00    -0.495 OA
ATOM     31  C   UNL     1       6.782  -0.603   1.096  0.00  0.00    +0.277 C 
ENDBRANCH  27  30
ENDBRANCH  22  24
BRANCH  23  32
ATOM     32  N   UNL     1       0.019  -0.022   0.663  0.00  0.00    -0.295 N 
ATOM     33  H   UNL     1       0.980  -0.550   0.745  0.00  0.00    +0.163 HD
ATOM     34  H   UNL     1      -0.925  -0.583   0.734  0.00  0.00    +0.163 HD
ENDBRANCH  23  32
ENDBRANCH  18  19
ENDBRANCH   2  18
TORSDOF 8
