REMARK  Name = ZINC20155198
REMARK  11 active torsions:
REMARK  status: ('A' for Active; 'I' for Inactive)
REMARK    1  A    between atoms: C_1  and  C_2
REMARK    2  A    between atoms: C_2  and  O_3
REMARK    3  A    between atoms: O_3  and  C_4
REMARK    4  A    between atoms: C_4  and  C_6
REMARK    5  A    between atoms: C_9  and  N_12
REMARK    6  A    between atoms: C_13  and  C_15
REMARK    7  A    between atoms: C_17  and  N_32
REMARK    8  A    between atoms: C_20  and  N_21
REMARK    9  A    between atoms: C_22  and  C_24
REMARK   10  A    between atoms: C_24  and  N_25
REMARK   11  A    between atoms: N_25  and  C_26
REMARK                            x       y       z     vdW  Elec       q    Type
REMARK                         _______ _______ _______ _____ _____    ______ ____
ROOT
ATOM      1  C   UNL     1       1.332   1.852  -0.160  0.00  0.00    +0.060 A 
ATOM      2  C   UNL     1       2.482   1.060  -0.208  0.00  0.00    +0.047 A 
ATOM      3  C   UNL     1       2.377  -0.311  -0.111  0.00  0.00    +0.127 A 
ATOM      4  C   UNL     1       1.135  -0.909   0.035  0.00  0.00    +0.034 A 
ATOM      5  C   UNL     1      -0.009  -0.140   0.085  0.00  0.00    +0.026 A 
ATOM      6  C   UNL     1       0.077   1.243  -0.012  0.00  0.00    +0.046 A 
ENDROOT
BRANCH   1   8
ATOM      7  N   UNL     1       2.632   3.894  -0.506  0.00  0.00    -0.281 N 
ATOM      8  C   UNL     1       1.437   3.319  -0.264  0.00  0.00    +0.250 C 
ATOM      9  O   UNL     1       0.446   4.010  -0.131  0.00  0.00    -0.270 OA
ATOM     10  H   UNL     1       3.514   3.266  -0.701  0.00  0.00    +0.155 HD
BRANCH   7  14
ATOM     11  C   UNL     1       2.983   8.043  -0.518  0.00  0.00    +0.059 A 
ATOM     12  C   UNL     1       4.031   7.253  -0.038  0.00  0.00    +0.017 A 
ATOM     13  C   UNL     1       3.912   5.882  -0.036  0.00  0.00    +0.024 A 
ATOM     14  C   UNL     1       2.749   5.282  -0.510  0.00  0.00    +0.034 A 
ATOM     15  C   UNL     1       1.706   6.065  -0.994  0.00  0.00    +0.024 A 
ATOM     16  C   UNL     1       1.816   7.437  -0.995  0.00  0.00    +0.017 A 
BRANCH  11  17
ATOM     17  C   UNL     1       3.107   9.512  -0.522  0.00  0.00    +0.339 C 
ATOM     18  O   UNL     1       4.121  10.038  -0.108  0.00  0.00    -0.245 OA
BRANCH  17  19
ATOM     19  O   UNL     1       2.095  10.273  -0.986  0.00  0.00    -0.461 OA
BRANCH  19  21
ATOM     20  C   UNL     1       1.042  12.402  -1.520  0.00  0.00    +0.048 C 
ATOM     21  C   UNL     1       2.287  11.712  -0.959  0.00  0.00    +0.229 C 
ENDBRANCH  19  21
ENDBRANCH  17  19
ENDBRANCH  11  17
ENDBRANCH   7  14
ENDBRANCH   1   8
BRANCH   6  22
ATOM     22  N   UNL     1      -1.078   2.021   0.032  0.00  0.00    -0.286 N 
ATOM     23  C   UNL     1      -2.218   1.566  -0.524  0.00  0.00    +0.200 C 
ATOM     24  O   UNL     1      -2.262   0.446  -0.988  0.00  0.00    -0.278 OA
ATOM     25  H   UNL     1      -1.059   3.006   0.519  0.00  0.00    +0.155 HD
BRANCH  23  26
ATOM     26  C   UNL     1      -3.439   2.448  -0.568  0.00  0.00    +0.015 C 
BRANCH  26  27
ATOM     27  N   UNL     1      -4.542   1.726  -1.218  0.00  0.00    +0.387 N 
ATOM     28  H   UNL     1      -4.248   1.455  -2.243  0.00  0.00    -0.085 HD
ATOM     29  H   UNL     1      -4.769   0.814  -0.648  0.00  0.00    -0.085 HD
BRANCH  27  30
ATOM     30  C   UNL     1      -5.751   2.558  -1.279  0.00  0.00    -0.071 C 
ATOM     31  C   UNL     1      -6.527   2.426   0.034  0.00  0.00    -0.016 C 
ATOM     32  C   UNL     1      -7.787   3.292  -0.030  0.00  0.00    -0.002 C 
ATOM     33  C   UNL     1      -8.667   2.827  -1.191  0.00  0.00    -0.000 C 
ATOM     34  C   UNL     1      -7.892   2.958  -2.503  0.00  0.00    -0.002 C 
ATOM     35  C   UNL     1      -6.632   2.092  -2.440  0.00  0.00    -0.016 C 
ENDBRANCH  27  30
ENDBRANCH  26  27
ENDBRANCH  23  26
ENDBRANCH   6  22
BRANCH   3  36
ATOM     36  N   UNL     1       3.596  -1.148  -0.163  0.00  0.00    +0.056 N 
ATOM     37  O   UNL     1       3.507  -2.360  -0.078  0.00  0.00    -0.126 OA
ATOM     38  O   UNL     1       4.689  -0.626  -0.291  0.00  0.00    -0.126 OA
ENDBRANCH   3  36
TORSDOF 10
