REMARK  Name = ZINC00795598
REMARK  3 active torsions:
REMARK  status: ('A' for Active; 'I' for Inactive)
REMARK    1  A    between atoms: C_5  and  C_7
REMARK    2  A    between atoms: C_7  and  S_8
REMARK    3  A    between atoms: S_8  and  C_9
REMARK                            x       y       z     vdW  Elec       q    Type
REMARK                         _______ _______ _______ _____ _____    ______ ____
ROOT
ATOM      1  C   UNL     1       4.857   5.035  -0.134  0.00  0.00    +0.213 A 
ATOM      2  N   UNL     1       3.857   5.604  -0.803  0.00  0.00    -0.183 NA
ATOM      3  C   UNL     1       2.651   5.059  -0.747  0.00  0.00    +0.252 A 
ATOM      4  C   UNL     1       2.474   3.875  -0.021  0.00  0.00    +0.157 A 
ATOM      5  N   UNL     1       3.507   3.368   0.643  0.00  0.00    -0.141 NA
ATOM      6  N   UNL     1       4.659   3.938   0.585  0.00  0.00    -0.122 NA
ATOM      7  C   UNL     1       1.167   3.178   0.009  0.00  0.00    +0.033 A 
ATOM      8  C   UNL     1       1.173   1.781   0.000  0.00  0.00    +0.012 A 
ATOM      9  C   UNL     1      -0.013   1.076   0.008  0.00  0.00    +0.001 A 
ATOM     10  C   UNL     1      -1.221   1.750   0.017  0.00  0.00    +0.002 A 
ATOM     11  C   UNL     1      -1.246   3.128   0.036  0.00  0.00    +0.028 A 
ATOM     12  C   UNL     1      -0.053   3.862   0.035  0.00  0.00    +0.076 A 
ATOM     13  N   UNL     1      -0.151   5.223   0.069  0.00  0.00    -0.219 NA
ATOM     14  C   UNL     1       0.580   6.041  -0.592  0.00  0.00    +0.310 C 
ATOM     15  O   UNL     1       1.604   5.647  -1.372  0.00  0.00    -0.424 OA
ENDROOT
BRANCH   1  16
ATOM     16  S   UNL     1       6.466   5.751  -0.203  0.00  0.00    -0.080 S 
BRANCH  16  17
ATOM     17  C   UNL     1       7.370   4.593   0.855  0.00  0.00    +0.114 C 
BRANCH  17  22
ATOM     18  C   UNL     1      11.057   4.928   0.115  0.00  0.00    +0.000 A 
ATOM     19  C   UNL     1      11.462   5.796   1.113  0.00  0.00    +0.001 A 
ATOM     20  C   UNL     1      10.543   6.274   2.027  0.00  0.00    +0.020 A 
ATOM     21  C   UNL     1       9.218   5.885   1.944  0.00  0.00    +0.045 A 
ATOM     22  C   UNL     1       8.813   5.018   0.946  0.00  0.00    -0.019 A 
ATOM     23  C   UNL     1       9.734   4.536   0.034  0.00  0.00    +0.006 A 
ATOM     24 CL   UNL     1       8.063   6.485   3.094  0.00  0.00    -0.083 Cl
ENDBRANCH  17  22
ENDBRANCH  16  17
ENDBRANCH   1  16
TORSDOF 3
