REMARK  Name = ZINC10149712
REMARK  8 active torsions:
REMARK  status: ('A' for Active; 'I' for Inactive)
REMARK    1  A    between atoms: C_1  and  C_2
REMARK    2  A    between atoms: C_2  and  C_3
REMARK    3  A    between atoms: C_4  and  C_24
REMARK    4  A    between atoms: C_6  and  N_11
REMARK    5  A    between atoms: C_7  and  C_8
REMARK    6  A    between atoms: N_11  and  C_12
REMARK    7  A    between atoms: C_12  and  N_14
REMARK    8  A    between atoms: C_15  and  C_17
REMARK                            x       y       z     vdW  Elec       q    Type
REMARK                         _______ _______ _______ _____ _____    ______ ____
ROOT
ATOM      1  N   UNL     1       2.323   0.998  -0.015  0.00  0.00    -0.291 N 
ATOM      2  H   UNL     1       2.336   0.028  -0.020  0.00  0.00    +0.154 HD
ENDROOT
BRANCH   1   6
ATOM      3  C   UNL     1       5.878   2.188  -0.043  0.00  0.00    -0.024 A 
ATOM      4  C   UNL     1       5.523   3.485  -0.034  0.00  0.00    -0.008 A 
ATOM      5  S   UNL     1       3.743   3.423  -0.023  0.00  0.00    -0.078 S 
ATOM      6  C   UNL     1       3.513   1.707  -0.022  0.00  0.00    +0.084 A 
ATOM      7  C   UNL     1       4.813   1.213  -0.037  0.00  0.00    +0.068 A 
ATOM      8  C   UNL     1       6.416   4.698  -0.036  0.00  0.00    +0.052 C 
BRANCH   7   9
ATOM      9  C   UNL     1       5.088  -0.227  -0.046  0.00  0.00    +0.244 C 
ATOM     10  O   UNL     1       5.192  -0.820  -1.104  0.00  0.00    -0.270 OA
ATOM     11  N   UNL     1       5.226  -0.894   1.117  0.00  0.00    -0.325 N 
ATOM     12  H   UNL     1       5.143  -0.422   1.960  0.00  0.00    +0.145 HD
ATOM     13  H   UNL     1       5.408  -1.847   1.110  0.00  0.00    +0.145 HD
ENDBRANCH   7   9
BRANCH   3  15
ATOM     14  C   UNL     1       7.802   1.634  -1.506  0.00  0.00    +0.009 C 
ATOM     15  C   UNL     1       7.325   1.769  -0.059  0.00  0.00    +0.033 C 
ENDBRANCH   3  15
ENDBRANCH   1   6
BRANCH   1  16
ATOM     16  C   UNL     1       1.147   1.655   0.000  0.00  0.00    +0.141 C 
ATOM     17  S   UNL     1       1.124   3.367   0.009  0.00  0.00    -0.018 S 
BRANCH  16  18
ATOM     18  N   UNL     1      -0.011   0.966   0.007  0.00  0.00    -0.264 N 
ATOM     19  C   UNL     1      -1.187   1.624   0.017  0.00  0.00    +0.251 C 
ATOM     20  O   UNL     1      -1.204   2.839   0.023  0.00  0.00    -0.270 OA
ATOM     21  H   UNL     1       0.002  -0.004   0.002  0.00  0.00    +0.157 HD
BRANCH  19  22
ATOM     22  C   UNL     1      -2.457   0.868   0.018  0.00  0.00    +0.050 A 
ATOM     23  C   UNL     1      -2.441  -0.528   0.005  0.00  0.00    +0.014 A 
ATOM     24  C   UNL     1      -3.630  -1.228   0.012  0.00  0.00    +0.001 A 
ATOM     25  C   UNL     1      -4.836  -0.550   0.021  0.00  0.00    +0.001 A 
ATOM     26  C   UNL     1      -4.859   0.833   0.029  0.00  0.00    +0.015 A 
ATOM     27  C   UNL     1      -3.677   1.546   0.028  0.00  0.00    +0.025 A 
ATOM     28  I   UNL     1      -3.714   3.641   0.040  0.00  0.00    -0.043 I 
ENDBRANCH  19  22
ENDBRANCH  16  18
ENDBRANCH   1  16
TORSDOF 6
