REMARK  Name = ZINC36605686
REMARK  15 active torsions:
REMARK  status: ('A' for Active; 'I' for Inactive)
REMARK    1  A    between atoms: C_1  and  C_2
REMARK    2  A    between atoms: C_4  and  C_15
REMARK    3  A    between atoms: C_12  and  C_13
REMARK    4  A    between atoms: C_12  and  C_14
REMARK    5  A    between atoms: N_17  and  C_18
REMARK    6  A    between atoms: N_17  and  C_24
REMARK    7  A    between atoms: C_24  and  C_26
REMARK    8  A    between atoms: C_24  and  C_35
REMARK    9  A    between atoms: C_27  and  O_34
REMARK   10  A    between atoms: C_29  and  O_33
REMARK   11  A    between atoms: C_31  and  O_32
REMARK   12  A    between atoms: N_37  and  C_38
REMARK   13  A    between atoms: C_38  and  C_39
REMARK   14  A    between atoms: C_38  and  C_40
REMARK   15  A    between atoms: C_38  and  C_41
REMARK                            x       y       z     vdW  Elec       q    Type
REMARK                         _______ _______ _______ _____ _____    ______ ____
ROOT
ATOM      1  C   UNL     1      -1.055  -2.630  -3.857  0.00  0.00    +0.204 C 
ENDROOT
BRANCH   1   2
ATOM      2  C   UNL     1      -1.340  -1.162  -3.675  0.00  0.00    +0.065 A 
ATOM      3  C   UNL     1      -0.293  -0.257  -3.596  0.00  0.00    +0.129 A 
ATOM      4  C   UNL     1      -0.555   1.095  -3.429  0.00  0.00    +0.091 A 
ATOM      5  C   UNL     1      -1.865   1.541  -3.341  0.00  0.00    +0.124 A 
ATOM      6  C   UNL     1      -2.913   0.636  -3.421  0.00  0.00    +0.091 A 
ATOM      7  C   UNL     1      -2.651  -0.715  -3.593  0.00  0.00    +0.129 A 
BRANCH   7   8
ATOM      8  O   UNL     1      -3.677  -1.601  -3.676  0.00  0.00    -0.506 OA
ATOM      9  H   UNL     1      -3.955  -1.962  -2.823  0.00  0.00    +0.292 HD
ENDBRANCH   7   8
BRANCH   5  10
ATOM     10  O   UNL     1      -2.122   2.866  -3.177  0.00  0.00    -0.507 OA
ATOM     11  H   UNL     1      -2.219   3.353  -4.006  0.00  0.00    +0.292 HD
ENDBRANCH   5  10
BRANCH   3  12
ATOM     12  O   UNL     1       0.991  -0.694  -3.682  0.00  0.00    -0.506 OA
ATOM     13  H   UNL     1       1.367  -0.638  -4.572  0.00  0.00    +0.292 HD
ENDBRANCH   3  12
ENDBRANCH   1   2
BRANCH   1  14
ATOM     14  C   UNL     1      -0.607  -2.883  -5.274  0.00  0.00    +0.239 C 
ATOM     15  O   UNL     1       0.534  -2.636  -5.601  0.00  0.00    -0.273 OA
ATOM     16  N   UNL     1      -1.474  -3.385  -6.176  0.00  0.00    -0.309 N 
ATOM     17  H   UNL     1      -2.386  -3.582  -5.913  0.00  0.00    +0.149 HD
BRANCH  16  18
ATOM     18  C   UNL     1      -1.037  -3.631  -7.552  0.00  0.00    +0.026 C 
ATOM     19  C   UNL     1       0.116  -4.636  -7.550  0.00  0.00    +0.031 C 
ATOM     20  C   UNL     1      -2.205  -4.196  -8.364  0.00  0.00    +0.031 C 
ATOM     21  C   UNL     1      -0.568  -2.317  -8.181  0.00  0.00    +0.031 C 
ENDBRANCH  16  18
ENDBRANCH   1  14
BRANCH   1  24
ATOM     22  C   UNL     1      -0.064  -2.682  -1.632  0.00  0.00    +0.224 C 
ATOM     23  O   UNL     1      -1.031  -2.078  -1.218  0.00  0.00    -0.275 OA
ATOM     24  N   UNL     1       0.001  -3.041  -2.929  0.00  0.00    -0.255 N 
BRANCH  22  27
ATOM     25  C   UNL     1       2.550  -1.403   0.537  0.00  0.00    +0.008 C 
ATOM     26  C   UNL     1       1.160  -2.022   0.441  0.00  0.00    +0.001 C 
ATOM     27  C   UNL     1       1.064  -3.032  -0.695  0.00  0.00    +0.079 C 
ATOM     28  C   UNL     1       0.935  -4.471  -0.208  0.00  0.00    +0.017 C 
ATOM     29  C   UNL     1       0.325  -4.552   1.193  0.00  0.00    -0.004 C 
ATOM     30  C   UNL     1      -0.638  -3.398   1.514  0.00  0.00    +0.008 C 
ATOM     31  C   UNL     1       0.657  -2.583   1.766  0.00  0.00    -0.001 C 
ATOM     32  C   UNL     1       1.249  -3.906   2.246  0.00  0.00    -0.029 C 
ATOM     33  C   UNL     1       2.739  -4.139   2.014  0.00  0.00    +0.011 C 
ATOM     34  C   UNL     1       0.853  -4.269   3.690  0.00  0.00    +0.011 C 
ENDBRANCH  22  27
BRANCH  24  35
ATOM     35  C   UNL     1       1.078  -3.806  -3.390  0.00  0.00    +0.037 A 
ATOM     36  C   UNL     1       2.351  -3.254  -3.444  0.00  0.00    +0.023 A 
ATOM     37  C   UNL     1       3.412  -4.012  -3.899  0.00  0.00    +0.002 A 
ATOM     38  C   UNL     1       3.208  -5.319  -4.301  0.00  0.00    +0.000 A 
ATOM     39  C   UNL     1       1.941  -5.872  -4.250  0.00  0.00    +0.002 A 
ATOM     40  C   UNL     1       0.877  -5.121  -3.789  0.00  0.00    +0.023 A 
ENDBRANCH  24  35
ENDBRANCH   1  24
TORSDOF 9
