REMARK  Name = ZINC08915507
REMARK  7 active torsions:
REMARK  status: ('A' for Active; 'I' for Inactive)
REMARK    1  A    between atoms: C_4  and  O_7
REMARK    2  A    between atoms: O_7  and  C_8
REMARK    3  A    between atoms: C_12  and  C_14
REMARK    4  A    between atoms: C_16  and  C_28
REMARK    5  A    between atoms: C_18  and  C_23
REMARK    6  A    between atoms: C_20  and  O_22
REMARK    7  A    between atoms: C_28  and  C_30
REMARK                            x       y       z     vdW  Elec       q    Type
REMARK                         _______ _______ _______ _____ _____    ______ ____
ROOT
ATOM      1  C   UNL     1       6.303  -4.682   0.145  0.00  0.00    +0.120 C 
ATOM      2  C   UNL     1       6.702  -5.189  -1.249  0.00  0.00    +0.150 C 
ATOM      3  C   UNL     1       8.051  -5.902  -1.137  0.00  0.00    +0.284 C 
ATOM      4  N   UNL     1       8.033  -6.863  -0.040  0.00  0.00    -0.306 N 
ATOM      5  C   UNL     1       7.195  -6.819   0.939  0.00  0.00    +0.256 C 
ATOM      6  N   UNL     1       6.223  -5.852   1.033  0.00  0.00    -0.293 N 
ATOM      7  O   UNL     1       9.077  -4.935  -0.899  0.00  0.00    -0.194 OA
ATOM      8  H   UNL     1       5.497  -5.940   1.671  0.00  0.00    +0.151 HD
ATOM      9  H   UNL     1       8.690  -7.577  -0.048  0.00  0.00    +0.167 HD
ENDROOT
BRANCH   1  14
ATOM     10  C   UNL     1       3.657  -1.988  -0.010  0.00  0.00    +0.129 A 
ATOM     11  C   UNL     1       2.495  -2.747  -0.046  0.00  0.00    +0.046 A 
ATOM     12  C   UNL     1       2.571  -4.125  -0.020  0.00  0.00    +0.004 A 
ATOM     13  C   UNL     1       3.803  -4.750   0.042  0.00  0.00    +0.006 A 
ATOM     14  C   UNL     1       4.962  -3.997   0.077  0.00  0.00    -0.023 A 
ATOM     15  C   UNL     1       4.892  -2.618   0.046  0.00  0.00    +0.051 A 
BRANCH  10  16
ATOM     16  O   UNL     1       3.586  -0.632  -0.036  0.00  0.00    -0.456 OA
BRANCH  16  20
ATOM     17  C   UNL     1       3.335   1.363   3.566  0.00  0.00    +0.000 A 
ATOM     18  C   UNL     1       3.417  -0.017   3.546  0.00  0.00    +0.004 A 
ATOM     19  C   UNL     1       3.501  -0.687   2.341  0.00  0.00    +0.046 A 
ATOM     20  C   UNL     1       3.503   0.025   1.150  0.00  0.00    +0.128 A 
ATOM     21  C   UNL     1       3.420   1.410   1.174  0.00  0.00    +0.046 A 
ATOM     22  C   UNL     1       3.336   2.076   2.381  0.00  0.00    +0.004 A 
ENDBRANCH  16  20
ENDBRANCH  10  16
ENDBRANCH   1  14
BRANCH   3  23
ATOM     23  C   UNL     1       8.345  -6.636  -2.447  0.00  0.00    +0.441 C 
ATOM     24  F   UNL     1       8.387  -5.714  -3.498  0.00  0.00    -0.166 F 
ATOM     25  F   UNL     1       9.577  -7.290  -2.349  0.00  0.00    -0.166 F 
ATOM     26  F   UNL     1       7.337  -7.575  -2.691  0.00  0.00    -0.166 F 
ENDBRANCH   3  23
BRANCH   5  27
ATOM     27  O   UNL     1       7.276  -7.756   1.909  0.00  0.00    -0.483 OA
ATOM     28  H   UNL     1       7.984  -8.400   1.775  0.00  0.00    +0.295 HD
ENDBRANCH   5  27
BRANCH   2  29
ATOM     29  C   UNL     1       6.820  -4.023  -2.198  0.00  0.00    +0.180 C 
ATOM     30  O   UNL     1       7.151  -2.932  -1.780  0.00  0.00    -0.291 OA
BRANCH  29  31
ATOM     31  C   UNL     1       6.548  -4.201  -3.572  0.00  0.00    +0.055 A 
ATOM     32  C   UNL     1       6.602  -3.270  -4.605  0.00  0.00    +0.019 A 
ATOM     33  C   UNL     1       6.279  -3.744  -5.851  0.00  0.00    +0.008 A 
ATOM     34  C   UNL     1       5.936  -5.051  -5.992  0.00  0.00    +0.046 A 
ATOM     35  S   UNL     1       6.051  -5.678  -4.438  0.00  0.00    -0.094 S 
ENDBRANCH  29  31
ENDBRANCH   2  29
TORSDOF 7
