REMARK  Name = ZINC57394048
REMARK  9 active torsions:
REMARK  status: ('A' for Active; 'I' for Inactive)
REMARK    1  A    between atoms: C_1  and  C_2
REMARK    2  A    between atoms: C_2  and  C_3
REMARK    3  A    between atoms: C_2  and  C_4
REMARK    4  A    between atoms: C_4  and  C_5
REMARK    5  A    between atoms: C_5  and  C_7
REMARK    6  A    between atoms: C_5  and  N_12
REMARK    7  A    between atoms: N_15  and  N_16
REMARK    8  A    between atoms: C_17  and  C_19
REMARK    9  A    between atoms: N_21  and  C_28
REMARK                            x       y       z     vdW  Elec       q    Type
REMARK                         _______ _______ _______ _____ _____    ______ ____
ROOT
ATOM      1  N   UNL     1      -0.726  -2.550   0.996  0.00  0.00    -0.291 N 
ATOM      2  C   UNL     1       0.608  -2.631   1.174  0.00  0.00    +0.316 C 
ATOM      3  O   UNL     1       1.361  -2.134   0.360  0.00  0.00    -0.251 OA
ATOM      4  N   UNL     1       1.105  -3.263   2.255  0.00  0.00    -0.218 N 
ATOM      5  H   UNL     1      -1.328  -2.888   1.677  0.00  0.00    +0.151 HD
ATOM      6  H   UNL     1       2.065  -3.322   2.384  0.00  0.00    +0.174 HD
ENDROOT
BRANCH   4   7
ATOM      7  N   UNL     1       0.237  -3.836   3.194  0.00  0.00    -0.229 N 
ATOM      8  C   UNL     1       0.735  -4.468   4.275  0.00  0.00    +0.262 C 
ATOM      9  O   UNL     1       1.938  -4.541   4.436  0.00  0.00    -0.269 OA
ATOM     10  H   UNL     1      -0.723  -3.777   3.065  0.00  0.00    +0.173 HD
BRANCH   8  11
ATOM     11  C   UNL     1      -0.176  -5.069   5.259  0.00  0.00    +0.063 A 
ATOM     12  C   UNL     1      -1.539  -5.073   5.213  0.00  0.00    +0.099 A 
ATOM     13  N   UNL     1      -2.032  -5.722   6.295  0.00  0.00    -0.349 N 
ATOM     14  C   UNL     1      -1.003  -6.170   7.098  0.00  0.00    +0.050 A 
ATOM     15  C   UNL     1       0.203  -5.790   6.487  0.00  0.00    +0.012 A 
ATOM     16  C   UNL     1       1.420  -6.119   7.080  0.00  0.00    +0.011 A 
ATOM     17  C   UNL     1       1.434  -6.821   8.265  0.00  0.00    +0.001 A 
ATOM     18  C   UNL     1       0.243  -7.200   8.868  0.00  0.00    +0.002 A 
ATOM     19  C   UNL     1      -0.968  -6.875   8.297  0.00  0.00    +0.026 A 
ATOM     20  C   UNL     1      -3.456  -5.919   6.575  0.00  0.00    +0.149 C 
ENDBRANCH   8  11
ENDBRANCH   4   7
BRANCH   1  21
ATOM     21  C   UNL     1      -1.266  -1.950  -0.227  0.00  0.00    +0.112 C 
BRANCH  21  22
ATOM     22  C   UNL     1      -2.610  -2.559  -0.534  0.00  0.00    +0.010 A 
ATOM     23  C   UNL     1      -3.127  -2.924  -1.732  0.00  0.00    +0.013 A 
ATOM     24  C   UNL     1      -4.396  -3.470  -1.776  0.00  0.00    +0.008 A 
ATOM     25  C   UNL     1      -5.085  -3.626  -0.619  0.00  0.00    +0.045 A 
ATOM     26  S   UNL     1      -3.929  -2.995   0.587  0.00  0.00    -0.100 S 
ENDBRANCH  21  22
BRANCH  21  27
ATOM     27  C   UNL     1      -1.424  -0.441  -0.028  0.00  0.00    +0.030 C 
BRANCH  27  29
ATOM     28  C   UNL     1      -2.181   1.683  -1.103  0.00  0.00    +0.007 C 
ATOM     29  C   UNL     1      -1.886   0.201  -1.338  0.00  0.00    -0.015 C 
ATOM     30  C   UNL     1      -0.785   0.060  -2.391  0.00  0.00    +0.007 C 
ENDBRANCH  27  29
ENDBRANCH  21  27
ENDBRANCH   1  21
TORSDOF 6
