REMARK  Name = ZINC23590424
REMARK  9 active torsions:
REMARK  status: ('A' for Active; 'I' for Inactive)
REMARK    1  A    between atoms: C_1  and  C_2
REMARK    2  A    between atoms: C_2  and  C_4
REMARK    3  A    between atoms: C_2  and  O_18
REMARK    4  A    between atoms: N_6  and  C_7
REMARK    5  A    between atoms: C_10  and  O_14
REMARK    6  A    between atoms: O_14  and  C_15
REMARK    7  A    between atoms: O_18  and  C_19
REMARK    8  A    between atoms: C_19  and  C_21
REMARK    9  A    between atoms: C_24  and  N_27
REMARK                            x       y       z     vdW  Elec       q    Type
REMARK                         _______ _______ _______ _____ _____    ______ ____
ROOT
ATOM      1  C   UNL     1      -7.092   5.742   1.261  0.00  0.00    +0.062 C 
ATOM      2  C   UNL     1      -6.462   5.465  -0.105  0.00  0.00    +0.259 C 
ENDROOT
BRANCH   2   3
ATOM      3  C   UNL     1      -6.471   6.728  -0.928  0.00  0.00    +0.258 C 
ATOM      4  O   UNL     1      -5.428   7.202  -1.323  0.00  0.00    -0.271 OA
ATOM      5  N   UNL     1      -7.640   7.329  -1.225  0.00  0.00    -0.282 N 
ATOM      6  H   UNL     1      -8.579   6.948  -0.798  0.00  0.00    +0.155 HD
BRANCH   5   7
ATOM      7  C   UNL     1      -7.659   8.441  -2.077  0.00  0.00    +0.035 A 
ATOM      8  C   UNL     1      -8.595   9.449  -1.883  0.00  0.00    +0.027 A 
ATOM      9  C   UNL     1      -8.610  10.547  -2.721  0.00  0.00    +0.049 A 
ATOM     10  C   UNL     1      -7.698  10.639  -3.762  0.00  0.00    +0.145 A 
ATOM     11  C   UNL     1      -6.766   9.630  -3.959  0.00  0.00    +0.084 A 
ATOM     12  C   UNL     1      -6.747   8.533  -3.119  0.00  0.00    +0.047 A 
ATOM     13 CL   UNL     1      -5.625   9.745  -5.263  0.00  0.00    -0.080 Cl
BRANCH  10  14
ATOM     14  O   UNL     1      -7.718  11.718  -4.589  0.00  0.00    -0.433 OA
BRANCH  14  15
ATOM     15  C   UNL     1      -8.704  12.719  -4.327  0.00  0.00    +0.541 C 
ATOM     16  F   UNL     1      -9.979  12.152  -4.419  0.00  0.00    -0.166 F 
ATOM     17  F   UNL     1      -8.514  13.235  -3.040  0.00  0.00    -0.166 F 
ENDBRANCH  14  15
ENDBRANCH  10  14
ENDBRANCH   5   7
ENDBRANCH   2   3
BRANCH   2  18
ATOM     18  O   UNL     1      -5.093   5.016   0.076  0.00  0.00    -0.449 OA
BRANCH  18  19
ATOM     19  C   UNL     1      -4.896   3.689   0.207  0.00  0.00    +0.340 C 
ATOM     20  O   UNL     1      -5.843   2.928   0.171  0.00  0.00    -0.245 OA
BRANCH  19  21
ATOM     21  C   UNL     1      -3.533   3.161   0.394  0.00  0.00    +0.059 A 
ATOM     22  C   UNL     1      -3.327   1.784   0.530  0.00  0.00    +0.017 A 
ATOM     23  C   UNL     1      -2.053   1.294   0.704  0.00  0.00    +0.024 A 
ATOM     24  C   UNL     1      -0.970   2.167   0.744  0.00  0.00    +0.035 A 
ATOM     25  C   UNL     1      -1.171   3.538   0.614  0.00  0.00    +0.024 A 
ATOM     26  C   UNL     1      -2.442   4.034   0.435  0.00  0.00    +0.017 A 
BRANCH  24  27
ATOM     27  N   UNL     1       0.320   1.667   0.919  0.00  0.00    -0.270 N 
ATOM     28  C   UNL     1       1.218   2.360   1.647  0.00  0.00    +0.301 C 
ATOM     29  O   UNL     1       0.929   3.457   2.085  0.00  0.00    -0.253 OA
ATOM     30  N   UNL     1       2.436   1.837   1.890  0.00  0.00    -0.313 N 
ATOM     31  H   UNL     1       0.604   0.707   0.464  0.00  0.00    +0.156 HD
ATOM     32  H   UNL     1       3.169   2.403   2.484  0.00  0.00    +0.146 HD
ATOM     33  H   UNL     1       2.698   0.845   1.494  0.00  0.00    +0.146 HD
ENDBRANCH  24  27
ENDBRANCH  19  21
ENDBRANCH  18  19
ENDBRANCH   2  18
TORSDOF 8
