REMARK  Name = ZINC21320712
REMARK  11 active torsions:
REMARK  status: ('A' for Active; 'I' for Inactive)
REMARK    1  A    between atoms: C_1  and  C_2
REMARK    2  A    between atoms: C_5  and  N_8
REMARK    3  A    between atoms: C_9  and  C_11
REMARK    4  A    between atoms: C_11  and  S_12
REMARK    5  A    between atoms: S_12  and  C_13
REMARK    6  A    between atoms: N_17  and  N_18
REMARK    7  A    between atoms: N_19  and  N_20
REMARK    8  A    between atoms: C_21  and  C_22
REMARK    9  A    between atoms: C_27  and  O_28
REMARK   10  A    between atoms: O_28  and  C_29
REMARK   11  A    between atoms: C_29  and  C_30
REMARK                            x       y       z     vdW  Elec       q    Type
REMARK                         _______ _______ _______ _____ _____    ______ ____
ROOT
ATOM      1  C   UNL     1       3.989  -6.564  -0.530  0.00  0.00    +0.210 A 
ATOM      2  N   UNL     1       2.869  -7.245  -0.518  0.00  0.00    -0.119 NA
ATOM      3  N   UNL     1       3.186  -8.604  -0.649  0.00  0.00    -0.109 NA
ATOM      4  C   UNL     1       4.490  -8.709  -0.729  0.00  0.00    +0.254 A 
ATOM      5  N   UNL     1       5.021  -7.451  -0.657  0.00  0.00    -0.211 N 
ATOM      6  N   UNL     1       5.206  -9.890  -0.863  0.00  0.00    -0.204 N 
ATOM      7  H   UNL     1       6.304  -9.863  -0.922  0.00  0.00    +0.177 HD
ENDROOT
BRANCH   5   8
ATOM      8  N   UNL     1       6.349  -7.136  -0.706  0.00  0.00    -0.294 N 
ATOM      9  H   UNL     1       7.100  -7.933  -0.810  0.00  0.00    +0.163 HD
ATOM     10  H   UNL     1       6.668  -6.085  -0.640  0.00  0.00    +0.163 HD
ENDBRANCH   5   8
BRANCH   6  11
ATOM     11  N   UNL     1       4.531 -11.116  -0.924  0.00  0.00    -0.187 NA
ATOM     12  C   UNL     1       5.201 -12.221  -1.050  0.00  0.00    +0.142 C 
BRANCH  12  13
ATOM     13  C   UNL     1       4.490 -13.510  -1.113  0.00  0.00    +0.036 A 
ATOM     14  C   UNL     1       5.207 -14.701  -1.249  0.00  0.00    +0.013 A 
ATOM     15  C   UNL     1       4.536 -15.905  -1.308  0.00  0.00    +0.001 A 
ATOM     16  C   UNL     1       3.154 -15.938  -1.234  0.00  0.00    +0.004 A 
ATOM     17  C   UNL     1       2.433 -14.766  -1.101  0.00  0.00    +0.046 A 
ATOM     18  C   UNL     1       3.092 -13.549  -1.033  0.00  0.00    +0.130 A 
BRANCH  18  19
ATOM     19  O   UNL     1       2.384 -12.398  -0.896  0.00  0.00    -0.487 OA
BRANCH  19  20
ATOM     20  C   UNL     1       0.962 -12.515  -0.821  0.00  0.00    +0.264 C 
BRANCH  20  21
ATOM     21  C   UNL     1       0.352 -11.145  -0.672  0.00  0.00    -0.010 A 
ATOM     22  C   UNL     1       0.138 -10.617   0.588  0.00  0.00    +0.007 A 
ATOM     23  C   UNL     1      -0.416  -9.358   0.725  0.00  0.00    +0.000 A 
ATOM     24  C   UNL     1      -0.767  -8.632  -0.398  0.00  0.00    +0.000 A 
ATOM     25  C   UNL     1      -0.558  -9.162  -1.657  0.00  0.00    +0.000 A 
ATOM     26  C   UNL     1       0.002 -10.418  -1.794  0.00  0.00    +0.007 A 
ENDBRANCH  20  21
ENDBRANCH  19  20
ENDBRANCH  18  19
ENDBRANCH  12  13
ENDBRANCH   6  11
BRANCH   1  27
ATOM     27  S   UNL     1       4.139  -4.814  -0.398  0.00  0.00    -0.075 S 
BRANCH  27  28
ATOM     28  C   UNL     1       2.425  -4.236  -0.258  0.00  0.00    +0.173 C 
BRANCH  28  30
ATOM     29  N   UNL     1       1.237  -2.079  -0.020  0.00  0.00    -0.285 N 
ATOM     30  C   UNL     1       2.410  -2.734  -0.137  0.00  0.00    +0.227 C 
ATOM     31  O   UNL     1       3.452  -2.114  -0.144  0.00  0.00    -0.275 OA
ATOM     32  H   UNL     1       0.298  -2.645   0.073  0.00  0.00    +0.155 HD
BRANCH  29  37
ATOM     33  C   UNL     1       1.143   3.593  -0.015  0.00  0.00    +0.044 C 
ATOM     34  C   UNL     1       1.168   2.086  -0.017  0.00  0.00    -0.050 A 
ATOM     35  C   UNL     1       2.111   1.412  -0.771  0.00  0.00    +0.005 A 
ATOM     36  C   UNL     1       2.137   0.031  -0.774  0.00  0.00    +0.023 A 
ATOM     37  C   UNL     1       1.214  -0.680  -0.019  0.00  0.00    +0.033 A 
ATOM     38  C   UNL     1       0.268  -0.001   0.737  0.00  0.00    +0.023 A 
ATOM     39  C   UNL     1       0.248   1.380   0.736  0.00  0.00    +0.005 A 
ENDBRANCH  29  37
ENDBRANCH  28  30
ENDBRANCH  27  28
ENDBRANCH   1  27
TORSDOF 10
