REMARK  Name = ZINC63281810
REMARK  4 active torsions:
REMARK  status: ('A' for Active; 'I' for Inactive)
REMARK    1  A    between atoms: C_6  and  C_11
REMARK    2  A    between atoms: C_18  and  C_20
REMARK    3  A    between atoms: C_20  and  O_21
REMARK    4  A    between atoms: O_21  and  C_22
REMARK                            x       y       z     vdW  Elec       q    Type
REMARK                         _______ _______ _______ _____ _____    ______ ____
ROOT
ATOM      1  C   UNL     1       3.639  -2.760  -1.304  0.00  0.00    +0.226 C 
ATOM      2  N   UNL     1       3.052  -2.142  -2.502  0.00  0.00    -0.242 N 
ATOM      3  N   UNL     1       2.306  -3.146  -3.131  0.00  0.00    -0.161 NA
ATOM      4  C   UNL     1       2.373  -4.252  -2.478  0.00  0.00    +0.201 C 
ATOM      5  N   UNL     1       3.159  -4.165  -1.334  0.00  0.00    -0.175 N 
ATOM      6  N   UNL     1       3.278  -5.327  -0.579  0.00  0.00    -0.170 NA
ATOM      7  C   UNL     1       2.690  -6.426  -0.925  0.00  0.00    +0.137 C 
ATOM      8  S   UNL     1       1.844  -5.953  -2.432  0.00  0.00    -0.031 S 
ATOM      9  H   UNL     1       3.159  -1.224  -2.797  0.00  0.00    +0.170 HD
ENDROOT
BRANCH   1  15
ATOM     10  C   UNL     1      -0.016   1.348   0.009  0.00  0.00    +0.001 A 
ATOM     11  C   UNL     1       1.166   2.101   0.002  0.00  0.00    +0.002 A 
ATOM     12  C   UNL     1       2.391   1.535  -0.013  0.00  0.00    +0.026 A 
ATOM     13  C   UNL     1       2.529   0.120  -0.022  0.00  0.00    +0.043 A 
ATOM     14  N   UNL     1       3.587  -0.654  -0.037  0.00  0.00    -0.374 N 
ATOM     15  C   UNL     1       3.143  -2.053  -0.041  0.00  0.00    +0.145 C 
ATOM     16  C   UNL     1       1.631  -2.008  -0.025  0.00  0.00    +0.011 C 
ATOM     17  C   UNL     1       1.295  -0.698  -0.014  0.00  0.00    -0.004 A 
ATOM     18  C   UNL     1       0.002  -0.004   0.002  0.00  0.00    +0.010 A 
ATOM     19  H   UNL     1       4.509  -0.353  -0.045  0.00  0.00    +0.160 HD
ENDBRANCH   1  15
BRANCH   7  20
ATOM     20  C   UNL     1       2.710  -7.764  -0.234  0.00  0.00    +0.293 C 
BRANCH  20  21
ATOM     21  O   UNL     1       3.516  -7.680   0.944  0.00  0.00    -0.485 OA
BRANCH  21  22
ATOM     22  C   UNL     1       3.639  -8.810   1.689  0.00  0.00    +0.121 A 
ATOM     23  C   UNL     1       3.002  -9.977   1.292  0.00  0.00    +0.047 A 
ATOM     24  C   UNL     1       3.129 -11.124   2.051  0.00  0.00    +0.019 A 
ATOM     25  C   UNL     1       3.890 -11.110   3.206  0.00  0.00    +0.018 A 
ATOM     26  C   UNL     1       4.525  -9.947   3.604  0.00  0.00    +0.019 A 
ATOM     27  C   UNL     1       4.406  -8.800   2.845  0.00  0.00    +0.047 A 
ATOM     28 BR   UNL     1       4.061 -12.682   4.243  0.00  0.00    -0.050 Br
ENDBRANCH  21  22
ENDBRANCH  20  21
ENDBRANCH   7  20
TORSDOF 4
