REMARK  Name = ZINC67193421
REMARK  11 active torsions:
REMARK  status: ('A' for Active; 'I' for Inactive)
REMARK    1  A    between atoms: C_1  and  C_2
REMARK    2  A    between atoms: C_5  and  C_12
REMARK    3  A    between atoms: C_8  and  C_10
REMARK    4  A    between atoms: C_8  and  C_11
REMARK    5  A    between atoms: C_12  and  C_13
REMARK    6  A    between atoms: N_15  and  N_16
REMARK    7  A    between atoms: N_16  and  C_17
REMARK    8  A    between atoms: C_17  and  N_19
REMARK    9  A    between atoms: N_19  and  C_20
REMARK   10  A    between atoms: C_24  and  N_26
REMARK   11  A    between atoms: C_27  and  C_29
REMARK                            x       y       z     vdW  Elec       q    Type
REMARK                         _______ _______ _______ _____ _____    ______ ____
ROOT
ATOM      1  N   UNL     1       0.282  -2.319  -6.064  0.00  0.00    -0.246 N 
ATOM      2  H   UNL     1      -0.626  -2.008  -5.925  0.00  0.00    +0.172 HD
ENDROOT
BRANCH   1   5
ATOM      3  C   UNL     1       0.736  -2.116  -3.735  0.00  0.00    +0.229 C 
ATOM      4  O   UNL     1      -0.400  -1.728  -3.562  0.00  0.00    -0.274 OA
ATOM      5  N   UNL     1       1.157  -2.436  -4.975  0.00  0.00    -0.235 N 
ATOM      6  H   UNL     1       2.065  -2.747  -5.114  0.00  0.00    +0.173 HD
BRANCH   3   7
ATOM      7  C   UNL     1       1.676  -2.242  -2.564  0.00  0.00    +0.101 C 
BRANCH   7  11
ATOM      8  C   UNL     1      -0.471   1.575  -0.159  0.00  0.00    +0.007 C 
ATOM      9  C   UNL     1      -0.119   0.088  -0.080  0.00  0.00    -0.013 C 
ATOM     10  C   UNL     1       0.603  -0.333  -1.362  0.00  0.00    +0.007 C 
ATOM     11  C   UNL     1       0.955  -1.820  -1.283  0.00  0.00    -0.001 C 
ATOM     12  C   UNL     1       1.867  -2.066  -0.080  0.00  0.00    +0.010 C 
ATOM     13  C   UNL     1       1.145  -1.644   1.202  0.00  0.00    -0.034 C 
ATOM     14  C   UNL     1       0.793  -0.157   1.123  0.00  0.00    +0.009 C 
ATOM     15  C   UNL     1       2.058  -1.889   2.405  0.00  0.00    +0.011 C 
ATOM     16  C   UNL     1      -0.137  -2.464   1.359  0.00  0.00    +0.011 C 
ENDBRANCH   7  11
ENDBRANCH   3   7
ENDBRANCH   1   5
BRANCH   1  17
ATOM     17  C   UNL     1       0.703  -2.638  -7.303  0.00  0.00    +0.151 C 
ATOM     18  S   UNL     1      -0.365  -2.496  -8.633  0.00  0.00    -0.017 S 
BRANCH  17  19
ATOM     19  N   UNL     1       1.965  -3.070  -7.496  0.00  0.00    -0.296 N 
ATOM     20  H   UNL     1       2.595  -3.074  -6.758  0.00  0.00    +0.154 HD
BRANCH  19  21
ATOM     21  C   UNL     1       2.368  -3.514  -8.761  0.00  0.00    +0.034 A 
ATOM     22  C   UNL     1       3.621  -3.169  -9.252  0.00  0.00    +0.023 A 
ATOM     23  C   UNL     1       4.019  -3.607 -10.501  0.00  0.00    +0.004 A 
ATOM     24  C   UNL     1       3.172  -4.389 -11.264  0.00  0.00    +0.023 A 
ATOM     25  C   UNL     1       1.918  -4.737 -10.778  0.00  0.00    +0.035 A 
ATOM     26  C   UNL     1       1.518  -4.303  -9.522  0.00  0.00    +0.046 A 
BRANCH  25  27
ATOM     27  N   UNL     1       1.062  -5.528 -11.552  0.00  0.00    -0.286 N 
ATOM     28  C   UNL     1       1.569  -6.492 -12.346  0.00  0.00    +0.214 C 
ATOM     29  O   UNL     1       2.770  -6.621 -12.451  0.00  0.00    -0.276 OA
ATOM     30  C   UNL     1       0.643  -7.409 -13.103  0.00  0.00    +0.109 C 
ATOM     31  H   UNL     1       0.104  -5.382 -11.517  0.00  0.00    +0.155 HD
ENDBRANCH  25  27
ENDBRANCH  19  21
ENDBRANCH  17  19
ENDBRANCH   1  17
TORSDOF 7
