REMARK  Name = ZINC13639004
REMARK  6 active torsions:
REMARK  status: ('A' for Active; 'I' for Inactive)
REMARK    1  A    between atoms: C_1  and  O_2
REMARK    2  A    between atoms: O_2  and  C_3
REMARK    3  A    between atoms: C_8  and  N_9
REMARK    4  A    between atoms: C_10  and  N_11
REMARK    5  A    between atoms: N_12  and  C_13
REMARK    6  A    between atoms: C_22  and  O_23
REMARK                            x       y       z     vdW  Elec       q    Type
REMARK                         _______ _______ _______ _____ _____    ______ ____
ROOT
ATOM      1  N   UNL     1      -0.572  -4.888   0.693  0.00  0.00    -0.123 NA
ATOM      2  N   UNL     1      -0.605  -6.173   0.578  0.00  0.00    -0.141 NA
ENDROOT
BRANCH   2   3
ATOM      3  C   UNL     1      -1.234  -6.911   1.501  0.00  0.00    +0.154 A 
ATOM      4  C   UNL     1      -1.361  -8.383   1.525  0.00  0.00    +0.032 A 
ATOM      5  C   UNL     1      -0.918  -9.399   0.684  0.00  0.00    +0.027 A 
ATOM      6  C   UNL     1      -1.208 -10.713   0.989  0.00  0.00    +0.019 A 
ATOM      7  C   UNL     1      -1.938 -11.020   2.129  0.00  0.00    +0.017 A 
ATOM      8  C   UNL     1      -2.381 -10.021   2.969  0.00  0.00    +0.027 A 
ATOM      9  C   UNL     1      -2.099  -8.691   2.677  0.00  0.00    +0.051 A 
ATOM     10  N   UNL     1      -2.406  -7.503   3.320  0.00  0.00    -0.324 N 
ATOM     11  H   UNL     1      -2.911  -7.436   4.145  0.00  0.00    +0.169 HD
ATOM     12  C   UNL     1      -1.897  -6.447   2.639  0.00  0.00    +0.219 A 
ATOM     13 BR   UNL     1      -0.611 -12.100  -0.149  0.00  0.00    -0.050 Br
BRANCH  12  14
ATOM     14  O   UNL     1      -2.015  -5.152   3.001  0.00  0.00    -0.492 OA
ATOM     15  H   UNL     1      -2.800  -4.713   2.645  0.00  0.00    +0.294 HD
ENDBRANCH  12  14
ENDBRANCH   2   3
BRANCH   1  17
ATOM     16  N   UNL     1       0.097  -2.777  -0.113  0.00  0.00    -0.330 N 
ATOM     17  C   UNL     1       0.061  -4.145  -0.235  0.00  0.00    +0.199 C 
ATOM     18  S   UNL     1       0.798  -4.882  -1.528  0.00  0.00    -0.009 SA
ATOM     19  H   UNL     1      -0.412  -2.340   0.588  0.00  0.00    +0.168 HD
BRANCH  16  25
ATOM     20  C   UNL     1       0.348  -0.843  -1.546  0.00  0.00    +0.143 A 
ATOM     21  C   UNL     1       1.117  -0.089  -2.417  0.00  0.00    +0.048 A 
ATOM     22  C   UNL     1       2.394  -0.503  -2.747  0.00  0.00    +0.004 A 
ATOM     23  C   UNL     1       2.908  -1.670  -2.210  0.00  0.00    +0.002 A 
ATOM     24  C   UNL     1       2.147  -2.427  -1.340  0.00  0.00    +0.029 A 
ATOM     25  C   UNL     1       0.867  -2.015  -0.999  0.00  0.00    +0.083 A 
BRANCH  20  27
ATOM     26  C   UNL     1      -1.374   0.774  -1.818  0.00  0.00    +0.277 C 
ATOM     27  O   UNL     1      -0.908  -0.437  -1.220  0.00  0.00    -0.493 OA
ENDBRANCH  20  27
ENDBRANCH  16  25
ENDBRANCH   1  17
TORSDOF 5
