REMARK  Name = ZINC01132480
REMARK  7 active torsions:
REMARK  status: ('A' for Active; 'I' for Inactive)
REMARK    1  A    between atoms: C_1  and  C_2
REMARK    2  A    between atoms: C_8  and  N_10
REMARK    3  A    between atoms: C_11  and  C_13
REMARK    4  A    between atoms: C_13  and  S_14
REMARK    5  A    between atoms: S_14  and  C_15
REMARK    6  A    between atoms: C_18  and  C_21
REMARK    7  A    between atoms: N_19  and  N_20
REMARK                            x       y       z     vdW  Elec       q    Type
REMARK                         _______ _______ _______ _____ _____    ______ ____
ROOT
ATOM      1  C   UNL     1       2.223  -4.893   3.935  0.00  0.00    +0.209 A 
ATOM      2  N   UNL     1       1.265  -5.498   3.268  0.00  0.00    -0.121 NA
ATOM      3  N   UNL     1       1.408  -6.772   3.347  0.00  0.00    -0.127 NA
ATOM      4  C   UNL     1       2.466  -7.060   4.069  0.00  0.00    +0.182 A 
ATOM      5  N   UNL     1       3.023  -5.865   4.463  0.00  0.00    -0.224 N 
ENDROOT
BRANCH   4   6
ATOM      6  C   UNL     1       2.968  -8.413   4.393  0.00  0.00    +0.021 A 
ATOM      7  C   UNL     1       3.909  -8.587   5.409  0.00  0.00    +0.013 A 
ATOM      8  C   UNL     1       4.369  -9.852   5.710  0.00  0.00    +0.021 A 
ATOM      9  C   UNL     1       3.907 -10.947   4.999  0.00  0.00    +0.041 A 
ATOM     10  C   UNL     1       2.977 -10.780   3.986  0.00  0.00    +0.021 A 
ATOM     11  C   UNL     1       2.506  -9.520   3.680  0.00  0.00    +0.013 A 
ATOM     12 CL   UNL     1       4.495 -12.535   5.380  0.00  0.00    -0.084 Cl
ENDBRANCH   4   6
BRANCH   5  13
ATOM     13  N   UNL     1       4.142  -5.689   5.227  0.00  0.00    -0.295 N 
ATOM     14  H   UNL     1       3.909  -5.655   6.208  0.00  0.00    +0.163 HD
ATOM     15  H   UNL     1       4.824  -6.409   5.042  0.00  0.00    +0.163 HD
ENDBRANCH   5  13
BRANCH   1  16
ATOM     16  S   UNL     1       2.438  -3.153   4.109  0.00  0.00    -0.075 S 
BRANCH  16  17
ATOM     17  C   UNL     1       1.023  -2.564   3.147  0.00  0.00    +0.173 C 
BRANCH  17  19
ATOM     18  N   UNL     1       0.031  -0.392   2.498  0.00  0.00    -0.312 N 
ATOM     19  C   UNL     1       1.002  -1.057   3.155  0.00  0.00    +0.224 C 
ATOM     20  O   UNL     1       1.860  -0.442   3.752  0.00  0.00    -0.275 OA
ATOM     21  H   UNL     1      -0.655  -0.884   2.020  0.00  0.00    +0.149 HD
BRANCH  18  28
ATOM     22  C   UNL     1      -0.013   1.086   0.008  0.00  0.00    +0.009 C 
ATOM     23  C   UNL     1      -0.729   1.579   1.267  0.00  0.00    +0.006 C 
ATOM     24  C   UNL     1      -2.164   1.050   1.278  0.00  0.00    +0.005 C 
ATOM     25  C   UNL     1      -2.880   1.543   2.537  0.00  0.00    +0.000 C 
ATOM     26  C   UNL     1      -2.140   1.036   3.776  0.00  0.00    +0.002 C 
ATOM     27  C   UNL     1      -0.705   1.566   3.765  0.00  0.00    +0.022 C 
ATOM     28  C   UNL     1       0.011   1.072   2.506  0.00  0.00    +0.076 C 
ENDBRANCH  18  28
ENDBRANCH  17  19
ENDBRANCH  16  17
ENDBRANCH   1  16
TORSDOF 6
