REMARK  Name = ZINC20505640
REMARK  6 active torsions:
REMARK  status: ('A' for Active; 'I' for Inactive)
REMARK    1  A    between atoms: C_1  and  C_2
REMARK    2  A    between atoms: C_2  and  C_4
REMARK    3  A    between atoms: C_2  and  N_12
REMARK    4  A    between atoms: C_6  and  O_11
REMARK    5  A    between atoms: C_9  and  O_10
REMARK    6  A    between atoms: N_12  and  C_13
REMARK                            x       y       z     vdW  Elec       q    Type
REMARK                         _______ _______ _______ _____ _____    ______ ____
ROOT
ATOM      1  C   UNL     1      -4.108   2.357  -1.012  0.00  0.00    +0.033 C 
ATOM      2  C   UNL     1      -3.211   3.583  -1.192  0.00  0.00    +0.101 C 
ENDROOT
BRANCH   2   3
ATOM      3  C   UNL     1      -4.023   4.720  -1.757  0.00  0.00    +0.017 A 
ATOM      4  C   UNL     1      -4.491   5.716  -0.923  0.00  0.00    +0.054 A 
ATOM      5  C   UNL     1      -5.238   6.763  -1.443  0.00  0.00    +0.117 A 
ATOM      6  C   UNL     1      -5.514   6.809  -2.801  0.00  0.00    +0.049 A 
ATOM      7  C   UNL     1      -5.046   5.813  -3.636  0.00  0.00    +0.049 A 
ATOM      8  C   UNL     1      -4.295   4.769  -3.116  0.00  0.00    +0.122 A 
BRANCH   8   9
ATOM      9  O   UNL     1      -3.830   3.791  -3.939  0.00  0.00    -0.506 OA
ATOM     10  H   UNL     1      -4.046   3.830  -5.016  0.00  0.00    +0.292 HD
ENDBRANCH   8   9
BRANCH   5  11
ATOM     11  O   UNL     1      -5.698   7.744  -0.621  0.00  0.00    -0.507 OA
ATOM     12  H   UNL     1      -6.290   8.574  -1.034  0.00  0.00    +0.292 HD
ENDBRANCH   5  11
ENDBRANCH   2   3
BRANCH   2  13
ATOM     13  N   UNL     1      -2.654   3.978   0.109  0.00  0.00    -0.335 N 
ATOM     14  H   UNL     1      -3.128   4.785   0.688  0.00  0.00    +0.147 HD
BRANCH  13  15
ATOM     15  C   UNL     1      -1.529   3.210   0.427  0.00  0.00    +0.065 A 
ATOM     16  C   UNL     1      -0.295   3.520  -0.131  0.00  0.00    +0.064 A 
ATOM     17  C   UNL     1       0.814   2.756   0.181  0.00  0.00    +0.037 A 
ATOM     18  C   UNL     1       0.698   1.691   1.056  0.00  0.00    +0.021 A 
ATOM     19  C   UNL     1      -0.529   1.383   1.618  0.00  0.00    +0.037 A 
ATOM     20  C   UNL     1      -1.643   2.140   1.306  0.00  0.00    +0.064 A 
ATOM     21 CL   UNL     1      -3.181   1.754   2.010  0.00  0.00    -0.082 Cl
ATOM     22 BR   UNL     1       2.219   0.652   1.486  0.00  0.00    -0.050 Br
ATOM     23 CL   UNL     1      -0.147   4.860  -1.224  0.00  0.00    -0.082 Cl
ENDBRANCH  13  15
ENDBRANCH   2  13
TORSDOF 5
