REMARK  Name = ZINC43222775
REMARK  11 active torsions:
REMARK  status: ('A' for Active; 'I' for Inactive)
REMARK    1  A    between atoms: C_1  and  C_2
REMARK    2  A    between atoms: C_2  and  C_4
REMARK    3  A    between atoms: C_2  and  N_8
REMARK    4  A    between atoms: C_4  and  C_5
REMARK    5  A    between atoms: C_5  and  C_6
REMARK    6  A    between atoms: C_5  and  C_7
REMARK    7  A    between atoms: C_9  and  C_11
REMARK    8  A    between atoms: C_16  and  C_18
REMARK    9  A    between atoms: N_20  and  C_21
REMARK   10  A    between atoms: C_21  and  C_22
REMARK   11  A    between atoms: C_22  and  C_23
REMARK                            x       y       z     vdW  Elec       q    Type
REMARK                         _______ _______ _______ _____ _____    ______ ____
ROOT
ATOM      1  C   UNL     1      -3.401  -1.183  -1.377  0.00  0.00    +0.068 C 
ATOM      2  C   UNL     1      -4.371  -0.214  -0.667  0.00  0.00    -0.069 C 
ATOM      3  N   UNL     1      -4.891   0.657  -1.753  0.00  0.00    +0.380 N 
ATOM      4  C   UNL     1      -5.088  -0.268  -2.899  0.00  0.00    -0.069 C 
ATOM      5  C   UNL     1      -3.872  -1.221  -2.845  0.00  0.00    +0.068 C 
ATOM      6  H   UNL     1      -5.769   1.073  -1.481  0.00  0.00    -0.086 HD
ATOM      7  H   UNL     1      -4.217   1.370  -1.987  0.00  0.00    -0.086 HD
ENDROOT
BRANCH   1   9
ATOM      8  N   UNL     1      -1.392  -0.524  -0.093  0.00  0.00    -0.313 N 
ATOM      9  C   UNL     1      -1.988  -0.665  -1.293  0.00  0.00    +0.215 C 
ATOM     10  O   UNL     1      -1.388  -0.375  -2.306  0.00  0.00    -0.276 OA
ATOM     11  H   UNL     1      -1.872  -0.756   0.717  0.00  0.00    +0.149 HD
BRANCH   8  13
ATOM     12  C   UNL     1      -0.036   1.510  -0.018  0.00  0.00    +0.028 C 
ATOM     13  C   UNL     1      -0.019  -0.020  -0.011  0.00  0.00    +0.070 C 
BRANCH  13  14
ATOM     14  C   UNL     1       0.631  -0.517   1.282  0.00  0.00    +0.025 C 
BRANCH  14  15
ATOM     15  C   UNL     1       0.763  -2.041   1.233  0.00  0.00    -0.015 C 
ATOM     16  C   UNL     1       1.749  -2.433   0.131  0.00  0.00    +0.007 C 
ATOM     17  C   UNL     1       1.276  -2.551   2.581  0.00  0.00    +0.007 C 
ENDBRANCH  14  15
ENDBRANCH  13  14
ENDBRANCH   8  13
ENDBRANCH   1   9
BRANCH   5  18
ATOM     18  C   UNL     1      -4.284  -2.620  -3.227  0.00  0.00    +0.215 C 
ATOM     19  O   UNL     1      -4.214  -3.516  -2.413  0.00  0.00    -0.276 OA
ATOM     20  N   UNL     1      -4.729  -2.874  -4.473  0.00  0.00    -0.315 N 
ATOM     21  H   UNL     1      -4.785  -2.158  -5.125  0.00  0.00    +0.149 HD
BRANCH  20  22
ATOM     22  C   UNL     1      -5.130  -4.234  -4.845  0.00  0.00    +0.109 C 
BRANCH  22  23
ATOM     23  C   UNL     1      -5.592  -4.249  -6.303  0.00  0.00    +0.055 C 
BRANCH  23  24
ATOM     24  C   UNL     1      -6.004  -5.648  -6.684  0.00  0.00    -0.028 A 
ATOM     25  C   UNL     1      -5.099  -6.490  -7.302  0.00  0.00    +0.005 A 
ATOM     26  C   UNL     1      -5.477  -7.773  -7.652  0.00  0.00    +0.000 A 
ATOM     27  C   UNL     1      -6.760  -8.214  -7.385  0.00  0.00    +0.001 A 
ATOM     28  C   UNL     1      -7.665  -7.372  -6.768  0.00  0.00    +0.020 A 
ATOM     29  C   UNL     1      -7.286  -6.090  -6.412  0.00  0.00    +0.044 A 
ATOM     30 CL   UNL     1      -8.421  -5.034  -5.630  0.00  0.00    -0.083 Cl
ENDBRANCH  23  24
ENDBRANCH  22  23
ENDBRANCH  20  22
ENDBRANCH   5  18
TORSDOF 8
