REMARK  Name = ZINC04833300
REMARK  7 active torsions:
REMARK  status: ('A' for Active; 'I' for Inactive)
REMARK    1  A    between atoms: C_1  and  S_2
REMARK    2  A    between atoms: S_2  and  C_3
REMARK    3  A    between atoms: C_6  and  C_9
REMARK    4  A    between atoms: C_11  and  C_29
REMARK    5  A    between atoms: C_13  and  C_22
REMARK    6  A    between atoms: C_13  and  O_28
REMARK    7  A    between atoms: C_17  and  C_19
REMARK                            x       y       z     vdW  Elec       q    Type
REMARK                         _______ _______ _______ _____ _____    ______ ____
ROOT
ATOM      1  C   UNL     1       7.145  -1.179  -1.299  0.00  0.00    +0.061 C 
ATOM      2  C   UNL     1       7.343  -2.694  -1.426  0.00  0.00    +0.155 C 
ATOM      3  C   UNL     1       6.410  -3.394  -0.437  0.00  0.00    +0.175 C 
ATOM      4  N   UNL     1       5.048  -2.898  -0.582  0.00  0.00    -0.282 N 
ATOM      5  C   UNL     1       4.731  -1.744  -1.170  0.00  0.00    +0.228 C 
ATOM      6  O   UNL     1       3.564  -1.414  -1.196  0.00  0.00    -0.275 OA
ATOM      7  C   UNL     1       5.742  -0.831  -1.803  0.00  0.00    +0.169 C 
ATOM      8  H   UNL     1       4.326  -3.441  -0.228  0.00  0.00    +0.152 HD
ENDROOT
BRANCH   1  12
ATOM      9  C   UNL     1      10.069   0.857  -3.660  0.00  0.00    +0.008 A 
ATOM     10  C   UNL     1       9.400  -0.246  -4.178  0.00  0.00    +0.015 A 
ATOM     11  C   UNL     1       8.456  -0.901  -3.413  0.00  0.00    +0.005 A 
ATOM     12  C   UNL     1       8.176  -0.461  -2.132  0.00  0.00    -0.042 A 
ATOM     13  C   UNL     1       8.835   0.639  -1.615  0.00  0.00    +0.005 A 
ATOM     14  C   UNL     1       9.784   1.296  -2.372  0.00  0.00    +0.015 A 
BRANCH   9  16
ATOM     15  C   UNL     1      11.856   3.034  -3.554  0.00  0.00    +0.090 C 
ATOM     16  S   UNL     1      11.274   1.697  -4.633  0.00  0.00    -0.129 S 
ENDBRANCH   9  16
ENDBRANCH   1  12
BRANCH   3  17
ATOM     17  C   UNL     1       6.430  -4.878  -0.698  0.00  0.00    +0.003 A 
ATOM     18  C   UNL     1       7.348  -5.682  -0.049  0.00  0.00    +0.008 A 
ATOM     19  C   UNL     1       7.366  -7.043  -0.289  0.00  0.00    +0.000 A 
ATOM     20  C   UNL     1       6.467  -7.601  -1.179  0.00  0.00    +0.000 A 
ATOM     21  C   UNL     1       5.549  -6.797  -1.828  0.00  0.00    +0.000 A 
ATOM     22  C   UNL     1       5.531  -5.435  -1.588  0.00  0.00    +0.008 A 
ENDBRANCH   3  17
BRANCH   7  23
ATOM     23  C   UNL     1       5.693  -0.992  -3.300  0.00  0.00    +0.223 C 
ATOM     24  O   UNL     1       5.473  -2.080  -3.787  0.00  0.00    -0.275 OA
ATOM     25  N   UNL     1       5.894   0.075  -4.099  0.00  0.00    -0.329 N 
ATOM     26  H   UNL     1       6.070   0.946  -3.711  0.00  0.00    +0.145 HD
ATOM     27  H   UNL     1       5.863  -0.028  -5.063  0.00  0.00    +0.145 HD
ENDBRANCH   7  23
BRANCH   3  28
ATOM     28  O   UNL     1       6.861  -3.143   0.896  0.00  0.00    -0.366 OA
ATOM     29  H   UNL     1       6.320  -3.562   1.579  0.00  0.00    +0.212 HD
ENDBRANCH   3  28
BRANCH   2  30
ATOM     30  C   UNL     1       8.740  -3.037  -1.114  0.00  0.00    +0.071 C 
ATOM     31  N   UNL     1       9.819  -3.302  -0.874  0.00  0.00    -0.196 NA
ENDBRANCH   2  30
TORSDOF 6
