REMARK  Name = ZINC66588483
REMARK  6 active torsions:
REMARK  status: ('A' for Active; 'I' for Inactive)
REMARK    1  A    between atoms: C_3  and  C_21
REMARK    2  A    between atoms: C_5  and  S_7
REMARK    3  A    between atoms: S_7  and  N_10
REMARK    4  A    between atoms: N_10  and  C_11
REMARK    5  A    between atoms: C_15  and  S_17
REMARK    6  A    between atoms: S_17  and  C_18
REMARK                            x       y       z     vdW  Elec       q    Type
REMARK                         _______ _______ _______ _____ _____    ______ ____
ROOT
ATOM      1  S   UNL     1       1.218  -2.448  -0.023  0.00  0.00    +0.092 S 
ATOM      2  O   UNL     1      -0.029  -2.860  -0.564  0.00  0.00    -0.148 OA
ATOM      3  O   UNL     1       2.461  -2.842  -0.587  0.00  0.00    -0.148 OA
ENDROOT
BRANCH   1   8
ATOM      4  C   UNL     1      -0.017   1.379   0.010  0.00  0.00    +0.003 A 
ATOM      5  C   UNL     1       1.167   2.088   0.002  0.00  0.00    +0.019 A 
ATOM      6  C   UNL     1       2.385   1.407  -0.013  0.00  0.00    +0.054 A 
ATOM      7  C   UNL     1       2.397   0.010  -0.021  0.00  0.00    +0.047 A 
ATOM      8  C   UNL     1       1.206  -0.686  -0.013  0.00  0.00    +0.112 A 
ATOM      9  C   UNL     1       0.002  -0.004   0.002  0.00  0.00    +0.029 A 
BRANCH   6  10
ATOM     10  C   UNL     1       3.617   2.136  -0.021  0.00  0.00    +0.099 C 
ATOM     11  N   UNL     1       4.595   2.715  -0.028  0.00  0.00    -0.191 NA
ENDBRANCH   6  10
ENDBRANCH   1   8
BRANCH   1  12
ATOM     12  N   UNL     1       1.237  -2.946   1.557  0.00  0.00    -0.098 NA
BRANCH  12  13
ATOM     13  C   UNL     1       1.249  -4.310   1.859  0.00  0.00    +0.075 A 
ATOM     14  C   UNL     1       1.252  -5.249   0.834  0.00  0.00    +0.027 A 
ATOM     15  C   UNL     1       1.263  -6.598   1.132  0.00  0.00    +0.003 A 
ATOM     16  C   UNL     1       1.273  -7.019   2.448  0.00  0.00    +0.015 A 
ATOM     17  C   UNL     1       1.271  -6.084   3.478  0.00  0.00    +0.015 A 
ATOM     18  C   UNL     1       1.265  -4.728   3.182  0.00  0.00    +0.041 A 
BRANCH  17  19
ATOM     19  S   UNL     1       1.283  -6.621   5.156  0.00  0.00    -0.056 S 
BRANCH  19  20
ATOM     20  C   UNL     1       1.297  -8.431   5.037  0.00  0.00    +0.404 C 
ATOM     21  F   UNL     1       0.154  -8.862   4.355  0.00  0.00    -0.197 F 
ATOM     22  F   UNL     1       2.439  -8.845   4.343  0.00  0.00    -0.197 F 
ENDBRANCH  19  20
ENDBRANCH  17  19
ENDBRANCH  12  13
ENDBRANCH   1  12
TORSDOF 6
