REMARK  Name = ZINC40733704
REMARK  6 active torsions:
REMARK  status: ('A' for Active; 'I' for Inactive)
REMARK    1  A    between atoms: C_1  and  C_2
REMARK    2  A    between atoms: C_2  and  C_3
REMARK    3  A    between atoms: C_11  and  N_27
REMARK    4  A    between atoms: C_12  and  N_16
REMARK    5  A    between atoms: N_16  and  N_17
REMARK    6  A    between atoms: C_18  and  C_20
REMARK                            x       y       z     vdW  Elec       q    Type
REMARK                         _______ _______ _______ _____ _____    ______ ____
ROOT
ATOM      1  C   UNL     1       1.226   0.443  -2.794  0.00  0.00    +0.075 C 
ATOM      2  C   UNL     1       2.111  -0.201  -1.721  0.00  0.00    +0.022 C 
ATOM      3  C   UNL     1       2.031  -1.724  -1.847  0.00  0.00    +0.003 C 
ATOM      4  C   UNL     1       0.588  -2.181  -1.622  0.00  0.00    +0.019 C 
ATOM      5  C   UNL     1      -0.313  -1.560  -2.693  0.00  0.00    +0.107 C 
ATOM      6  N   UNL     1      -0.133  -0.101  -2.679  0.00  0.00    -0.311 N 
ATOM      7  C   UNL     1      -1.228   0.746  -2.555  0.00  0.00    +0.148 A 
ATOM      8  C   UNL     1      -1.953   1.137  -3.683  0.00  0.00    +0.107 A 
ATOM      9  C   UNL     1      -3.043   1.989  -3.503  0.00  0.00    +0.161 A 
ATOM     10  N   UNL     1      -3.348   2.394  -2.272  0.00  0.00    -0.217 NA
ATOM     11  C   UNL     1      -2.638   2.002  -1.234  0.00  0.00    +0.225 A 
ATOM     12  N   UNL     1      -1.604   1.194  -1.360  0.00  0.00    -0.219 NA
ENDROOT
BRANCH   8  13
ATOM     13  N   UNL     1      -1.594   0.685  -4.964  0.00  0.00    -0.353 N 
ATOM     14  H   UNL     1      -0.788   0.159  -5.084  0.00  0.00    +0.143 HD
ATOM     15  H   UNL     1      -2.153   0.898  -5.727  0.00  0.00    +0.143 HD
ENDBRANCH   8  13
BRANCH   1  17
ATOM     16  C   UNL     1       2.583   2.541  -2.842  0.00  0.00    +0.006 C 
ATOM     17  C   UNL     1       1.191   1.959  -2.587  0.00  0.00    +0.019 C 
ENDBRANCH   1  17
BRANCH   9  18
ATOM     18  N   UNL     1      -3.798   2.409  -4.591  0.00  0.00    -0.247 N 
ATOM     19  H   UNL     1      -3.569   2.109  -5.485  0.00  0.00    +0.172 HD
BRANCH  18  20
ATOM     20  N   UNL     1      -4.891   3.264  -4.398  0.00  0.00    -0.231 N 
ATOM     21  C   UNL     1      -5.623   3.671  -5.454  0.00  0.00    +0.260 C 
ATOM     22  O   UNL     1      -5.336   3.296  -6.574  0.00  0.00    -0.269 OA
ATOM     23  H   UNL     1      -5.120   3.564  -3.504  0.00  0.00    +0.173 HD
BRANCH  21  24
ATOM     24  C   UNL     1      -6.776   4.574  -5.250  0.00  0.00    +0.038 A 
ATOM     25  C   UNL     1      -7.104   5.011  -3.966  0.00  0.00    +0.014 A 
ATOM     26  C   UNL     1      -8.181   5.853  -3.781  0.00  0.00    +0.021 A 
ATOM     27  C   UNL     1      -8.935   6.265  -4.868  0.00  0.00    +0.041 A 
ATOM     28  C   UNL     1      -8.614   5.834  -6.144  0.00  0.00    +0.021 A 
ATOM     29  C   UNL     1      -7.536   4.997  -6.342  0.00  0.00    +0.014 A 
ATOM     30 CL   UNL     1     -10.289   7.325  -4.628  0.00  0.00    -0.084 Cl
ENDBRANCH  21  24
ENDBRANCH  18  20
ENDBRANCH   9  18
TORSDOF 5
