REMARK  Name = ZINC66086724
REMARK  14 active torsions:
REMARK  status: ('A' for Active; 'I' for Inactive)
REMARK    1  A    between atoms: C_1  and  C_2
REMARK    2  A    between atoms: C_2  and  C_3
REMARK    3  A    between atoms: C_3  and  C_5
REMARK    4  A    between atoms: C_3  and  N_6
REMARK    5  A    between atoms: C_7  and  C_9
REMARK    6  A    between atoms: C_12  and  N_15
REMARK    7  A    between atoms: N_15  and  C_16
REMARK    8  A    between atoms: C_16  and  C_17
REMARK    9  A    between atoms: N_19  and  C_20
REMARK   10  A    between atoms: C_23  and  C_26
REMARK   11  A    between atoms: N_28  and  C_29
REMARK   12  A    between atoms: C_29  and  C_30
REMARK   13  A    between atoms: C_29  and  C_31
REMARK   14  A    between atoms: C_29  and  C_32
REMARK                            x       y       z     vdW  Elec       q    Type
REMARK                         _______ _______ _______ _____ _____    ______ ____
ROOT
ATOM      1  C   UNL     1      10.405   2.198  -3.091  0.00  0.00    +0.234 C 
ATOM      2  O   UNL     1      10.741   2.357  -1.936  0.00  0.00    -0.274 OA
ATOM      3  N   UNL     1      11.291   2.405  -4.085  0.00  0.00    -0.284 N 
ATOM      4  H   UNL     1      11.043   2.213  -5.003  0.00  0.00    +0.155 HD
ENDROOT
BRANCH   3   5
ATOM      5  C   UNL     1      12.564   2.893  -3.794  0.00  0.00    +0.033 A 
ATOM      6  C   UNL     1      13.204   2.508  -2.620  0.00  0.00    +0.024 A 
ATOM      7  C   UNL     1      14.461   2.989  -2.330  0.00  0.00    +0.015 A 
ATOM      8  C   UNL     1      15.094   3.865  -3.216  0.00  0.00    +0.037 A 
ATOM      9  C   UNL     1      14.449   4.249  -4.394  0.00  0.00    +0.015 A 
ATOM     10  C   UNL     1      13.194   3.761  -4.681  0.00  0.00    +0.024 A 
BRANCH   8  11
ATOM     11  C   UNL     1      16.442   4.382  -2.907  0.00  0.00    +0.244 C 
ATOM     12  O   UNL     1      17.002   4.047  -1.881  0.00  0.00    -0.270 OA
ATOM     13  N   UNL     1      17.051   5.227  -3.763  0.00  0.00    -0.307 N 
ATOM     14  H   UNL     1      16.604   5.494  -4.581  0.00  0.00    +0.150 HD
BRANCH  13  15
ATOM     15  C   UNL     1      18.388   5.741  -3.457  0.00  0.00    +0.026 C 
ATOM     16  C   UNL     1      19.367   4.572  -3.331  0.00  0.00    +0.031 C 
ATOM     17  C   UNL     1      18.847   6.671  -4.581  0.00  0.00    +0.031 C 
ATOM     18  C   UNL     1      18.348   6.516  -2.138  0.00  0.00    +0.031 C 
ENDBRANCH  13  15
ENDBRANCH   8  11
ENDBRANCH   3   5
BRANCH   1  19
ATOM     19  C   UNL     1       8.997   1.769  -3.413  0.00  0.00    +0.198 C 
BRANCH  19  20
ATOM     20  N   UNL     1       8.237   1.613  -2.171  0.00  0.00    -0.335 N 
ATOM     21  H   UNL     1       8.664   1.783  -1.316  0.00  0.00    +0.147 HD
BRANCH  20  25
ATOM     22  C   UNL     1       4.247   0.439  -2.305  0.00  0.00    +0.037 A 
ATOM     23  C   UNL     1       4.863   0.685  -1.075  0.00  0.00    +0.015 A 
ATOM     24  C   UNL     1       6.183   1.072  -1.034  0.00  0.00    +0.023 A 
ATOM     25  C   UNL     1       6.904   1.221  -2.216  0.00  0.00    +0.028 A 
ATOM     26  C   UNL     1       6.292   0.977  -3.442  0.00  0.00    +0.023 A 
ATOM     27  C   UNL     1       4.974   0.584  -3.490  0.00  0.00    +0.015 A 
BRANCH  22  29
ATOM     28  N   UNL     1       2.131  -0.115  -1.210  0.00  0.00    -0.309 N 
ATOM     29  C   UNL     1       2.832   0.023  -2.353  0.00  0.00    +0.244 C 
ATOM     30  O   UNL     1       2.298  -0.195  -3.423  0.00  0.00    -0.270 OA
ATOM     31  H   UNL     1       2.557   0.059  -0.356  0.00  0.00    +0.149 HD
BRANCH  28  32
ATOM     32  C   UNL     1       0.727  -0.529  -1.257  0.00  0.00    +0.070 C 
ATOM     33  C   UNL     1       0.646  -2.055  -1.319  0.00  0.00    +0.028 C 
BRANCH  32  35
ATOM     34  C   UNL     1      -0.022   1.499  -0.004  0.00  0.00    +0.005 C 
ATOM     35  C   UNL     1       0.006  -0.030  -0.003  0.00  0.00    +0.018 C 
ENDBRANCH  32  35
ENDBRANCH  28  32
ENDBRANCH  22  29
ENDBRANCH  20  25
ENDBRANCH  19  20
ENDBRANCH   1  19
TORSDOF 9
