REMARK  Name = ZINC40824466
REMARK  8 active torsions:
REMARK  status: ('A' for Active; 'I' for Inactive)
REMARK    1  A    between atoms: C_1  and  C_2
REMARK    2  A    between atoms: C_4  and  C_26
REMARK    3  A    between atoms: C_6  and  N_8
REMARK    4  A    between atoms: C_9  and  C_11
REMARK    5  A    between atoms: C_12  and  C_25
REMARK    6  A    between atoms: N_20  and  N_21
REMARK    7  A    between atoms: N_21  and  C_22
REMARK    8  A    between atoms: C_22  and  N_24
REMARK                            x       y       z     vdW  Elec       q    Type
REMARK                         _______ _______ _______ _____ _____    ______ ____
ROOT
ATOM      1  C   UNL     1       0.275  -2.880   4.818  0.00  0.00    +0.193 A 
ATOM      2  C   UNL     1       0.377  -2.330   6.066  0.00  0.00    +0.009 A 
ATOM      3  C   UNL     1       0.476  -3.403   6.960  0.00  0.00    +0.042 A 
ATOM      4  C   UNL     1       0.432  -4.561   6.221  0.00  0.00    +0.115 A 
ATOM      5  O   UNL     1       0.304  -4.227   4.939  0.00  0.00    -0.454 OA
ATOM      6  C   UNL     1       0.518  -5.933   6.840  0.00  0.00    +0.075 C 
ATOM      7  C   UNL     1       1.155  -5.826   8.228  0.00  0.00    +0.014 C 
ATOM      8  C   UNL     1       0.419  -4.787   9.081  0.00  0.00    +0.058 C 
ATOM      9  C   UNL     1       0.605  -3.422   8.434  0.00  0.00    +0.070 C 
ATOM     10  N   UNL     1       0.858  -2.353   9.125  0.00  0.00    -0.185 NA
ATOM     11  C   UNL     1       0.382  -0.863   6.410  0.00  0.00    +0.048 C 
ENDROOT
BRANCH   1  13
ATOM     12  N   UNL     1       0.050  -2.797   2.392  0.00  0.00    -0.279 N 
ATOM     13  C   UNL     1       0.149  -2.134   3.561  0.00  0.00    +0.284 C 
ATOM     14  O   UNL     1       0.134  -0.917   3.574  0.00  0.00    -0.266 OA
ATOM     15  H   UNL     1      -0.014  -3.765   2.387  0.00  0.00    +0.155 HD
BRANCH  12  21
ATOM     16  C   UNL     1      -1.515  -2.363  -2.248  0.00  0.00    +0.044 C 
ATOM     17  C   UNL     1      -0.709  -1.856  -1.080  0.00  0.00    -0.048 A 
ATOM     18  C   UNL     1       0.024  -0.690  -1.201  0.00  0.00    +0.006 A 
ATOM     19  C   UNL     1       0.765  -0.221  -0.132  0.00  0.00    -0.048 A 
ATOM     20  C   UNL     1       0.776  -0.917   1.061  0.00  0.00    +0.026 A 
ATOM     21  C   UNL     1       0.041  -2.090   1.186  0.00  0.00    +0.034 A 
ATOM     22  C   UNL     1      -0.707  -2.554   0.112  0.00  0.00    +0.026 A 
ATOM     23  C   UNL     1       1.562   1.051  -0.268  0.00  0.00    +0.044 C 
ENDBRANCH  12  21
ENDBRANCH   1  13
BRANCH  10  24
ATOM     24  N   UNL     1       0.969  -2.430  10.519  0.00  0.00    -0.218 N 
ATOM     25  H   UNL     1       0.858  -3.283  10.968  0.00  0.00    +0.176 HD
BRANCH  24  26
ATOM     26  C   UNL     1       1.232  -1.320  11.236  0.00  0.00    +0.147 C 
ATOM     27  S   UNL     1       1.368  -1.414  12.941  0.00  0.00    -0.017 S 
BRANCH  26  28
ATOM     28  N   UNL     1       1.387  -0.136  10.612  0.00  0.00    -0.339 N 
ATOM     29  H   UNL     1       1.310  -0.082   9.647  0.00  0.00    +0.144 HD
ATOM     30  H   UNL     1       1.576   0.664  11.129  0.00  0.00    +0.144 HD
ENDBRANCH  26  28
ENDBRANCH  24  26
ENDBRANCH  10  24
TORSDOF 5
