REMARK  Name = ZINC51694298
REMARK  4 active torsions:
REMARK  status: ('A' for Active; 'I' for Inactive)
REMARK    1  A    between atoms: C_3  and  N_8
REMARK    2  A    between atoms: C_6  and  N_7
REMARK    3  A    between atoms: C_9  and  C_11
REMARK    4  A    between atoms: C_17  and  C_19
REMARK                            x       y       z     vdW  Elec       q    Type
REMARK                         _______ _______ _______ _____ _____    ______ ____
ROOT
ATOM      1  N   UNL     1       3.763   1.779   6.011  0.00  0.00    -0.312 N 
ATOM      2  C   UNL     1       4.947   2.316   5.652  0.00  0.00    +0.217 C 
ATOM      3  O   UNL     1       5.858   2.365   6.450  0.00  0.00    -0.275 OA
ATOM      4  H   UNL     1       3.035   1.740   5.372  0.00  0.00    +0.149 HD
ENDROOT
BRANCH   1   7
ATOM      5  C   UNL     1       1.898   0.743   9.143  0.00  0.00    -0.014 C 
ATOM      6  C   UNL     1       2.092   1.290   7.728  0.00  0.00    +0.021 C 
ATOM      7  C   UNL     1       3.578   1.255   7.366  0.00  0.00    +0.073 C 
ATOM      8  C   UNL     1       4.085  -0.187   7.429  0.00  0.00    +0.021 C 
ATOM      9  C   UNL     1       3.891  -0.734   8.845  0.00  0.00    -0.014 C 
ATOM     10  C   UNL     1       2.405  -0.700   9.206  0.00  0.00    -0.075 C 
BRANCH  10  11
ATOM     11  N   UNL     1       2.219  -1.225  10.566  0.00  0.00    +0.380 N 
ATOM     12  H   UNL     1       1.239  -1.202  10.804  0.00  0.00    -0.090 HD
ATOM     13  H   UNL     1       2.553  -2.176  10.607  0.00  0.00    -0.090 HD
ATOM     14  H   UNL     1       2.738  -0.658  11.219  0.00  0.00    -0.090 HD
ENDBRANCH  10  11
ENDBRANCH   1   7
BRANCH   2  15
ATOM     15  C   UNL     1       5.137   2.854   4.257  0.00  0.00    +0.093 C 
ATOM     16  C   UNL     1       5.360   4.367   4.316  0.00  0.00    +0.040 C 
ATOM     17  C   UNL     1       5.811   4.876   2.979  0.00  0.00    -0.030 C 
ATOM     18  C   UNL     1       6.285   4.123   2.038  0.00  0.00    -0.030 C 
ATOM     19  C   UNL     1       6.439   2.634   2.151  0.00  0.00    +0.042 C 
ATOM     20  C   UNL     1       6.369   2.203   3.616  0.00  0.00    +0.118 C 
BRANCH  20  21
ATOM     21  C   UNL     1       6.251   0.703   3.702  0.00  0.00    +0.360 C 
ATOM     22  O   UNL     1       7.097   0.058   4.298  0.00  0.00    -0.246 OA
ATOM     23  O   UNL     1       5.310   0.135   3.175  0.00  0.00    -0.246 OA
ENDBRANCH  20  21
ENDBRANCH   2  15
TORSDOF 4
