REMARK  Name = ZINC66106413
REMARK  5 active torsions:
REMARK  status: ('A' for Active; 'I' for Inactive)
REMARK    1  A    between atoms: C_1  and  C_2
REMARK    2  A    between atoms: C_5  and  N_9
REMARK    3  A    between atoms: C_7  and  C_8
REMARK    4  A    between atoms: C_13  and  C_16
REMARK    5  A    between atoms: C_18  and  C_21
REMARK                            x       y       z     vdW  Elec       q    Type
REMARK                         _______ _______ _______ _____ _____    ______ ____
ROOT
ATOM      1  N   UNL     1       0.059  -4.142  -0.021  0.00  0.00    -0.225 NA
ATOM      2  C   UNL     1      -0.808  -4.807  -0.752  0.00  0.00    +0.174 C 
ATOM      3  N   UNL     1      -1.693  -4.178  -1.617  0.00  0.00    -0.215 N 
ATOM      4  N   UNL     1      -2.976  -4.694  -1.780  0.00  0.00    -0.181 NA
ATOM      5  C   UNL     1      -3.450  -5.789  -1.334  0.00  0.00    +0.111 C 
ATOM      6  C   UNL     1      -2.729  -6.796  -0.483  0.00  0.00    +0.138 C 
ATOM      7  S   UNL     1      -0.930  -6.579  -0.713  0.00  0.00    -0.083 S 
ATOM      8  H   UNL     1      -1.420  -3.385  -2.104  0.00  0.00    +0.176 HD
ENDROOT
BRANCH   1  13
ATOM      9  C   UNL     1      -0.056   1.502   0.056  0.00  0.00    +0.044 C 
ATOM     10  C   UNL     1      -0.025  -0.005   0.035  0.00  0.00    -0.047 A 
ATOM     11  C   UNL     1       1.159  -0.666  -0.242  0.00  0.00    +0.006 A 
ATOM     12  C   UNL     1       1.194  -2.045  -0.262  0.00  0.00    +0.028 A 
ATOM     13  C   UNL     1       0.031  -2.773  -0.002  0.00  0.00    +0.067 A 
ATOM     14  C   UNL     1      -1.160  -2.100   0.277  0.00  0.00    +0.031 A 
ATOM     15  C   UNL     1      -1.179  -0.721   0.299  0.00  0.00    -0.046 A 
ATOM     16  C   UNL     1      -2.462   0.008   0.605  0.00  0.00    +0.044 C 
ENDBRANCH   1  13
BRANCH   5  17
ATOM     17  C   UNL     1      -4.840  -6.099  -1.689  0.00  0.00    +0.152 A 
ATOM     18  C   UNL     1      -5.657  -5.324  -2.452  0.00  0.00    +0.064 A 
ATOM     19  C   UNL     1      -6.901  -6.006  -2.534  0.00  0.00    +0.075 A 
ATOM     20  C   UNL     1      -6.762  -7.158  -1.814  0.00  0.00    +0.208 A 
ATOM     21  O   UNL     1      -5.520  -7.203  -1.318  0.00  0.00    -0.461 OA
BRANCH  19  22
ATOM     22  C   UNL     1      -8.106  -5.558  -3.256  0.00  0.00    +0.245 C 
ATOM     23  O   UNL     1      -8.095  -4.504  -3.862  0.00  0.00    -0.270 OA
ATOM     24  N   UNL     1      -9.220  -6.317  -3.245  0.00  0.00    -0.325 N 
ATOM     25  H   UNL     1      -9.229  -7.158  -2.762  0.00  0.00    +0.145 HD
ATOM     26  H   UNL     1     -10.012  -6.022  -3.720  0.00  0.00    +0.145 HD
ENDBRANCH  19  22
ENDBRANCH   5  17
TORSDOF 3
