REMARK  Name = ZINC06088854
REMARK  7 active torsions:
REMARK  status: ('A' for Active; 'I' for Inactive)
REMARK    1  A    between atoms: C_1  and  C_2
REMARK    2  A    between atoms: N_7  and  S_8
REMARK    3  A    between atoms: S_8  and  C_11
REMARK    4  A    between atoms: C_14  and  N_17
REMARK    5  A    between atoms: C_20  and  C_23
REMARK    6  A    between atoms: C_26  and  O_30
REMARK    7  A    between atoms: C_28  and  O_29
REMARK                            x       y       z     vdW  Elec       q    Type
REMARK                         _______ _______ _______ _____ _____    ______ ____
ROOT
ATOM      1  C   UNL     1      11.518   5.968   1.397  0.00  0.00    +0.109 A 
ATOM      2  C   UNL     1      11.116   5.761   2.703  0.00  0.00    +0.030 A 
ATOM      3  C   UNL     1       9.851   5.275   2.969  0.00  0.00    +0.025 A 
ATOM      4  C   UNL     1       8.982   4.994   1.922  0.00  0.00    +0.033 A 
ATOM      5  C   UNL     1       9.391   5.198   0.610  0.00  0.00    +0.025 A 
ATOM      6  C   UNL     1      10.656   5.689   0.352  0.00  0.00    +0.030 A 
ENDROOT
BRANCH   4   7
ATOM      7  N   UNL     1       7.701   4.502   2.188  0.00  0.00    -0.294 N 
ATOM      8  C   UNL     1       6.643   4.841   1.359  0.00  0.00    +0.163 A 
ATOM      9  N   UNL     1       5.397   4.403   1.372  0.00  0.00    -0.225 NA
ATOM     10  C   UNL     1       4.505   4.840   0.495  0.00  0.00    +0.084 A 
ATOM     11  C   UNL     1       4.882   5.758  -0.444  0.00  0.00    +0.077 A 
ATOM     12  S   UNL     1       6.602   5.989  -0.011  0.00  0.00    -0.060 S 
ATOM     13  H   UNL     1       7.553   3.923   2.951  0.00  0.00    +0.154 HD
BRANCH  10  14
ATOM     14  C   UNL     1       3.111   4.333   0.528  0.00  0.00    +0.043 A 
ATOM     15  C   UNL     1       2.178   4.796  -0.396  0.00  0.00    +0.017 A 
ATOM     16  C   UNL     1       0.882   4.323  -0.363  0.00  0.00    +0.046 A 
ATOM     17  C   UNL     1       0.505   3.385   0.589  0.00  0.00    +0.120 A 
ATOM     18  C   UNL     1       1.428   2.924   1.516  0.00  0.00    +0.091 A 
ATOM     19  C   UNL     1       2.732   3.390   1.487  0.00  0.00    +0.129 A 
BRANCH  19  20
ATOM     20  O   UNL     1       3.638   2.935   2.392  0.00  0.00    -0.506 OA
ATOM     21  H   UNL     1       3.676   3.455   3.206  0.00  0.00    +0.292 HD
ENDBRANCH  19  20
BRANCH  17  22
ATOM     22  O   UNL     1      -0.772   2.923   0.617  0.00  0.00    -0.507 OA
ATOM     23  H   UNL     1      -0.918   2.138   0.072  0.00  0.00    +0.292 HD
ENDBRANCH  17  22
ENDBRANCH  10  14
ENDBRANCH   4   7
BRANCH   1  24
ATOM     24  S   UNL     1      13.133   6.589   1.062  0.00  0.00    +0.074 S 
ATOM     25  O   UNL     1      13.073   7.210  -0.214  0.00  0.00    -0.150 OA
ATOM     26  O   UNL     1      13.551   7.284   2.229  0.00  0.00    -0.150 OA
BRANCH  24  33
ATOM     27  C   UNL     1      14.577   1.462  -2.264  0.00  0.00    +0.089 C 
ATOM     28  C   UNL     1      14.155   2.710  -1.531  0.00  0.00    +0.136 A 
ATOM     29  C   UNL     1      14.726   3.225  -0.419  0.00  0.00    +0.092 A 
ATOM     30  C   UNL     1      13.956   4.388  -0.145  0.00  0.00    +0.181 A 
ATOM     31  N   UNL     1      13.040   4.446  -1.077  0.00  0.00    -0.062 NA
ATOM     32  O   UNL     1      13.141   3.526  -1.855  0.00  0.00    -0.358 OA
ATOM     33  N   UNL     1      14.137   5.281   0.905  0.00  0.00    -0.197 N 
ATOM     34  H   UNL     1      14.851   5.138   1.546  0.00  0.00    +0.175 HD
ENDBRANCH  24  33
ENDBRANCH   1  24
TORSDOF 6
