REMARK  Name = ZINC49693347
REMARK  3 active torsions:
REMARK  status: ('A' for Active; 'I' for Inactive)
REMARK    1  A    between atoms: C_3  and  N_11
REMARK    2  A    between atoms: C_4  and  N_10
REMARK    3  A    between atoms: C_6  and  C_7
REMARK                            x       y       z     vdW  Elec       q    Type
REMARK                         _______ _______ _______ _____ _____    ______ ____
ROOT
ATOM      1  C   UNL     1      -0.017   1.395   0.010  0.00  0.00    +0.017 A 
ATOM      2  C   UNL     1       1.166   2.100   0.002  0.00  0.00    +0.026 A 
ATOM      3  C   UNL     1       2.381   1.426  -0.013  0.00  0.00    +0.051 A 
ATOM      4  C   UNL     1       2.408   0.028  -0.021  0.00  0.00    +0.047 A 
ATOM      5  C   UNL     1       1.226  -0.685  -0.013  0.00  0.00    +0.039 A 
ATOM      6  C   UNL     1       0.002  -0.004   0.002  0.00  0.00    +0.065 A 
ENDROOT
BRANCH   3   7
ATOM      7  N   UNL     1       3.574   2.144  -0.021  0.00  0.00    -0.327 N 
ATOM      8  C   UNL     1       4.178   2.528  -1.298  0.00  0.00    +0.118 C 
ATOM      9  C   UNL     1       5.513   1.796  -1.472  0.00  0.00    +0.122 C 
ATOM     10  S   UNL     1       6.583   2.194  -0.057  0.00  0.00    +0.025 S 
ATOM     11  O   UNL     1       7.729   1.353  -0.079  0.00  0.00    -0.257 OA
ATOM     12  C   UNL     1       5.548   1.771   1.376  0.00  0.00    +0.122 C 
ATOM     13  C   UNL     1       4.205   2.510   1.247  0.00  0.00    +0.118 C 
ENDBRANCH   3   7
BRANCH   6  14
ATOM     14  C   UNL     1      -1.261  -0.758   0.010  0.00  0.00    +0.387 C 
ATOM     15  O   UNL     1      -2.330  -0.162   0.024  0.00  0.00    -0.241 OA
ATOM     16  O   UNL     1      -1.243  -1.982   0.003  0.00  0.00    -0.241 OA
ENDBRANCH   6  14
BRANCH   4  17
ATOM     17  N   UNL     1       3.634  -0.649  -0.037  0.00  0.00    -0.357 N 
ATOM     18  H   UNL     1       4.465  -0.149  -0.042  0.00  0.00    +0.142 HD
ATOM     19  H   UNL     1       3.652  -1.619  -0.042  0.00  0.00    +0.142 HD
ENDBRANCH   4  17
TORSDOF 3
