REMARK  Name = ZINC59332325
REMARK  10 active torsions:
REMARK  status: ('A' for Active; 'I' for Inactive)
REMARK    1  A    between atoms: C_1  and  C_2
REMARK    2  A    between atoms: C_2  and  C_3
REMARK    3  A    between atoms: C_2  and  C_4
REMARK    4  A    between atoms: C_2  and  C_5
REMARK    5  A    between atoms: C_12  and  C_14
REMARK    6  A    between atoms: N_16  and  C_17
REMARK    7  A    between atoms: C_17  and  C_18
REMARK    8  A    between atoms: C_21  and  C_24
REMARK    9  A    between atoms: N_26  and  C_27
REMARK   10  A    between atoms: C_27  and  C_28
REMARK                            x       y       z     vdW  Elec       q    Type
REMARK                         _______ _______ _______ _____ _____    ______ ____
ROOT
ATOM      1  C   UNL     1       5.894  -0.434  -4.729  0.00  0.00    +0.251 C 
ATOM      2  O   UNL     1       6.545   0.549  -4.430  0.00  0.00    -0.270 OA
ATOM      3  N   UNL     1       6.301  -1.231  -5.737  0.00  0.00    -0.307 N 
ATOM      4  H   UNL     1       5.781  -2.015  -5.976  0.00  0.00    +0.149 HD
ENDROOT
BRANCH   1  11
ATOM      5  C   UNL     1       0.718  -0.497  -1.257  0.00  0.00    -0.001 C 
ATOM      6  C   UNL     1       0.735  -2.029  -1.266  0.00  0.00    +0.009 C 
ATOM      7  C   UNL     1       1.206  -2.509  -2.645  0.00  0.00    +0.043 C 
ATOM      8  C   UNL     1       2.444  -1.747  -3.016  0.00  0.00    -0.006 A 
ATOM      9  C   UNL     1       2.906  -0.606  -2.429  0.00  0.00    -0.036 A 
ATOM     10  C   UNL     1       4.081  -0.074  -2.940  0.00  0.00    +0.024 A 
ATOM     11  C   UNL     1       4.666  -0.752  -3.994  0.00  0.00    +0.074 A 
ATOM     12  S   UNL     1       3.538  -2.114  -4.223  0.00  0.00    -0.088 S 
ATOM     13  C   UNL     1       2.151   0.035  -1.268  0.00  0.00    +0.040 C 
BRANCH   5  15
ATOM     14  C   UNL     1      -0.019   1.526   0.010  0.00  0.00    +0.011 C 
ATOM     15  C   UNL     1       0.002  -0.004   0.002  0.00  0.00    -0.035 C 
ATOM     16  C   UNL     1       0.742  -0.511   1.242  0.00  0.00    +0.011 C 
ATOM     17  C   UNL     1      -1.433  -0.534   0.013  0.00  0.00    +0.011 C 
ENDBRANCH   5  15
ENDBRANCH   1  11
BRANCH   3  18
ATOM     18  C   UNL     1       7.527  -0.913  -6.473  0.00  0.00    +0.139 C 
BRANCH  18  19
ATOM     19  C   UNL     1       7.756  -1.952  -7.540  0.00  0.00    -0.030 A 
ATOM     20  C   UNL     1       8.492  -3.088  -7.250  0.00  0.00    +0.006 A 
ATOM     21  C   UNL     1       8.705  -4.043  -8.222  0.00  0.00    +0.013 A 
ATOM     22  C   UNL     1       8.177  -3.861  -9.501  0.00  0.00    +0.037 A 
ATOM     23  C   UNL     1       7.436  -2.714  -9.788  0.00  0.00    +0.013 A 
ATOM     24  C   UNL     1       7.225  -1.769  -8.804  0.00  0.00    +0.006 A 
BRANCH  22  25
ATOM     25  C   UNL     1       8.402  -4.880 -10.549  0.00  0.00    +0.244 C 
ATOM     26  O   UNL     1       9.049  -5.878 -10.297  0.00  0.00    -0.270 OA
ATOM     27  N   UNL     1       7.891  -4.702 -11.783  0.00  0.00    -0.303 N 
ATOM     28  H   UNL     1       7.375  -3.906 -11.984  0.00  0.00    +0.150 HD
BRANCH  27  29
ATOM     29  C   UNL     1       8.114  -5.712 -12.821  0.00  0.00    +0.200 C 
BRANCH  29  30
ATOM     30  C   UNL     1       7.443  -5.276 -14.098  0.00  0.00    +0.228 C 
ATOM     31  O   UNL     1       6.838  -4.226 -14.137  0.00  0.00    -0.274 OA
ATOM     32  N   UNL     1       7.515  -6.054 -15.196  0.00  0.00    -0.328 N 
ATOM     33  H   UNL     1       7.999  -6.894 -15.165  0.00  0.00    +0.145 HD
ATOM     34  H   UNL     1       7.084  -5.774 -16.018  0.00  0.00    +0.145 HD
ENDBRANCH  29  30
ENDBRANCH  27  29
ENDBRANCH  22  25
ENDBRANCH  18  19
ENDBRANCH   3  18
TORSDOF 7
