REMARK  Name = ZINC37930435
REMARK  4 active torsions:
REMARK  status: ('A' for Active; 'I' for Inactive)
REMARK    1  A    between atoms: C_3  and  N_19
REMARK    2  A    between atoms: C_4  and  C_16
REMARK    3  A    between atoms: C_6  and  N_7
REMARK    4  A    between atoms: N_7  and  C_8
REMARK                            x       y       z     vdW  Elec       q    Type
REMARK                         _______ _______ _______ _____ _____    ______ ____
ROOT
ATOM      1  C   UNL     1      -0.078   1.264   0.026  0.00  0.00    +0.025 A 
ATOM      2  C   UNL     1       1.024   2.092  -0.012  0.00  0.00    +0.025 A 
ATOM      3  C   UNL     1       2.303   1.551  -0.044  0.00  0.00    +0.039 A 
ATOM      4  C   UNL     1       2.470   0.156  -0.038  0.00  0.00    +0.085 A 
ATOM      5  C   UNL     1       1.346  -0.675   0.001  0.00  0.00    +0.040 A 
ATOM      6  C   UNL     1       0.080  -0.119   0.033  0.00  0.00    +0.028 A 
ENDROOT
BRANCH   4   7
ATOM      7  C   UNL     1       3.820  -0.427  -0.072  0.00  0.00    +0.388 C 
ATOM      8  O   UNL     1       3.961  -1.637  -0.183  0.00  0.00    -0.241 OA
ATOM      9  O   UNL     1       4.802   0.298   0.010  0.00  0.00    -0.241 OA
ENDBRANCH   4   7
BRANCH   3  10
ATOM     10  N   UNL     1       3.413   2.386  -0.083  0.00  0.00    -0.357 N 
ATOM     11  H   UNL     1       3.296   3.345  -0.172  0.00  0.00    +0.142 HD
ATOM     12  H   UNL     1       4.305   2.010  -0.020  0.00  0.00    +0.142 HD
ENDBRANCH   3  10
BRANCH   6  13
ATOM     13  N   UNL     1      -1.047  -0.949   0.071  0.00  0.00    -0.339 N 
ATOM     14  H   UNL     1      -0.939  -1.913   0.076  0.00  0.00    +0.146 HD
BRANCH  13  15
ATOM     15  C   UNL     1      -2.389  -0.363   0.105  0.00  0.00    +0.093 C 
ATOM     16  C   UNL     1      -2.852  -0.065  -1.331  0.00  0.00    +0.046 C 
ATOM     17  C   UNL     1      -4.373   0.255  -1.292  0.00  0.00    +0.168 C 
ATOM     18  S   UNL     1      -4.953  -1.007  -0.082  0.00  0.00    -0.029 S 
ATOM     19  O   UNL     1      -5.851  -0.393   0.832  0.00  0.00    -0.174 OA
ATOM     20  O   UNL     1      -5.361  -2.171  -0.787  0.00  0.00    -0.174 OA
ATOM     21  C   UNL     1      -3.367  -1.355   0.779  0.00  0.00    +0.188 C 
ENDBRANCH  13  15
ENDBRANCH   6  13
TORSDOF 4
