REMARK  Name = ZINC62723189
REMARK  4 active torsions:
REMARK  status: ('A' for Active; 'I' for Inactive)
REMARK    1  A    between atoms: C_3  and  N_17
REMARK    2  A    between atoms: C_4  and  O_16
REMARK    3  A    between atoms: C_7  and  S_12
REMARK    4  A    between atoms: C_10  and  N_11
REMARK                            x       y       z     vdW  Elec       q    Type
REMARK                         _______ _______ _______ _____ _____    ______ ____
ROOT
ATOM      1  C   UNL     1      -0.018   1.400   0.038  0.00  0.00    +0.012 A 
ATOM      2  C   UNL     1       1.151   2.097   0.046  0.00  0.00    +0.027 A 
ATOM      3  C   UNL     1       2.382   1.437   0.033  0.00  0.00    +0.067 A 
ATOM      4  C   UNL     1       2.439   0.055   0.011  0.00  0.00    +0.147 A 
ATOM      5  C   UNL     1       1.244  -0.685   0.002  0.00  0.00    +0.048 A 
ATOM      6  C   UNL     1       0.002  -0.004   0.016  0.00  0.00    +0.015 A 
ATOM      7  C   UNL     1      -1.193  -0.746   0.007  0.00  0.00    +0.127 A 
ATOM      8  C   UNL     1      -1.149  -2.106  -0.015  0.00  0.00    +0.032 A 
ATOM      9  C   UNL     1       0.066  -2.786  -0.029  0.00  0.00    +0.025 A 
ATOM     10  C   UNL     1       1.259  -2.096  -0.021  0.00  0.00    +0.036 A 
ENDROOT
BRANCH   7  11
ATOM     11  S   UNL     1      -2.747   0.085   0.024  0.00  0.00    +0.140 S 
ATOM     12  O   UNL     1      -3.042   0.458  -1.351  0.00  0.00    -0.140 OA
ATOM     13  O   UNL     1      -3.723  -0.855   0.553  0.00  0.00    -0.140 OA
ATOM     14  O   UNL     1      -2.593   1.250   0.882  0.00  0.00    -0.043 OA
ENDBRANCH   7  11
BRANCH  10  15
ATOM     15  N   UNL     1       2.470  -2.786  -0.036  0.00  0.00    -0.357 N 
ATOM     16  H   UNL     1       2.525  -3.678   0.341  0.00  0.00    +0.142 HD
ATOM     17  H   UNL     1       3.258  -2.374  -0.423  0.00  0.00    +0.142 HD
ENDBRANCH  10  15
BRANCH   3  18
ATOM     18  N   UNL     1       3.569   2.181   0.041  0.00  0.00    -0.355 N 
ATOM     19  H   UNL     1       3.534   3.150   0.057  0.00  0.00    +0.142 HD
ATOM     20  H   UNL     1       4.426   1.727   0.032  0.00  0.00    +0.142 HD
ENDBRANCH   3  18
BRANCH   4  21
ATOM     21  O   UNL     1       3.640  -0.581  -0.003  0.00  0.00    -0.504 OA
ATOM     22  H   UNL     1       3.990  -0.779   0.876  0.00  0.00    +0.292 HD
ENDBRANCH   4  21
TORSDOF 4
