REMARK  Name = ZINC49513733
REMARK  4 active torsions:
REMARK  status: ('A' for Active; 'I' for Inactive)
REMARK    1  A    between atoms: C_1  and  C_2
REMARK    2  A    between atoms: C_7  and  C_8
REMARK    3  A    between atoms: N_10  and  S_11
REMARK    4  A    between atoms: S_11  and  C_14
REMARK                            x       y       z     vdW  Elec       q    Type
REMARK                         _______ _______ _______ _____ _____    ______ ____
ROOT
ATOM      1  C   UNL     1       0.242   0.023   2.481  0.00  0.00    +0.295 C 
ATOM      2  O   UNL     1       0.466  -0.656   3.629  0.00  0.00    -0.264 OA
ATOM      3  N   UNL     1       0.128   1.318   2.504  0.00  0.00    -0.090 NA
ENDROOT
BRANCH   1  10
ATOM      4  C   UNL     1      -0.505   1.454   0.080  0.00  0.00    +0.044 C 
ATOM      5  C   UNL     1      -0.231  -0.028   0.036  0.00  0.00    -0.037 A 
ATOM      6  C   UNL     1      -0.331  -0.713  -1.157  0.00  0.00    +0.019 A 
ATOM      7  C   UNL     1      -0.080  -2.074  -1.200  0.00  0.00    +0.018 A 
ATOM      8  C   UNL     1       0.271  -2.755  -0.047  0.00  0.00    +0.016 A 
ATOM      9  C   UNL     1       0.374  -2.080   1.152  0.00  0.00    +0.015 A 
ATOM     10  C   UNL     1       0.128  -0.707   1.200  0.00  0.00    +0.045 A 
ATOM     11 BR   UNL     1      -0.220  -3.006  -2.839  0.00  0.00    -0.050 Br
ENDBRANCH   1  10
BRANCH   3  12
ATOM     12  S   UNL     1       0.256   2.136   3.938  0.00  0.00    +0.076 S 
ATOM     13  O   UNL     1      -0.846   1.683   4.713  0.00  0.00    -0.151 OA
ATOM     14  O   UNL     1       1.589   1.904   4.370  0.00  0.00    -0.151 OA
BRANCH  12  15
ATOM     15  C   UNL     1       0.035   3.882   3.500  0.00  0.00    +0.155 C 
ATOM     16  C   UNL     1       1.046   4.268   2.418  0.00  0.00    +0.028 C 
ATOM     17  C   UNL     1       0.860   5.742   2.049  0.00  0.00    +0.002 C 
ATOM     18  C   UNL     1       1.083   6.610   3.289  0.00  0.00    +0.000 C 
ATOM     19  C   UNL     1       0.072   6.224   4.370  0.00  0.00    +0.002 C 
ATOM     20  C   UNL     1       0.258   4.751   4.740  0.00  0.00    +0.028 C 
ENDBRANCH  12  15
ENDBRANCH   3  12
TORSDOF 3
