REMARK  Name = ZINC36596841
REMARK  19 active torsions:
REMARK  status: ('A' for Active; 'I' for Inactive)
REMARK    1  A    between atoms: C_1  and  C_2
REMARK    2  A    between atoms: C_5  and  C_7
REMARK    3  A    between atoms: C_7  and  N_8
REMARK    4  A    between atoms: N_8  and  C_9
REMARK    5  A    between atoms: C_9  and  C_11
REMARK    6  A    between atoms: C_9  and  C_20
REMARK    7  A    between atoms: C_12  and  O_19
REMARK    8  A    between atoms: C_14  and  O_18
REMARK    9  A    between atoms: C_16  and  O_17
REMARK   10  A    between atoms: N_22  and  C_23
REMARK   11  A    between atoms: C_23  and  C_24
REMARK   12  A    between atoms: C_23  and  C_25
REMARK   13  A    between atoms: C_23  and  C_26
REMARK   14  A    between atoms: C_26  and  C_27
REMARK   15  A    between atoms: C_27  and  C_28
REMARK   16  A    between atoms: C_27  and  C_29
REMARK   17  A    between atoms: C_27  and  C_30
REMARK   18  A    between atoms: C_31  and  C_33
REMARK   19  A    between atoms: C_34  and  C_35
REMARK                            x       y       z     vdW  Elec       q    Type
REMARK                         _______ _______ _______ _____ _____    ______ ____
ROOT
ATOM      1  C   UNL     1       4.231  -2.642  -2.132  0.00  0.00    +0.200 C 
ENDROOT
BRANCH   1   2
ATOM      2  C   UNL     1       5.632  -2.774  -1.593  0.00  0.00    +0.065 A 
ATOM      3  C   UNL     1       6.635  -3.304  -2.392  0.00  0.00    +0.129 A 
ATOM      4  C   UNL     1       7.924  -3.426  -1.896  0.00  0.00    +0.091 A 
ATOM      5  C   UNL     1       8.211  -3.017  -0.602  0.00  0.00    +0.124 A 
ATOM      6  C   UNL     1       7.209  -2.486   0.195  0.00  0.00    +0.091 A 
ATOM      7  C   UNL     1       5.921  -2.360  -0.302  0.00  0.00    +0.129 A 
BRANCH   7   8
ATOM      8  O   UNL     1       4.940  -1.835   0.478  0.00  0.00    -0.506 OA
ATOM      9  H   UNL     1       4.463  -2.491   1.006  0.00  0.00    +0.292 HD
ENDBRANCH   7   8
BRANCH   5  10
ATOM     10  O   UNL     1       9.475  -3.137  -0.116  0.00  0.00    -0.507 OA
ATOM     11  H   UNL     1      10.032  -2.363  -0.274  0.00  0.00    +0.292 HD
ENDBRANCH   5  10
BRANCH   3  12
ATOM     12  O   UNL     1       6.353  -3.705  -3.659  0.00  0.00    -0.506 OA
ATOM     13  H   UNL     1       6.537  -3.036  -4.333  0.00  0.00    +0.292 HD
ENDBRANCH   3  12
ENDBRANCH   1   2
BRANCH   1  14
ATOM     14  C   UNL     1       3.991  -1.217  -2.562  0.00  0.00    +0.239 C 
ATOM     15  O   UNL     1       3.111  -0.566  -2.040  0.00  0.00    -0.273 OA
ATOM     16  N   UNL     1       4.754  -0.667  -3.528  0.00  0.00    -0.308 N 
ATOM     17  H   UNL     1       5.457  -1.188  -3.945  0.00  0.00    +0.149 HD
BRANCH  16  18
ATOM     18  C   UNL     1       4.520   0.717  -3.946  0.00  0.00    +0.030 C 
ATOM     19  C   UNL     1       3.231   0.791  -4.766  0.00  0.00    +0.031 C 
ATOM     20  C   UNL     1       4.390   1.609  -2.709  0.00  0.00    +0.031 C 
BRANCH  18  21
ATOM     21  C   UNL     1       5.696   1.198  -4.799  0.00  0.00    +0.031 C 
BRANCH  21  22
ATOM     22  C   UNL     1       7.004   0.668  -4.209  0.00  0.00    -0.036 C 
ATOM     23  C   UNL     1       7.214  -0.781  -4.651  0.00  0.00    +0.010 C 
ATOM     24  C   UNL     1       8.171   1.526  -4.703  0.00  0.00    +0.010 C 
ATOM     25  C   UNL     1       6.936   0.730  -2.681  0.00  0.00    +0.010 C 
ENDBRANCH  21  22
ENDBRANCH  18  21
ENDBRANCH  16  18
ENDBRANCH   1  14
BRANCH   1  26
ATOM     26  N   UNL     1       3.270  -3.005  -1.088  0.00  0.00    -0.268 N 
ATOM     27  C   UNL     1       3.138  -4.292  -0.712  0.00  0.00    +0.293 C 
ATOM     28  O   UNL     1       3.816  -5.153  -1.241  0.00  0.00    -0.260 OA
BRANCH  27  29
ATOM     29  C   UNL     1       2.198  -4.648   0.309  0.00  0.00    -0.003 C 
ATOM     30  C   UNL     1       1.428  -4.939   1.146  0.00  0.00    -0.057 C 
BRANCH  30  31
ATOM     31  C   UNL     1       0.489  -5.294   2.167  0.00  0.00    +0.025 A 
ATOM     32  C   UNL     1      -0.297  -4.309   2.772  0.00  0.00    +0.017 A 
ATOM     33  C   UNL     1      -1.199  -4.659   3.754  0.00  0.00    +0.001 A 
ATOM     34  C   UNL     1      -1.328  -5.981   4.141  0.00  0.00    +0.000 A 
ATOM     35  C   UNL     1      -0.554  -6.962   3.547  0.00  0.00    +0.001 A 
ATOM     36  C   UNL     1       0.349  -6.629   2.559  0.00  0.00    +0.017 A 
ENDBRANCH  30  31
ENDBRANCH  27  29
BRANCH  26  37
ATOM     37  C   UNL     1       2.453  -1.969  -0.451  0.00  0.00    +0.184 C 
BRANCH  37  42
ATOM     38  C   UNL     1      -1.134  -0.305  -3.583  0.00  0.00    +0.086 C 
ATOM     39  C   UNL     1      -0.422  -1.126  -2.539  0.00  0.00    +0.102 A 
ATOM     40  C   UNL     1      -0.939  -2.178  -1.877  0.00  0.00    +0.045 A 
ATOM     41  C   UNL     1       0.067  -2.644  -1.000  0.00  0.00    +0.046 A 
ATOM     42  C   UNL     1       1.138  -1.850  -1.177  0.00  0.00    +0.122 A 
ATOM     43  O   UNL     1       0.838  -0.936  -2.115  0.00  0.00    -0.463 OA
ENDBRANCH  37  42
ENDBRANCH  26  37
ENDBRANCH   1  26
TORSDOF 13
