REMARK  Name = ZINC41953773
REMARK  6 active torsions:
REMARK  status: ('A' for Active; 'I' for Inactive)
REMARK    1  A    between atoms: C_1  and  C_2
REMARK    2  A    between atoms: C_7  and  O_10
REMARK    3  A    between atoms: O_10  and  C_11
REMARK    4  A    between atoms: C_11  and  C_12
REMARK    5  A    between atoms: C_11  and  C_13
REMARK    6  A    between atoms: C_11  and  C_20
REMARK                            x       y       z     vdW  Elec       q    Type
REMARK                         _______ _______ _______ _____ _____    ______ ____
ROOT
ATOM      1  C   UNL     1       2.194  -3.694   0.252  0.00  0.00    +0.192 C 
ATOM      2  C   UNL     1       1.253  -4.851   0.595  0.00  0.00    +0.059 C 
ENDROOT
BRANCH   1   3
ATOM      3  C   UNL     1       3.014  -4.056  -0.959  0.00  0.00    -0.005 A 
ATOM      4  C   UNL     1       2.942  -3.278  -2.100  0.00  0.00    +0.008 A 
ATOM      5  C   UNL     1       3.694  -3.609  -3.211  0.00  0.00    +0.015 A 
ATOM      6  C   UNL     1       4.519  -4.719  -3.182  0.00  0.00    +0.018 A 
ATOM      7  C   UNL     1       4.591  -5.497  -2.041  0.00  0.00    +0.015 A 
ATOM      8  C   UNL     1       3.842  -5.163  -0.928  0.00  0.00    +0.008 A 
ATOM      9 BR   UNL     1       5.548  -5.173  -4.702  0.00  0.00    -0.050 Br
ENDBRANCH   1   3
BRANCH   1  10
ATOM     10  C   UNL     1       3.111  -3.430   1.419  0.00  0.00    +0.391 C 
ATOM     11  O   UNL     1       3.107  -2.339   1.962  0.00  0.00    -0.243 OA
ATOM     12  O   UNL     1       3.857  -4.308   1.819  0.00  0.00    -0.243 OA
ENDBRANCH   1  10
BRANCH   1  13
ATOM     13  O   UNL     1       1.426  -2.522  -0.025  0.00  0.00    -0.354 OA
BRANCH  13  19
ATOM     14  C   UNL     1       0.309   1.603   0.227  0.00  0.00    +0.007 C 
ATOM     15  C   UNL     1       0.227   0.095  -0.018  0.00  0.00    -0.012 C 
ATOM     16  C   UNL     1      -1.199  -0.279  -0.425  0.00  0.00    +0.003 C 
ATOM     17  C   UNL     1      -1.281  -1.787  -0.670  0.00  0.00    +0.003 C 
ATOM     18  C   UNL     1      -0.905  -2.533   0.612  0.00  0.00    +0.031 C 
ATOM     19  C   UNL     1       0.521  -2.159   1.020  0.00  0.00    +0.120 C 
ATOM     20  C   UNL     1       0.603  -0.651   1.264  0.00  0.00    +0.035 C 
ENDBRANCH  13  19
ENDBRANCH   1  13
TORSDOF 4
