REMARK  Name = ZINC52094804
REMARK  3 active torsions:
REMARK  status: ('A' for Active; 'I' for Inactive)
REMARK    1  A    between atoms: C_3  and  C_9
REMARK    2  A    between atoms: C_9  and  C_11
REMARK    3  A    between atoms: C_9  and  O_24
REMARK                            x       y       z     vdW  Elec       q    Type
REMARK                         _______ _______ _______ _____ _____    ______ ____
ROOT
ATOM      1  C   UNL     1       4.117   2.436   1.395  0.00  0.00    +0.001 A 
ATOM      2  C   UNL     1       3.702   3.576   2.055  0.00  0.00    +0.035 A 
ATOM      3  C   UNL     1       4.112   3.806   3.359  0.00  0.00    +0.067 A 
ATOM      4  C   UNL     1       4.943   2.884   4.000  0.00  0.00    +0.068 A 
ATOM      5  C   UNL     1       5.355   1.743   3.330  0.00  0.00    +0.043 A 
ATOM      6  C   UNL     1       4.936   1.519   2.032  0.00  0.00    +0.026 A 
ATOM      7 BR   UNL     1       5.491  -0.042   1.120  0.00  0.00    -0.050 Br
ATOM      8  N   UNL     1       5.182   3.380   5.280  0.00  0.00    -0.306 N 
ATOM      9  H   UNL     1       5.727   2.955   5.961  0.00  0.00    +0.170 HD
ATOM     10  C   UNL     1       4.526   4.548   5.412  0.00  0.00    +0.325 A 
ATOM     11  O   UNL     1       4.526   5.243   6.411  0.00  0.00    -0.247 OA
ATOM     12  N   UNL     1       3.872   4.833   4.270  0.00  0.00    -0.306 N 
ATOM     13  H   UNL     1       3.326   5.618   4.109  0.00  0.00    +0.170 HD
ENDROOT
BRANCH   1  14
ATOM     14  C   UNL     1       3.671   2.185  -0.023  0.00  0.00    +0.177 C 
BRANCH  14  17
ATOM     15  C   UNL     1       0.099   1.092   0.525  0.00  0.00    +0.020 A 
ATOM     16  C   UNL     1       1.250   1.859   0.518  0.00  0.00    +0.009 A 
ATOM     17  C   UNL     1       2.418   1.349  -0.015  0.00  0.00    +0.004 A 
ATOM     18  C   UNL     1       2.437   0.069  -0.542  0.00  0.00    +0.048 A 
ATOM     19  C   UNL     1       1.287  -0.699  -0.535  0.00  0.00    +0.040 A 
ATOM     20  C   UNL     1       0.117  -0.187  -0.002  0.00  0.00    +0.042 A 
ATOM     21 CL   UNL     1      -1.327  -1.150   0.007  0.00  0.00    -0.083 Cl
ATOM     22 CL   UNL     1       3.905  -0.572  -1.212  0.00  0.00    -0.083 Cl
ENDBRANCH  14  17
BRANCH  14  23
ATOM     23  O   UNL     1       3.407   3.433  -0.666  0.00  0.00    -0.382 OA
ATOM     24  H   UNL     1       2.716   3.958  -0.238  0.00  0.00    +0.211 HD
ENDBRANCH  14  23
ENDBRANCH   1  14
TORSDOF 3
