REMARK  Name = ZINC59599119
REMARK  11 active torsions:
REMARK  status: ('A' for Active; 'I' for Inactive)
REMARK    1  A    between atoms: C_1  and  C_2
REMARK    2  A    between atoms: C_5  and  N_8
REMARK    3  A    between atoms: N_11  and  N_12
REMARK    4  A    between atoms: C_13  and  C_14
REMARK    5  A    between atoms: C_17  and  O_22
REMARK    6  A    between atoms: C_18  and  O_20
REMARK    7  A    between atoms: O_20  and  C_21
REMARK    8  A    between atoms: O_22  and  C_23
REMARK    9  A    between atoms: C_24  and  N_33
REMARK   10  A    between atoms: N_25  and  C_32
REMARK   11  A    between atoms: N_28  and  C_31
REMARK                            x       y       z     vdW  Elec       q    Type
REMARK                         _______ _______ _______ _____ _____    ______ ____
ROOT
ATOM      1  C   UNL     1      -0.360  -9.890  -1.433  0.00  0.00    -0.002 A 
ATOM      2  C   UNL     1      -0.176  -8.989  -2.485  0.00  0.00    +0.013 A 
ATOM      3  C   UNL     1       0.041  -9.458  -3.763  0.00  0.00    +0.050 A 
ATOM      4  C   UNL     1       0.077 -10.824  -4.008  0.00  0.00    +0.170 A 
ATOM      5  C   UNL     1      -0.106 -11.727  -2.963  0.00  0.00    +0.163 A 
ATOM      6  C   UNL     1      -0.319 -11.265  -1.679  0.00  0.00    +0.059 A 
ENDROOT
BRANCH   1   8
ATOM      7  N   UNL     1      -0.631  -8.113   0.162  0.00  0.00    -0.186 NA
ATOM      8  C   UNL     1      -0.592  -9.390  -0.065  0.00  0.00    +0.138 C 
BRANCH   7  12
ATOM      9  N   UNL     1      -0.719  -5.442   0.682  0.00  0.00    -0.268 N 
ATOM     10  C   UNL     1      -0.891  -6.312   1.697  0.00  0.00    +0.323 C 
ATOM     11  O   UNL     1      -1.082  -5.901   2.825  0.00  0.00    -0.251 OA
ATOM     12  N   UNL     1      -0.851  -7.639   1.462  0.00  0.00    -0.191 N 
ATOM     13  H   UNL     1      -0.643  -5.768  -0.229  0.00  0.00    +0.156 HD
ATOM     14  H   UNL     1      -0.975  -8.265   2.192  0.00  0.00    +0.179 HD
BRANCH   9  19
ATOM     15  C   UNL     1      -0.436   0.125   1.735  0.00  0.00    +0.044 C 
ATOM     16  C   UNL     1      -0.511  -1.354   1.455  0.00  0.00    -0.050 A 
ATOM     17  C   UNL     1      -0.023  -2.257   2.382  0.00  0.00    +0.005 A 
ATOM     18  C   UNL     1      -0.091  -3.613   2.129  0.00  0.00    +0.023 A 
ATOM     19  C   UNL     1      -0.649  -4.069   0.942  0.00  0.00    +0.035 A 
ATOM     20  C   UNL     1      -1.138  -3.160   0.013  0.00  0.00    +0.023 A 
ATOM     21  C   UNL     1      -1.072  -1.805   0.275  0.00  0.00    +0.005 A 
ENDBRANCH   9  19
ENDBRANCH   7  12
ENDBRANCH   1   8
BRANCH   5  22
ATOM     22  O   UNL     1      -0.071 -13.065  -3.207  0.00  0.00    -0.491 OA
ATOM     23  C   UNL     1      -0.267 -13.934  -2.090  0.00  0.00    +0.277 C 
ENDBRANCH   5  22
BRANCH   4  24
ATOM     24  O   UNL     1       0.291 -11.280  -5.270  0.00  0.00    -0.443 OA
BRANCH  24  25
ATOM     25  C   UNL     1       0.349 -10.367  -6.280  0.00  0.00    +0.230 A 
ATOM     26  C   UNL     1       1.522 -10.145  -6.949  0.00  0.00    +0.149 A 
ATOM     27  N   UNL     1       1.554  -9.217  -7.965  0.00  0.00    -0.282 N 
ATOM     28  C   UNL     1       0.444  -8.534  -8.298  0.00  0.00    +0.333 A 
ATOM     29  O   UNL     1       0.491  -7.718  -9.198  0.00  0.00    -0.246 OA
ATOM     30  N   UNL     1      -0.718  -8.741  -7.652  0.00  0.00    -0.261 N 
ATOM     31  C   UNL     1      -0.797  -9.643  -6.654  0.00  0.00    +0.301 A 
ATOM     32  O   UNL     1      -1.855  -9.828  -6.076  0.00  0.00    -0.263 OA
ATOM     33  C   UNL     1      -1.909  -7.981  -8.039  0.00  0.00    +0.157 C 
ATOM     34  C   UNL     1       2.805  -8.972  -8.687  0.00  0.00    +0.155 C 
BRANCH  26  35
ATOM     35  N   UNL     1       2.658 -10.841  -6.609  0.00  0.00    -0.341 N 
ATOM     36  H   UNL     1       2.655 -11.425  -5.834  0.00  0.00    +0.144 HD
ATOM     37  H   UNL     1       3.462 -10.748  -7.143  0.00  0.00    +0.144 HD
ENDBRANCH  26  35
ENDBRANCH  24  25
ENDBRANCH   4  24
TORSDOF 7
