REMARK  Name = ZINC58822945
REMARK  8 active torsions:
REMARK  status: ('A' for Active; 'I' for Inactive)
REMARK    1  A    between atoms: C_1  and  C_2
REMARK    2  A    between atoms: C_2  and  O_3
REMARK    3  A    between atoms: O_3  and  C_4
REMARK    4  A    between atoms: C_6  and  C_20
REMARK    5  A    between atoms: C_9  and  O_10
REMARK    6  A    between atoms: O_10  and  C_11
REMARK    7  A    between atoms: C_11  and  C_12
REMARK    8  A    between atoms: N_21  and  N_22
REMARK                            x       y       z     vdW  Elec       q    Type
REMARK                         _______ _______ _______ _____ _____    ______ ____
ROOT
ATOM      1  C   UNL     1       0.802  -1.825   1.306  0.00  0.00    +0.163 A 
ATOM      2  C   UNL     1       0.261  -2.669   0.354  0.00  0.00    +0.059 A 
ATOM      3  C   UNL     1       0.375  -4.053   0.507  0.00  0.00    -0.002 A 
ATOM      4  C   UNL     1       1.035  -4.577   1.621  0.00  0.00    +0.013 A 
ATOM      5  C   UNL     1       1.572  -3.729   2.567  0.00  0.00    +0.050 A 
ATOM      6  C   UNL     1       1.464  -2.355   2.412  0.00  0.00    +0.162 A 
ENDROOT
BRANCH   3   7
ATOM      7  C   UNL     1      -0.200  -4.959  -0.505  0.00  0.00    +0.138 C 
ATOM      8  N   UNL     1      -0.093  -6.244  -0.361  0.00  0.00    -0.186 NA
BRANCH   8   9
ATOM      9  N   UNL     1      -0.640  -7.104  -1.322  0.00  0.00    -0.191 N 
ATOM     10  C   UNL     1      -0.529  -8.439  -1.173  0.00  0.00    +0.317 C 
ATOM     11  O   UNL     1      -1.003  -9.185  -2.007  0.00  0.00    -0.251 OA
ATOM     12  N   UNL     1       0.108  -8.946  -0.099  0.00  0.00    -0.312 N 
ATOM     13  H   UNL     1      -1.098  -6.739  -2.095  0.00  0.00    +0.179 HD
ATOM     14  H   UNL     1       0.487  -8.351   0.567  0.00  0.00    +0.147 HD
ATOM     15  H   UNL     1       0.188  -9.907   0.008  0.00  0.00    +0.147 HD
ENDBRANCH   8   9
ENDBRANCH   3   7
BRANCH   1  16
ATOM     16  O   UNL     1       0.693  -0.477   1.160  0.00  0.00    -0.489 OA
BRANCH  16  18
ATOM     17  C   UNL     1      -0.019   1.526   0.010  0.00  0.00    +0.048 C 
ATOM     18  C   UNL     1       0.002  -0.004   0.002  0.00  0.00    +0.226 C 
ENDBRANCH  16  18
ENDBRANCH   1  16
BRANCH   6  19
ATOM     19  O   UNL     1       2.000  -1.523   3.344  0.00  0.00    -0.484 OA
BRANCH  19  20
ATOM     20  C   UNL     1       2.664  -2.132   4.452  0.00  0.00    +0.264 C 
BRANCH  20  21
ATOM     21  C   UNL     1       3.190  -1.062   5.373  0.00  0.00    -0.009 A 
ATOM     22  C   UNL     1       4.460  -0.550   5.184  0.00  0.00    +0.008 A 
ATOM     23  C   UNL     1       4.943   0.431   6.028  0.00  0.00    +0.022 A 
ATOM     24  C   UNL     1       4.156   0.902   7.064  0.00  0.00    +0.059 A 
ATOM     25  C   UNL     1       2.884   0.390   7.253  0.00  0.00    +0.060 A 
ATOM     26  C   UNL     1       2.400  -0.589   6.404  0.00  0.00    +0.028 A 
ATOM     27 CL   UNL     1       1.895   0.979   8.553  0.00  0.00    -0.082 Cl
ATOM     28 CL   UNL     1       4.763   2.135   8.125  0.00  0.00    -0.082 Cl
ENDBRANCH  20  21
ENDBRANCH  19  20
ENDBRANCH   6  19
TORSDOF 7
