REMARK  Name = ZINC62054459
REMARK  4 active torsions:
REMARK  status: ('A' for Active; 'I' for Inactive)
REMARK    1  A    between atoms: C_5  and  S_11
REMARK    2  A    between atoms: C_6  and  C_7
REMARK    3  A    between atoms: N_8  and  O_9
REMARK    4  A    between atoms: S_11  and  C_12
REMARK                            x       y       z     vdW  Elec       q    Type
REMARK                         _______ _______ _______ _____ _____    ______ ____
ROOT
ATOM      1  C   UNL     1      -0.024   1.391   0.152  0.00  0.00    +0.019 A 
ATOM      2  C   UNL     1       1.180   2.078   0.145  0.00  0.00    -0.025 A 
ATOM      3  C   UNL     1       2.365   1.380  -0.002  0.00  0.00    +0.046 A 
ATOM      4  N   UNL     1       2.359   0.063  -0.136  0.00  0.00    -0.244 NA
ATOM      5  C   UNL     1       1.239  -0.639  -0.136  0.00  0.00    +0.108 A 
ATOM      6  C   UNL     1      -0.002   0.003   0.009  0.00  0.00    +0.050 A 
ATOM      7  C   UNL     1       3.530   2.349   0.023  0.00  0.00    +0.056 C 
ATOM      8  C   UNL     1       2.910   3.737  -0.240  0.00  0.00    +0.011 C 
ATOM      9  C   UNL     1       1.467   3.558   0.278  0.00  0.00    +0.037 C 
ENDROOT
BRANCH   6  10
ATOM     10  C   UNL     1      -1.258  -0.776   0.010  0.00  0.00    +0.165 C 
ATOM     11  N   UNL     1      -2.200  -0.493  -0.844  0.00  0.00    -0.071 NA
ATOM     12  N   UNL     1      -1.434  -1.806   0.918  0.00  0.00    -0.340 N 
ATOM     13  H   UNL     1      -0.732  -2.017   1.554  0.00  0.00    +0.144 HD
ATOM     14  H   UNL     1      -2.259  -2.317   0.919  0.00  0.00    +0.144 HD
BRANCH  11  15
ATOM     15  O   UNL     1      -1.977   0.481  -1.847  0.00  0.00    -0.408 OA
ATOM     16  H   UNL     1      -2.757   0.678  -2.384  0.00  0.00    +0.328 HD
ENDBRANCH  11  15
ENDBRANCH   6  10
BRANCH   5  17
ATOM     17  S   UNL     1       1.303  -2.390  -0.319  0.00  0.00    -0.102 S 
BRANCH  17  18
ATOM     18  C   UNL     1       3.074  -2.752  -0.470  0.00  0.00    +0.057 C 
ATOM     19  C   UNL     1       3.614  -2.136  -1.764  0.00  0.00    +0.042 C 
ATOM     20  C   UNL     1       5.090  -2.512  -1.922  0.00  0.00    +0.161 C 
ATOM     21  O   UNL     1       5.220  -3.935  -1.923  0.00  0.00    -0.380 OA
ATOM     22  C   UNL     1       4.774  -4.562  -0.718  0.00  0.00    +0.161 C 
ATOM     23  C   UNL     1       3.286  -4.268  -0.511  0.00  0.00    +0.042 C 
ENDBRANCH  17  18
ENDBRANCH   5  17
TORSDOF 4
