REMARK  Name = ZINC20581907
REMARK  13 active torsions:
REMARK  status: ('A' for Active; 'I' for Inactive)
REMARK    1  A    between atoms: C_1  and  C_2
REMARK    2  A    between atoms: C_2  and  C_3
REMARK    3  A    between atoms: C_3  and  C_4
REMARK    4  A    between atoms: C_5  and  C_26
REMARK    5  A    between atoms: C_14  and  N_22
REMARK    6  A    between atoms: C_15  and  C_16
REMARK    7  A    between atoms: C_16  and  O_18
REMARK    8  A    between atoms: O_18  and  C_19
REMARK    9  A    between atoms: C_19  and  C_20
REMARK   10  A    between atoms: C_19  and  C_21
REMARK   11  A    between atoms: C_26  and  O_28
REMARK   12  A    between atoms: O_28  and  C_29
REMARK   13  A    between atoms: C_29  and  C_30
REMARK                            x       y       z     vdW  Elec       q    Type
REMARK                         _______ _______ _______ _____ _____    ______ ____
ROOT
ATOM      1  C   UNL     1       4.203  -0.572   1.828  0.00  0.00    +0.121 C 
ATOM      2  C   UNL     1       2.999   0.016   1.921  0.00  0.00    +0.100 C 
ATOM      3  C   UNL     1       2.479   0.110   0.502  0.00  0.00    +0.164 C 
ATOM      4  C   UNL     1       1.216  -0.689   0.359  0.00  0.00    -0.000 A 
ATOM      5  C   UNL     1       1.277  -2.071   0.352  0.00  0.00    +0.007 A 
ATOM      6  C   UNL     1       0.121  -2.818   0.228  0.00  0.00    +0.000 A 
ATOM      7  C   UNL     1      -1.104  -2.188   0.108  0.00  0.00    +0.002 A 
ATOM      8  C   UNL     1      -1.173  -0.809   0.113  0.00  0.00    +0.023 A 
ATOM      9  C   UNL     1      -0.013  -0.056   0.237  0.00  0.00    +0.037 A 
ATOM     10  N   UNL     1      -0.089   1.340   0.239  0.00  0.00    -0.302 N 
ATOM     11  C   UNL     1       1.030   2.093   0.001  0.00  0.00    +0.097 C 
ATOM     12  C   UNL     1       2.283   1.542   0.112  0.00  0.00    +0.098 C 
ATOM     13  C   UNL     1       3.588  -0.514  -0.318  0.00  0.00    +0.332 C 
ATOM     14  O   UNL     1       3.615  -0.660  -1.517  0.00  0.00    -0.249 OA
ATOM     15  O   UNL     1       4.536  -0.871   0.566  0.00  0.00    -0.429 OA
ATOM     16  H   UNL     1      -1.050   1.838   0.431  0.00  0.00    +0.153 HD
ENDROOT
BRANCH  11  17
ATOM     17  N   UNL     1       0.898   3.411  -0.352  0.00  0.00    -0.346 N 
ATOM     18  H   UNL     1       1.793   4.021  -0.545  0.00  0.00    +0.143 HD
ATOM     19  H   UNL     1      -0.102   3.858  -0.443  0.00  0.00    +0.143 HD
ENDBRANCH  11  17
BRANCH  12  20
ATOM     20  C   UNL     1       3.404   2.339  -0.146  0.00  0.00    +0.340 C 
ATOM     21  O   UNL     1       3.262   3.470  -0.576  0.00  0.00    -0.245 OA
BRANCH  20  22
ATOM     22  O   UNL     1       4.644   1.854   0.082  0.00  0.00    -0.459 OA
BRANCH  22  23
ATOM     23  C   UNL     1       5.743   2.722  -0.203  0.00  0.00    +0.171 C 
ATOM     24  C   UNL     1       6.908   2.395   0.733  0.00  0.00    +0.052 C 
ATOM     25  C   UNL     1       6.185   2.525  -1.655  0.00  0.00    +0.052 C 
ENDBRANCH  22  23
ENDBRANCH  20  22
ENDBRANCH  12  20
BRANCH   2  26
ATOM     26  C   UNL     1       2.351   0.458   3.101  0.00  0.00    +0.340 C 
ATOM     27  O   UNL     1       2.892   0.317   4.182  0.00  0.00    -0.245 OA
BRANCH  26  28
ATOM     28  O   UNL     1       1.133   1.035   3.027  0.00  0.00    -0.462 OA
BRANCH  28  29
ATOM     29  C   UNL     1       0.539   1.457   4.256  0.00  0.00    +0.229 C 
ATOM     30  C   UNL     1      -0.828   2.083   3.973  0.00  0.00    +0.048 C 
ENDBRANCH  28  29
ENDBRANCH  26  28
ENDBRANCH   2  26
BRANCH   1  31
ATOM     31  C   UNL     1       5.084  -0.864   3.015  0.00  0.00    +0.075 C 
BRANCH  31  33
ATOM     32  C   UNL     1       5.745  -2.598   4.688  0.00  0.00    +0.004 C 
ATOM     33  C   UNL     1       4.851  -2.302   3.483  0.00  0.00    +0.004 C 
ENDBRANCH  31  33
ENDBRANCH   1  31
TORSDOF 9
