REMARK  Name = ZINC40779733
REMARK  3 active torsions:
REMARK  status: ('A' for Active; 'I' for Inactive)
REMARK    1  A    between atoms: C_6  and  N_7
REMARK    2  A    between atoms: C_9  and  N_22
REMARK    3  A    between atoms: C_10  and  N_14
REMARK                            x       y       z     vdW  Elec       q    Type
REMARK                         _______ _______ _______ _____ _____    ______ ____
ROOT
ATOM      1  N   UNL     1      -1.201  -0.722   0.032  0.00  0.00    -0.298 N 
ATOM      2  C   UNL     1      -1.183  -2.107  -0.085  0.00  0.00    +0.149 A 
ATOM      3  C   UNL     1      -2.376  -2.825  -0.195  0.00  0.00    +0.106 A 
ATOM      4  C   UNL     1      -2.300  -4.214  -0.310  0.00  0.00    +0.150 A 
ATOM      5  N   UNL     1      -1.104  -4.797  -0.310  0.00  0.00    -0.219 NA
ATOM      6  C   UNL     1      -0.002  -4.082  -0.204  0.00  0.00    +0.225 A 
ATOM      7  N   UNL     1      -0.028  -2.769  -0.099  0.00  0.00    -0.219 NA
ATOM      8  H   UNL     1      -2.046  -0.253   0.116  0.00  0.00    +0.154 HD
ENDROOT
BRANCH   4   9
ATOM      9  N   UNL     1      -3.458  -4.977  -0.422  0.00  0.00    -0.283 N 
ATOM     10  C   UNL     1      -3.378  -6.366  -0.427  0.00  0.00    +0.124 A 
ATOM     11  C   UNL     1      -4.545  -7.124  -0.427  0.00  0.00    +0.045 A 
ATOM     12  C   UNL     1      -4.451  -8.504  -0.432  0.00  0.00    +0.020 A 
ATOM     13  C   UNL     1      -3.188  -9.082  -0.437  0.00  0.00    +0.036 A 
ATOM     14  C   UNL     1      -2.072  -8.269  -0.436  0.00  0.00    +0.128 A 
ATOM     15  N   UNL     1      -2.192  -6.955  -0.437  0.00  0.00    -0.239 NA
ATOM     16 BR   UNL     1      -2.999 -10.964  -0.443  0.00  0.00    -0.049 Br
ATOM     17  H   UNL     1      -4.321  -4.541  -0.497  0.00  0.00    +0.155 HD
ENDBRANCH   4   9
BRANCH   1  23
ATOM     18  C   UNL     1       1.080  -0.460  -0.717  0.00  0.00    +0.024 A 
ATOM     19  C   UNL     1       2.264   0.251  -0.719  0.00  0.00    +0.016 A 
ATOM     20  C   UNL     1       2.374   1.416   0.019  0.00  0.00    +0.013 A 
ATOM     21  C   UNL     1       1.300   1.872   0.761  0.00  0.00    +0.016 A 
ATOM     22  C   UNL     1       0.113   1.165   0.768  0.00  0.00    +0.024 A 
ATOM     23  C   UNL     1      -0.001  -0.004   0.028  0.00  0.00    +0.032 A 
ATOM     24  I   UNL     1       4.172   2.491   0.012  0.00  0.00    -0.044 I 
ENDBRANCH   1  23
BRANCH   3  25
ATOM     25  N   UNL     1      -3.616  -2.168  -0.190  0.00  0.00    -0.353 N 
ATOM     26  H   UNL     1      -3.652  -1.202  -0.110  0.00  0.00    +0.143 HD
ATOM     27  H   UNL     1      -4.436  -2.679  -0.268  0.00  0.00    +0.143 HD
ENDBRANCH   3  25
TORSDOF 3
