REMARK  Name = ZINC62136219
REMARK  2 active torsions:
REMARK  status: ('A' for Active; 'I' for Inactive)
REMARK    1  A    between atoms: C_5  and  C_8
REMARK    2  A    between atoms: C_16  and  C_19
REMARK                            x       y       z     vdW  Elec       q    Type
REMARK                         _______ _______ _______ _____ _____    ______ ____
ROOT
ATOM      1  C   UNL     1       0.281   1.606  -0.163  0.00  0.00    +0.004 C 
ATOM      2  C   UNL     1       1.737   2.022   0.062  0.00  0.00    +0.019 C 
ATOM      3  C   UNL     1       2.237   1.423   1.380  0.00  0.00    +0.110 C 
ATOM      4  N   UNL     1       2.023  -0.030   1.350  0.00  0.00    -0.274 N 
ATOM      5  C   UNL     1       0.678  -0.540   1.052  0.00  0.00    +0.163 C 
ATOM      6  C   UNL     1       0.195   0.082  -0.262  0.00  0.00    +0.032 C 
ATOM      7  C   UNL     1       3.042  -0.880   1.590  0.00  0.00    +0.305 C 
ATOM      8  O   UNL     1       2.818  -2.059   1.780  0.00  0.00    -0.252 OA
ATOM      9  N   UNL     1       4.309  -0.421   1.620  0.00  0.00    -0.285 N 
ATOM     10  C   UNL     1       4.710   0.993   1.575  0.00  0.00    +0.110 C 
ATOM     11  C   UNL     1       6.250   1.035   1.661  0.00  0.00    +0.035 C 
ATOM     12  C   UNL     1       6.599  -0.326   2.320  0.00  0.00    +0.121 C 
ATOM     13  C   UNL     1       5.522  -1.254   1.709  0.00  0.00    +0.124 C 
ENDROOT
BRANCH   5  14
ATOM     14  C   UNL     1       0.725  -2.041   0.918  0.00  0.00    +0.231 C 
ATOM     15  O   UNL     1       1.451  -2.553   0.093  0.00  0.00    -0.274 OA
ATOM     16  N   UNL     1      -0.042  -2.812   1.713  0.00  0.00    -0.328 N 
ATOM     17  H   UNL     1      -0.623  -2.402   2.373  0.00  0.00    +0.145 HD
ATOM     18  H   UNL     1      -0.012  -3.778   1.627  0.00  0.00    +0.145 HD
ENDBRANCH   5  14
BRANCH  12  19
ATOM     19  C   UNL     1       7.985  -0.774   1.933  0.00  0.00    +0.361 C 
ATOM     20  O   UNL     1       8.951  -0.093   2.232  0.00  0.00    -0.246 OA
ATOM     21  O   UNL     1       8.140  -1.816   1.320  0.00  0.00    -0.246 OA
ENDBRANCH  12  19
TORSDOF 2
