REMARK  Name = ZINC64319209
REMARK  7 active torsions:
REMARK  status: ('A' for Active; 'I' for Inactive)
REMARK    1  A    between atoms: C_1  and  C_2
REMARK    2  A    between atoms: C_3  and  C_28
REMARK    3  A    between atoms: C_5  and  N_22
REMARK    4  A    between atoms: C_6  and  C_7
REMARK    5  A    between atoms: N_9  and  C_10
REMARK    6  A    between atoms: C_13  and  C_16
REMARK    7  A    between atoms: C_23  and  C_25
REMARK                            x       y       z     vdW  Elec       q    Type
REMARK                         _______ _______ _______ _____ _____    ______ ____
ROOT
ATOM      1  C   UNL     1       0.028  -0.136   2.540  0.00  0.00    +0.251 C 
ATOM      2  O   UNL     1      -1.024   0.123   3.094  0.00  0.00    -0.270 OA
ATOM      3  N   UNL     1       1.197   0.172   3.136  0.00  0.00    -0.281 N 
ATOM      4  H   UNL     1       2.035  -0.094   2.727  0.00  0.00    +0.155 HD
ENDROOT
BRANCH   1  10
ATOM      5  C   UNL     1      -0.005   1.490  -0.000  0.00  0.00    +0.045 C 
ATOM      6  C   UNL     1       0.009  -0.017   0.000  0.00  0.00    -0.027 A 
ATOM      7  C   UNL     1       0.013  -0.732  -1.140  0.00  0.00    -0.008 A 
ATOM      8  S   UNL     1       0.029  -2.417  -0.567  0.00  0.00    -0.078 S 
ATOM      9  C   UNL     1       0.031  -2.165   1.092  0.00  0.00    +0.084 A 
ATOM     10  C   UNL     1       0.025  -0.784   1.225  0.00  0.00    +0.069 A 
ATOM     11  C   UNL     1       0.005  -0.228  -2.560  0.00  0.00    +0.052 C 
BRANCH   9  12
ATOM     12  N   UNL     1       0.041  -3.118   2.099  0.00  0.00    -0.279 N 
ATOM     13  C   UNL     1       0.052  -4.429   1.786  0.00  0.00    +0.221 C 
ATOM     14  O   UNL     1       0.053  -4.775   0.623  0.00  0.00    -0.275 OA
ATOM     15  H   UNL     1       0.040  -2.842   3.029  0.00  0.00    +0.155 HD
BRANCH  13  16
ATOM     16  C   UNL     1       0.064  -5.465   2.880  0.00  0.00    +0.075 C 
ATOM     17  C   UNL     1       1.335  -6.299   3.050  0.00  0.00    +0.013 C 
ATOM     18  C   UNL     1       0.076  -6.936   2.460  0.00  0.00    +0.013 C 
ENDBRANCH  13  16
ENDBRANCH   9  12
ENDBRANCH   1  10
BRANCH   3  19
ATOM     19  C   UNL     1       1.201   0.876   4.344  0.00  0.00    +0.034 A 
ATOM     20  C   UNL     1       0.202   0.649   5.283  0.00  0.00    +0.024 A 
ATOM     21  C   UNL     1       0.204   1.342   6.475  0.00  0.00    +0.012 A 
ATOM     22  C   UNL     1       1.209   2.271   6.738  0.00  0.00    +0.002 A 
ATOM     23  C   UNL     1       2.211   2.496   5.795  0.00  0.00    +0.012 A 
ATOM     24  C   UNL     1       2.208   1.797   4.607  0.00  0.00    +0.024 A 
BRANCH  22  25
ATOM     25  C   UNL     1       1.213   3.018   8.020  0.00  0.00    +0.092 A 
ATOM     26  C   UNL     1       2.160   3.984   8.413  0.00  0.00    +0.049 A 
ATOM     27  C   UNL     1       1.813   4.428   9.641  0.00  0.00    +0.105 A 
ATOM     28  N   UNL     1       0.693   3.775  10.019  0.00  0.00    -0.284 N 
ATOM     29  H   UNL     1       0.221   3.895  10.858  0.00  0.00    +0.188 HD
ATOM     30  N   UNL     1       0.329   2.900   8.988  0.00  0.00    -0.174 NA
ENDBRANCH  22  25
ENDBRANCH   3  19
TORSDOF 5
