REMARK  Name = ZINC32926640
REMARK  9 active torsions:
REMARK  status: ('A' for Active; 'I' for Inactive)
REMARK    1  A    between atoms: C_1  and  C_2
REMARK    2  A    between atoms: C_5  and  N_8
REMARK    3  A    between atoms: C_9  and  C_11
REMARK    4  A    between atoms: C_11  and  S_12
REMARK    5  A    between atoms: S_12  and  C_13
REMARK    6  A    between atoms: C_13  and  C_14
REMARK    7  A    between atoms: N_16  and  C_17
REMARK    8  A    between atoms: C_20  and  C_23
REMARK    9  A    between atoms: C_23  and  N_25
REMARK                            x       y       z     vdW  Elec       q    Type
REMARK                         _______ _______ _______ _____ _____    ______ ____
ROOT
ATOM      1  C   UNL     1       1.321   1.754  -0.564  0.00  0.00    +0.227 C 
ATOM      2  O   UNL     1       1.393   2.947  -0.769  0.00  0.00    -0.275 OA
ATOM      3  N   UNL     1       0.125   1.135  -0.596  0.00  0.00    -0.285 N 
ATOM      4  H   UNL     1       0.067   0.043  -0.480  0.00  0.00    +0.155 HD
ENDROOT
BRANCH   3   5
ATOM      5  C   UNL     1      -1.041   1.879  -0.777  0.00  0.00    +0.033 A 
ATOM      6  C   UNL     1      -1.030   2.994  -1.609  0.00  0.00    +0.024 A 
ATOM      7  C   UNL     1      -2.180   3.729  -1.794  0.00  0.00    +0.012 A 
ATOM      8  C   UNL     1      -3.357   3.359  -1.136  0.00  0.00    +0.003 A 
ATOM      9  C   UNL     1      -3.362   2.242  -0.296  0.00  0.00    +0.012 A 
ATOM     10  C   UNL     1      -2.210   1.509  -0.120  0.00  0.00    +0.024 A 
BRANCH   8  11
ATOM     11  C   UNL     1      -4.588   4.146  -1.327  0.00  0.00    +0.077 C 
ATOM     12  S   UNL     1      -5.684   4.350  -0.027  0.00  0.00    -0.035 S 
BRANCH  11  13
ATOM     13  N   UNL     1      -4.852   4.705  -2.525  0.00  0.00    -0.352 N 
ATOM     14  H   UNL     1      -5.771   5.292  -2.667  0.00  0.00    +0.143 HD
ATOM     15  H   UNL     1      -4.148   4.574  -3.360  0.00  0.00    +0.143 HD
ENDBRANCH  11  13
ENDBRANCH   8  11
ENDBRANCH   3   5
BRANCH   1  16
ATOM     16  C   UNL     1       2.571   0.964  -0.272  0.00  0.00    +0.165 C 
BRANCH  16  17
ATOM     17  S   UNL     1       4.007   2.071  -0.299  0.00  0.00    -0.142 S 
BRANCH  17  18
ATOM     18  C   UNL     1       5.410   0.980   0.065  0.00  0.00    +0.165 C 
BRANCH  18  20
ATOM     19  N   UNL     1       7.862   1.180   0.324  0.00  0.00    -0.285 N 
ATOM     20  C   UNL     1       6.684   1.785   0.074  0.00  0.00    +0.227 C 
ATOM     21  O   UNL     1       6.649   2.978  -0.144  0.00  0.00    -0.275 OA
ATOM     22  H   UNL     1       7.905   0.087   0.438  0.00  0.00    +0.155 HD
BRANCH  19  27
ATOM     23  C   UNL     1      12.597   4.270   0.782  0.00  0.00    +0.044 C 
ATOM     24  C   UNL     1      11.339   3.449   0.660  0.00  0.00    -0.050 A 
ATOM     25  C   UNL     1      10.131   3.970   1.087  0.00  0.00    +0.005 A 
ATOM     26  C   UNL     1       8.977   3.221   0.976  0.00  0.00    +0.023 A 
ATOM     27  C   UNL     1       9.030   1.942   0.437  0.00  0.00    +0.033 A 
ATOM     28  C   UNL     1      10.245   1.420   0.015  0.00  0.00    +0.023 A 
ATOM     29  C   UNL     1      11.395   2.177   0.122  0.00  0.00    +0.005 A 
ENDBRANCH  19  27
ENDBRANCH  18  20
ENDBRANCH  17  18
ENDBRANCH  16  17
ENDBRANCH   1  16
TORSDOF 8
