REMARK  Name = ZINC13750161
REMARK  8 active torsions:
REMARK  status: ('A' for Active; 'I' for Inactive)
REMARK    1  A    between atoms: C_1  and  C_2
REMARK    2  A    between atoms: C_2  and  O_3
REMARK    3  A    between atoms: O_3  and  C_4
REMARK    4  A    between atoms: C_7  and  C_29
REMARK    5  A    between atoms: C_9  and  N_10
REMARK    6  A    between atoms: C_26  and  C_27
REMARK    7  A    between atoms: C_26  and  C_28
REMARK    8  A    between atoms: C_29  and  C_31
REMARK                            x       y       z     vdW  Elec       q    Type
REMARK                         _______ _______ _______ _____ _____    ______ ____
ROOT
ATOM      1  N   UNL     1       1.966  -1.455  -3.418  0.00  0.00    -0.206 N 
ATOM      2  C   UNL     1       3.254  -0.976  -3.373  0.00  0.00    +0.231 C 
ATOM      3  O   UNL     1       4.184  -1.413  -2.729  0.00  0.00    -0.274 OA
ATOM      4  C   UNL     1       3.252   0.209  -4.299  0.00  0.00    +0.099 C 
ATOM      5  C   UNL     1       4.418   0.520  -5.237  0.00  0.00    +0.050 C 
ATOM      6  C   UNL     1       4.803  -0.616  -6.156  0.00  0.00    -0.022 C 
ATOM      7  C   UNL     1       3.867  -0.835  -7.066  0.00  0.00    -0.022 C 
ATOM      8  C   UNL     1       2.685   0.112  -6.678  0.00  0.00    +0.050 C 
ATOM      9  C   UNL     1       2.325  -0.511  -5.364  0.00  0.00    +0.099 C 
ATOM     10  C   UNL     1       1.266  -0.988  -4.519  0.00  0.00    +0.231 C 
ATOM     11  O   UNL     1       0.070  -0.981  -4.718  0.00  0.00    -0.274 OA
ATOM     12  C   UNL     1       3.571   1.356  -6.262  0.00  0.00    -0.056 C 
ATOM     13  C   UNL     1       3.601   2.612  -6.632  0.00  0.00    -0.075 C 
ATOM     14  C   UNL     1       4.610   3.553  -6.025  0.00  0.00    +0.039 C 
ATOM     15  C   UNL     1       2.627   3.117  -7.666  0.00  0.00    +0.039 C 
ENDROOT
BRANCH   1  21
ATOM     16  C   UNL     1       0.772  -1.808  -1.338  0.00  0.00    +0.142 A 
ATOM     17  C   UNL     1       0.228  -2.666  -0.390  0.00  0.00    +0.048 A 
ATOM     18  C   UNL     1       0.333  -4.029  -0.548  0.00  0.00    +0.015 A 
ATOM     19  C   UNL     1       0.990  -4.556  -1.667  0.00  0.00    +0.019 A 
ATOM     20  C   UNL     1       1.537  -3.692  -2.623  0.00  0.00    +0.039 A 
ATOM     21  C   UNL     1       1.423  -2.325  -2.460  0.00  0.00    +0.086 A 
BRANCH  19  22
ATOM     22  C   UNL     1       1.104  -6.010  -1.838  0.00  0.00    +0.160 C 
ATOM     23  O   UNL     1       0.719  -6.755  -0.962  0.00  0.00    -0.292 OA
ATOM     24  C   UNL     1       1.699  -6.576  -3.101  0.00  0.00    +0.091 C 
ENDBRANCH  19  22
BRANCH  16  25
ATOM     25  O   UNL     1       0.664  -0.465  -1.177  0.00  0.00    -0.490 OA
BRANCH  25  27
ATOM     26  C   UNL     1      -0.036   1.525   0.002  0.00  0.00    +0.048 C 
ATOM     27  C   UNL     1      -0.015  -0.004  -0.007  0.00  0.00    +0.226 C 
ENDBRANCH  25  27
ENDBRANCH  16  25
ENDBRANCH   1  21
TORSDOF 4
