REMARK  Name = ZINC63469879
REMARK  8 active torsions:
REMARK  status: ('A' for Active; 'I' for Inactive)
REMARK    1  A    between atoms: C_1  and  C_2
REMARK    2  A    between atoms: C_4  and  C_28
REMARK    3  A    between atoms: C_6  and  N_8
REMARK    4  A    between atoms: C_9  and  C_11
REMARK    5  A    between atoms: C_11  and  N_12
REMARK    6  A    between atoms: N_12  and  C_13
REMARK    7  A    between atoms: C_16  and  C_19
REMARK    8  A    between atoms: N_21  and  C_22
REMARK                            x       y       z     vdW  Elec       q    Type
REMARK                         _______ _______ _______ _____ _____    ______ ____
ROOT
ATOM      1  C   UNL     1       0.496  -2.434   7.273  0.00  0.00    +0.028 A 
ATOM      2  C   UNL     1       0.543  -3.805   7.510  0.00  0.00    +0.023 A 
ATOM      3  C   UNL     1       0.668  -4.279   8.795  0.00  0.00    +0.015 A 
ATOM      4  C   UNL     1       0.748  -3.382   9.865  0.00  0.00    +0.037 A 
ATOM      5  C   UNL     1       0.701  -2.006   9.624  0.00  0.00    +0.015 A 
ATOM      6  C   UNL     1       0.581  -1.538   8.335  0.00  0.00    +0.023 A 
ENDROOT
BRANCH   4   7
ATOM      7  C   UNL     1       0.882  -3.887  11.244  0.00  0.00    +0.244 C 
ATOM      8  O   UNL     1       0.923  -5.085  11.453  0.00  0.00    -0.270 OA
ATOM      9  N   UNL     1       0.959  -3.021  12.274  0.00  0.00    -0.308 N 
ATOM     10  H   UNL     1       0.926  -2.066  12.108  0.00  0.00    +0.149 HD
BRANCH   9  11
ATOM     11  C   UNL     1       1.092  -3.522  13.644  0.00  0.00    +0.073 C 
ATOM     12  C   UNL     1      -0.295  -3.841  14.207  0.00  0.00    +0.022 C 
ATOM     13  C   UNL     1      -0.156  -4.365  15.638  0.00  0.00    +0.002 C 
ATOM     14  C   UNL     1       0.515  -3.300  16.508  0.00  0.00    +0.000 C 
ATOM     15  C   UNL     1       1.901  -2.981  15.945  0.00  0.00    +0.002 C 
ATOM     16  C   UNL     1       1.763  -2.458  14.514  0.00  0.00    +0.022 C 
ENDBRANCH   9  11
ENDBRANCH   4   7
BRANCH   1  17
ATOM     17  N   UNL     1       0.370  -1.959   5.973  0.00  0.00    -0.335 N 
ATOM     18  H   UNL     1       0.341  -1.004   5.806  0.00  0.00    +0.147 HD
BRANCH  17  19
ATOM     19  C   UNL     1       0.280  -2.900   4.854  0.00  0.00    +0.198 C 
BRANCH  19  21
ATOM     20  N   UNL     1       0.052  -2.797   2.393  0.00  0.00    -0.284 N 
ATOM     21  C   UNL     1       0.150  -2.134   3.562  0.00  0.00    +0.234 C 
ATOM     22  O   UNL     1       0.134  -0.922   3.575  0.00  0.00    -0.274 OA
ATOM     23  H   UNL     1      -0.012  -3.765   2.388  0.00  0.00    +0.155 HD
BRANCH  20  29
ATOM     24  C   UNL     1      -1.512  -2.365  -2.248  0.00  0.00    +0.044 C 
ATOM     25  C   UNL     1      -0.707  -1.857  -1.080  0.00  0.00    -0.048 A 
ATOM     26  C   UNL     1       0.025  -0.690  -1.201  0.00  0.00    +0.006 A 
ATOM     27  C   UNL     1       0.765  -0.220  -0.131  0.00  0.00    -0.048 A 
ATOM     28  C   UNL     1       0.776  -0.917   1.061  0.00  0.00    +0.026 A 
ATOM     29  C   UNL     1       0.043  -2.089   1.186  0.00  0.00    +0.034 A 
ATOM     30  C   UNL     1      -0.704  -2.555   0.112  0.00  0.00    +0.026 A 
ATOM     31  C   UNL     1       1.561   1.052  -0.268  0.00  0.00    +0.044 C 
ENDBRANCH  20  29
ENDBRANCH  19  21
ENDBRANCH  17  19
ENDBRANCH   1  17
TORSDOF 6
