REMARK  Name = ZINC53997392
REMARK  12 active torsions:
REMARK  status: ('A' for Active; 'I' for Inactive)
REMARK    1  A    between atoms: C_1  and  C_2
REMARK    2  A    between atoms: C_2  and  C_3
REMARK    3  A    between atoms: C_3  and  C_5
REMARK    4  A    between atoms: C_3  and  C_6
REMARK    5  A    between atoms: C_6  and  C_8
REMARK    6  A    between atoms: C_6  and  N_28
REMARK    7  A    between atoms: N_10  and  C_11
REMARK    8  A    between atoms: C_15  and  C_17
REMARK    9  A    between atoms: C_17  and  O_18
REMARK   10  A    between atoms: O_18  and  C_19
REMARK   11  A    between atoms: C_22  and  C_25
REMARK   12  A    between atoms: C_25  and  C_26
REMARK                            x       y       z     vdW  Elec       q    Type
REMARK                         _______ _______ _______ _____ _____    ______ ____
ROOT
ATOM      1  C   UNL     1       3.290  -2.990  -3.783  0.00  0.00    +0.034 A 
ATOM      2  C   UNL     1       2.519  -3.214  -4.916  0.00  0.00    +0.023 A 
ATOM      3  C   UNL     1       3.125  -3.579  -6.102  0.00  0.00    +0.002 A 
ATOM      4  C   UNL     1       4.500  -3.722  -6.162  0.00  0.00    +0.007 A 
ATOM      5  C   UNL     1       5.271  -3.500  -5.036  0.00  0.00    -0.009 A 
ATOM      6  C   UNL     1       4.670  -3.128  -3.848  0.00  0.00    +0.030 A 
ENDROOT
BRANCH   1   9
ATOM      7  C   UNL     1       3.296  -1.759  -1.747  0.00  0.00    +0.238 C 
ATOM      8  O   UNL     1       4.417  -1.369  -2.000  0.00  0.00    -0.273 OA
ATOM      9  N   UNL     1       2.679  -2.620  -2.580  0.00  0.00    -0.284 N 
ATOM     10  H   UNL     1       1.811  -2.983  -2.346  0.00  0.00    +0.155 HD
BRANCH   7  11
ATOM     11  C   UNL     1       2.595  -1.281  -0.502  0.00  0.00    +0.163 C 
BRANCH  11  12
ATOM     12  N   UNL     1       3.222  -0.043  -0.033  0.00  0.00    -0.288 N 
ATOM     13  C   UNL     1       4.527  -0.034   0.305  0.00  0.00    +0.298 C 
ATOM     14  O   UNL     1       5.183  -1.054   0.220  0.00  0.00    -0.253 OA
ATOM     15  N   UNL     1       5.103   1.105   0.737  0.00  0.00    -0.313 N 
ATOM     16  H   UNL     1       2.698   0.771   0.035  0.00  0.00    +0.151 HD
ATOM     17  H   UNL     1       4.580   1.919   0.804  0.00  0.00    +0.146 HD
ATOM     18  H   UNL     1       6.043   1.111   0.980  0.00  0.00    +0.146 HD
ENDBRANCH  11  12
BRANCH  11  19
ATOM     19  C   UNL     1       2.702  -2.351   0.586  0.00  0.00    +0.015 C 
ATOM     20  C   UNL     1       2.047  -3.644   0.096  0.00  0.00    +0.010 C 
BRANCH  19  22
ATOM     21  C   UNL     1       2.202  -2.879   2.977  0.00  0.00    +0.004 C 
ATOM     22  C   UNL     1       1.989  -1.865   1.850  0.00  0.00    +0.002 C 
ENDBRANCH  19  22
ENDBRANCH  11  19
ENDBRANCH   7  11
ENDBRANCH   1   9
BRANCH   5  23
ATOM     23  C   UNL     1       6.768  -3.657  -5.105  0.00  0.00    +0.264 C 
BRANCH  23  24
ATOM     24  O   UNL     1       7.362  -2.408  -5.466  0.00  0.00    -0.487 OA
BRANCH  24  25
ATOM     25  C   UNL     1       8.716  -2.377  -5.573  0.00  0.00    +0.121 A 
ATOM     26  C   UNL     1       9.458  -3.526  -5.342  0.00  0.00    +0.046 A 
ATOM     27  C   UNL     1      10.834  -3.492  -5.452  0.00  0.00    +0.008 A 
ATOM     28  C   UNL     1      11.473  -2.314  -5.792  0.00  0.00    -0.033 A 
ATOM     29  C   UNL     1      10.736  -1.167  -6.023  0.00  0.00    +0.008 A 
ATOM     30  C   UNL     1       9.359  -1.197  -5.920  0.00  0.00    +0.046 A 
BRANCH  28  31
ATOM     31  C   UNL     1      12.975  -2.279  -5.911  0.00  0.00    +0.153 C 
BRANCH  31  32
ATOM     32  C   UNL     1      13.365  -2.602  -7.293  0.00  0.00    +0.067 C 
ATOM     33  N   UNL     1      13.666  -2.852  -8.359  0.00  0.00    -0.196 NA
ENDBRANCH  31  32
ENDBRANCH  28  31
ENDBRANCH  24  25
ENDBRANCH  23  24
ENDBRANCH   5  23
TORSDOF 10
