REMARK  Name = ZINC13607541
REMARK  10 active torsions:
REMARK  status: ('A' for Active; 'I' for Inactive)
REMARK    1  A    between atoms: C_1  and  C_2
REMARK    2  A    between atoms: C_2  and  C_3
REMARK    3  A    between atoms: C_3  and  C_4
REMARK    4  A    between atoms: C_11  and  O_16
REMARK    5  A    between atoms: C_13  and  C_15
REMARK    6  A    between atoms: O_16  and  C_17
REMARK    7  A    between atoms: C_17  and  C_18
REMARK    8  A    between atoms: N_20  and  C_21
REMARK    9  A    between atoms: C_24  and  S_27
REMARK   10  A    between atoms: S_27  and  N_30
REMARK                            x       y       z     vdW  Elec       q    Type
REMARK                         _______ _______ _______ _____ _____    ______ ____
ROOT
ATOM      1  C   UNL     1      -2.889  -0.553   2.442  0.00  0.00    +0.324 C 
ENDROOT
BRANCH   1   2
ATOM      2  C   UNL     1      -2.908   0.951   2.336  0.00  0.00    +0.255 C 
ATOM      3  O   UNL     1      -2.104   1.519   1.628  0.00  0.00    -0.272 OA
ATOM      4  N   UNL     1      -3.819   1.663   3.028  0.00  0.00    -0.283 N 
ATOM      5  H   UNL     1      -4.422   1.214   3.641  0.00  0.00    +0.155 HD
BRANCH   4   6
ATOM      6  C   UNL     1      -3.895   3.050   2.862  0.00  0.00    +0.034 A 
ATOM      7  C   UNL     1      -5.131   3.684   2.854  0.00  0.00    +0.025 A 
ATOM      8  C   UNL     1      -5.203   5.053   2.690  0.00  0.00    +0.030 A 
ATOM      9  C   UNL     1      -4.045   5.794   2.534  0.00  0.00    +0.105 A 
ATOM     10  C   UNL     1      -2.813   5.166   2.540  0.00  0.00    +0.030 A 
ATOM     11  C   UNL     1      -2.734   3.797   2.710  0.00  0.00    +0.025 A 
BRANCH   9  12
ATOM     12  S   UNL     1      -4.141   7.540   2.325  0.00  0.00    +0.056 S 
ATOM     13  O   UNL     1      -2.952   7.935   1.653  0.00  0.00    -0.153 OA
ATOM     14  O   UNL     1      -5.435   7.817   1.808  0.00  0.00    -0.153 OA
BRANCH  12  15
ATOM     15  N   UNL     1      -4.079   8.218   3.834  0.00  0.00    -0.204 NA
ATOM     16  H   UNL     1      -3.691   9.100   3.955  0.00  0.00    +0.144 HD
ATOM     17  H   UNL     1      -4.429   7.734   4.598  0.00  0.00    +0.144 HD
ENDBRANCH  12  15
ENDBRANCH   9  12
ENDBRANCH   4   6
ENDBRANCH   1   2
BRANCH   1  18
ATOM     18  O   UNL     1      -1.827  -1.073   1.639  0.00  0.00    -0.482 OA
BRANCH  18  26
ATOM     19  C   UNL     1       0.152  -2.209  -0.058  0.00  0.00    -0.026 A 
ATOM     20  C   UNL     1       1.078  -2.846  -0.821  0.00  0.00    +0.096 A 
ATOM     21  C   UNL     1       1.258  -4.239  -0.688  0.00  0.00    +0.337 A 
ATOM     22  O   UNL     1       2.092  -4.798  -1.378  0.00  0.00    -0.245 OA
ATOM     23  O   UNL     1       0.535  -4.963   0.180  0.00  0.00    -0.422 OA
ATOM     24  C   UNL     1      -0.402  -4.391   0.967  0.00  0.00    +0.143 A 
ATOM     25  C   UNL     1      -0.629  -3.006   0.890  0.00  0.00    +0.062 A 
ATOM     26  C   UNL     1      -1.598  -2.409   1.711  0.00  0.00    +0.132 A 
ATOM     27  C   UNL     1      -2.318  -3.193   2.595  0.00  0.00    +0.050 A 
ATOM     28  C   UNL     1      -2.084  -4.556   2.669  0.00  0.00    -0.043 A 
ATOM     29  C   UNL     1      -1.141  -5.156   1.859  0.00  0.00    +0.050 A 
ATOM     30  C   UNL     1      -2.876  -5.396   3.638  0.00  0.00    +0.044 C 
BRANCH  19  31
ATOM     31  C   UNL     1      -0.061  -0.723  -0.180  0.00  0.00    +0.036 C 
BRANCH  31  33
ATOM     32  C   UNL     1      -1.367   1.057  -1.350  0.00  0.00    +0.004 C 
ATOM     33  C   UNL     1      -1.226  -0.451  -1.135  0.00  0.00    +0.001 C 
ENDBRANCH  31  33
ENDBRANCH  19  31
ENDBRANCH  18  26
ENDBRANCH   1  18
TORSDOF 8
