REMARK  12 active torsions:
REMARK  status: ('A' for Active; 'I' for Inactive)
REMARK    1  A    between atoms: C1_1  and  O11_12 
REMARK    2  A    between atoms: C2_2  and  O13_14 
REMARK    3  A    between atoms: C10_11  and  O14_15 
REMARK    4  A    between atoms: O13_14  and  C23_25 
REMARK    5  A    between atoms: O14_15  and  C15_16 
REMARK    6  A    between atoms: C18_19  and  N22_23 
REMARK       I    between atoms: N22_23  and  C32_34 
REMARK    7  A    between atoms: C23_25  and  C24_26 
REMARK    8  A    between atoms: C24_26  and  C25_27 
REMARK    9  A    between atoms: C25_27  and  N26_28 
REMARK   10  A    between atoms: C32_34  and  C33_35 
REMARK   11  A    between atoms: C33_35  and  C34_36 
REMARK       I    between atoms: C34_36  and  N35_37 
REMARK   12  A    between atoms: N35_37  and  C38_41 
ROOT
HETATM    1  C15 88Z A   1       1.282   3.834  30.326  1.00 20.42     0.114 A 
HETATM    2  C16 88Z A   1       1.658   3.771  28.999  1.00 16.92     0.043 A 
HETATM    3  C17 88Z A   1       2.992   3.871  28.673  1.00 18.89     0.032 A 
HETATM    4  C18 88Z A   1       3.986   4.049  29.649  1.00 19.71     0.037 A 
HETATM    5  C19 88Z A   1       3.653   4.091  30.998  1.00 20.34     0.074 A 
HETATM    6  C20 88Z A   1       2.308   4.002  31.361  1.00 23.00     0.152 A 
HETATM    7  F21 88Z A   1       1.857   4.067  32.625  1.00 24.23    -0.203 F 
ENDROOT
BRANCH   1   8
HETATM    8  O14 88Z A   1      -0.010   3.751  30.761  1.00 19.07    -0.307 OA
BRANCH   8   9
HETATM    9  C10 88Z A   1      -0.822   4.860  30.612  1.00 16.92     0.090 A 
HETATM   10  C5  88Z A   1      -2.250   4.613  30.582  1.00 16.19     0.027 A 
HETATM   11  C4  88Z A   1      -3.131   5.795  30.381  1.00 14.79     0.048 A 
HETATM   12  C6  88Z A   1      -2.738   3.330  30.741  1.00 16.37     0.056 A 
HETATM   13  C3  88Z A   1      -4.507   5.601  30.367  1.00 15.80     0.070 A 
HETATM   14  N7  88Z A   1      -2.588   7.019  30.229  1.00 17.15    -0.365 N 
HETATM   15  C2  88Z A   1      -5.010   4.301  30.513  1.00 18.47     0.104 A 
HETATM   16  C1  88Z A   1      -4.127   3.138  30.704  1.00 19.14     0.102 A 
HETATM   17  C8  88Z A   1      -1.258   7.250  30.217  1.00 16.83     0.091 A 
ATOM     18  H7  88Z A   1      -3.216   7.815  30.117  1.00  0.00     0.165 HD
HETATM   19  C9  88Z A   1      -0.354   6.181  30.453  1.00 17.41     0.055 A 
BRANCH  15  20
HETATM   20  O13 88Z A   1      -6.328   3.979  30.502  1.00 18.42    -0.348 OA
BRANCH  20  21
HETATM   21  C23 88Z A   1      -7.387   4.935  30.628  1.00 21.03     0.177 C 
BRANCH  21  22
HETATM   22  C24 88Z A   1      -8.672   4.124  30.798  1.00 22.44     0.046 C 
BRANCH  22  23
HETATM   23  C25 88Z A   1      -9.157   3.861  29.392  1.00 28.63     0.119 C 
BRANCH  23  24
HETATM   24  N26 88Z A   1     -10.338   3.026  29.318  1.00 33.59    -0.408 N 
HETATM   25  C27 88Z A   1     -10.624   2.509  27.974  1.00 36.37     0.143 C 
HETATM   26  C28 88Z A   1     -12.123   2.218  27.866  1.00 38.52     0.187 C 
HETATM   27  O29 88Z A   1     -12.434   1.397  28.982  1.00 39.12    -0.388 OA
HETATM   28  C30 88Z A   1     -12.336   2.212  30.159  1.00 39.82     0.187 C 
HETATM   29  C31 88Z A   1     -10.838   2.314  30.491  1.00 38.13     0.143 C 
ENDBRANCH  23  24
ENDBRANCH  22  23
ENDBRANCH  21  22
ENDBRANCH  20  21
ENDBRANCH  15  20
BRANCH  16  30
HETATM   30  O11 88Z A   1      -4.766   1.909  30.815  1.00 20.67    -0.353 OA
HETATM   31  C12 88Z A   1      -4.097   0.665  31.033  1.00 21.17     0.210 C 
ENDBRANCH  16  30
ENDBRANCH   8   9
ENDBRANCH   1   8
BRANCH   4  32
HETATM   32  N22 88Z A   1       5.266   4.151  29.226  1.00 20.22    -0.326 N 
HETATM   33  C32 88Z A   1       6.411   3.854  29.876  1.00 20.90     0.240 C 
HETATM   34  O36 88Z A   1       6.469   3.506  31.031  1.00 20.49    -0.272 OA
ATOM     35  H22 88Z A   1       5.384   4.504  28.276  1.00  0.00     0.169 HD
BRANCH  33  36
HETATM   36  C33 88Z A   1       7.714   3.928  29.101  1.00 20.84     0.122 A 
HETATM   37  C45 88Z A   1       8.678   2.846  29.627  1.00 21.22     0.031 A 
HETATM   38  C46 88Z A   1       8.986   4.319  29.884  1.00 20.56     0.031 A 
BRANCH  36  39
HETATM   39  C34 88Z A   1       7.644   4.176  27.577  1.00 20.23     0.240 C 
HETATM   40  O37 88Z A   1       6.580   4.587  27.098  1.00 19.27    -0.272 OA
HETATM   41  N35 88Z A   1       8.774   4.373  26.871  1.00 17.24    -0.326 N 
ATOM     42  H35 88Z A   1       9.670   4.387  27.357  1.00  0.00     0.169 HD
BRANCH  41  43
HETATM   43  C38 88Z A   1       8.745   4.555  25.510  1.00 18.52     0.034 A 
HETATM   44  C39 88Z A   1       8.172   5.706  24.934  1.00 17.15     0.032 A 
HETATM   45  C40 88Z A   1       8.118   5.905  23.548  1.00 19.70     0.044 A 
HETATM   46  C41 88Z A   1       8.712   4.909  22.735  1.00 19.38     0.116 A 
HETATM   47  C42 88Z A   1       9.293   3.769  23.298  1.00 18.79     0.044 A 
HETATM   48  F44 88Z A   1       8.723   5.043  21.391  1.00 21.15    -0.206 F 
HETATM   49  C43 88Z A   1       9.347   3.581  24.685  1.00 17.84     0.032 A 
ENDBRANCH  41  43
ENDBRANCH  36  39
ENDBRANCH  33  36
ENDBRANCH   4  32
TORSDOF 12
