REMARK  Name = ZINC05530634
REMARK  3 active torsions:
REMARK  status: ('A' for Active; 'I' for Inactive)
REMARK    1  A    between atoms: C_4  and  C_8
REMARK    2  A    between atoms: C_21  and  N_25
REMARK    3  A    between atoms: C_22  and  C_23
REMARK                            x       y       z     vdW  Elec       q    Type
REMARK                         _______ _______ _______ _____ _____    ______ ____
ROOT
ATOM      1  C   UNL     1      -0.070   5.349   0.030  0.00  0.00    +0.108 C 
ATOM      2  C   UNL     1      -0.769   5.832   1.272  0.00  0.00    +0.089 A 
ATOM      3  C   UNL     1      -0.099   5.796   2.509  0.00  0.00    +0.260 A 
ATOM      4  O   UNL     1       1.044   5.377   2.577  0.00  0.00    -0.267 OA
ATOM      5  N   UNL     1      -0.729   6.230   3.619  0.00  0.00    -0.302 N 
ATOM      6  H   UNL     1      -0.271   6.208   4.473  0.00  0.00    +0.171 HD
ATOM      7  C   UNL     1      -1.990   6.694   3.547  0.00  0.00    +0.161 A 
ATOM      8  S   UNL     1      -2.769   7.239   4.971  0.00  0.00    -0.013 S 
ATOM      9  N   UNL     1      -2.647   6.737   2.375  0.00  0.00    -0.306 N 
ATOM     10  H   UNL     1      -3.584   7.087   2.344  0.00  0.00    +0.171 HD
ATOM     11  C   UNL     1      -2.042   6.305   1.219  0.00  0.00    +0.212 A 
ATOM     12  O   UNL     1      -2.721   6.356   0.057  0.00  0.00    -0.425 OA
ATOM     13  C   UNL     1      -2.058   6.313  -1.112  0.00  0.00    +0.200 C 
ATOM     14  C   UNL     1      -0.793   5.843  -1.192  0.00  0.00    +0.098 C 
ENDROOT
BRANCH   1  18
ATOM     15  C   UNL     1      -0.013   1.076   0.008  0.00  0.00    +0.003 A 
ATOM     16  C   UNL     1      -1.219   1.750   0.017  0.00  0.00    +0.020 A 
ATOM     17  C   UNL     1      -1.238   3.134   0.031  0.00  0.00    +0.046 A 
ATOM     18  C   UNL     1      -0.050   3.842   0.023  0.00  0.00    +0.002 A 
ATOM     19  C   UNL     1       1.157   3.166   0.008  0.00  0.00    +0.046 A 
ATOM     20  C   UNL     1       1.175   1.783   0.000  0.00  0.00    +0.020 A 
ATOM     21 CL   UNL     1       2.649   4.054  -0.002  0.00  0.00    -0.083 Cl
ATOM     22 CL   UNL     1      -2.754   3.981   0.050  0.00  0.00    -0.083 Cl
ENDBRANCH   1  18
BRANCH  13  23
ATOM     23  N   UNL     1      -2.683   6.756  -2.252  0.00  0.00    -0.328 N 
ATOM     24  H   UNL     1      -3.591   7.095  -2.207  0.00  0.00    +0.145 HD
ATOM     25  H   UNL     1      -2.216   6.731  -3.102  0.00  0.00    +0.145 HD
ENDBRANCH  13  23
BRANCH  14  26
ATOM     26  C   UNL     1      -0.132   5.818  -2.463  0.00  0.00    +0.101 C 
ATOM     27  N   UNL     1       0.392   5.798  -3.470  0.00  0.00    -0.191 NA
ENDBRANCH  14  26
TORSDOF 3
