REMARK  Name = ZINC12542976
REMARK  8 active torsions:
REMARK  status: ('A' for Active; 'I' for Inactive)
REMARK    1  A    between atoms: C_1  and  C_2
REMARK    2  A    between atoms: C_4  and  C_22
REMARK    3  A    between atoms: C_5  and  C_21
REMARK    4  A    between atoms: N_6  and  C_7
REMARK    5  A    between atoms: C_8  and  C_20
REMARK    6  A    between atoms: N_9  and  C_19
REMARK    7  A    between atoms: N_10  and  C_13
REMARK    8  A    between atoms: N_28  and  C_29
REMARK                            x       y       z     vdW  Elec       q    Type
REMARK                         _______ _______ _______ _____ _____    ______ ____
ROOT
ATOM      1  C   UNL     1       0.703   3.633   1.535  0.00  0.00    +0.064 C 
ATOM      2  C   UNL     1       0.923   2.222   1.055  0.00  0.00    +0.022 A 
ATOM      3  C   UNL     1       2.116   1.605   0.957  0.00  0.00    +0.033 A 
ATOM      4  C   UNL     1       1.849   0.256   0.449  0.00  0.00    +0.020 A 
ATOM      5  C   UNL     1       0.494   0.172   0.280  0.00  0.00    +0.030 A 
ATOM      6  N   UNL     1      -0.055   1.361   0.648  0.00  0.00    -0.311 N 
ATOM      7  C   UNL     1      -0.261  -1.030  -0.226  0.00  0.00    +0.064 C 
ENDROOT
BRANCH   6   8
ATOM      8  C   UNL     1      -1.430   1.662   0.609  0.00  0.00    +0.134 A 
ATOM      9  C   UNL     1      -2.323   1.468   1.606  0.00  0.00    +0.062 A 
ATOM     10  N   UNL     1      -3.553   1.887   1.179  0.00  0.00    -0.282 N 
ATOM     11  N   UNL     1      -3.447   2.364  -0.132  0.00  0.00    -0.215 N 
ATOM     12  C   UNL     1      -2.159   2.249  -0.516  0.00  0.00    +0.296 A 
ATOM     13  O   UNL     1      -1.692   2.570  -1.595  0.00  0.00    -0.264 OA
ATOM     14  C   UNL     1      -4.786   1.842   1.969  0.00  0.00    +0.171 C 
ATOM     15  C   UNL     1      -2.014   0.887   2.962  0.00  0.00    +0.067 C 
BRANCH  11  16
ATOM     16  C   UNL     1      -4.492   2.877  -0.907  0.00  0.00    +0.067 A 
ATOM     17  C   UNL     1      -5.343   3.839  -0.378  0.00  0.00    +0.028 A 
ATOM     18  C   UNL     1      -6.371   4.348  -1.147  0.00  0.00    +0.002 A 
ATOM     19  C   UNL     1      -6.561   3.891  -2.439  0.00  0.00    +0.000 A 
ATOM     20  C   UNL     1      -5.719   2.929  -2.966  0.00  0.00    +0.002 A 
ATOM     21  C   UNL     1      -4.686   2.421  -2.204  0.00  0.00    +0.028 A 
ENDBRANCH  11  16
ENDBRANCH   6   8
BRANCH   4  22
ATOM     22  C   UNL     1       2.840  -0.797   0.176  0.00  0.00    +0.083 C 
ATOM     23  N   UNL     1       2.427  -1.939  -0.267  0.00  0.00    -0.150 NA
ATOM     24  N   UNL     1       3.248  -3.013  -0.583  0.00  0.00    -0.127 NA
ATOM     25  C   UNL     1       4.446  -3.179  -0.078  0.00  0.00    +0.180 C 
ATOM     26  S   UNL     1       5.098  -2.001   1.060  0.00  0.00    -0.082 S 
ATOM     27  C   UNL     1       4.294  -0.505   0.428  0.00  0.00    +0.135 C 
ATOM     28  N   UNL     1       5.196  -4.275  -0.437  0.00  0.00    -0.291 N 
ATOM     29  H   UNL     1       6.114  -4.355  -0.133  0.00  0.00    +0.154 HD
BRANCH  28  30
ATOM     30  C   UNL     1       4.636  -5.274  -1.239  0.00  0.00    +0.051 A 
ATOM     31  C   UNL     1       3.256  -5.381  -1.354  0.00  0.00    +0.025 A 
ATOM     32  C   UNL     1       2.705  -6.366  -2.151  0.00  0.00    +0.002 A 
ATOM     33  C   UNL     1       3.526  -7.251  -2.826  0.00  0.00    +0.002 A 
ATOM     34  C   UNL     1       4.900  -7.151  -2.710  0.00  0.00    +0.022 A 
ATOM     35  C   UNL     1       5.458  -6.165  -1.918  0.00  0.00    +0.062 A 
ATOM     36 CL   UNL     1       7.183  -6.039  -1.773  0.00  0.00    -0.082 Cl
ENDBRANCH  28  30
ENDBRANCH   4  22
TORSDOF 4
