REMARK  Name = ZINC39553898
REMARK  11 active torsions:
REMARK  status: ('A' for Active; 'I' for Inactive)
REMARK    1  A    between atoms: C_1  and  C_2
REMARK    2  A    between atoms: C_4  and  C_34
REMARK    3  A    between atoms: C_5  and  N_9
REMARK    4  A    between atoms: C_6  and  C_8
REMARK    5  A    between atoms: C_10  and  C_12
REMARK    6  A    between atoms: C_12  and  S_13
REMARK    7  A    between atoms: S_13  and  C_14
REMARK    8  A    between atoms: C_18  and  C_22
REMARK    9  A    between atoms: C_19  and  C_21
REMARK   10  A    between atoms: C_23  and  N_24
REMARK   11  A    between atoms: C_25  and  C_27
REMARK                            x       y       z     vdW  Elec       q    Type
REMARK                         _______ _______ _______ _____ _____    ______ ____
ROOT
ATOM      1  C   UNL     1      -0.738  -8.847   2.096  0.00  0.00    +0.194 A 
ATOM      2  N   UNL     1      -0.972  -9.252   0.858  0.00  0.00    -0.186 NA
ATOM      3  C   UNL     1      -1.218 -10.533   0.599  0.00  0.00    +0.233 A 
ATOM      4  C   UNL     1      -1.223 -11.446   1.668  0.00  0.00    +0.083 A 
ATOM      5  C   UNL     1      -1.518 -12.751   1.072  0.00  0.00    +0.003 A 
ATOM      6  C   UNL     1      -1.661 -12.535  -0.243  0.00  0.00    +0.108 A 
ATOM      7  O   UNL     1      -1.483 -11.229  -0.519  0.00  0.00    -0.442 OA
ATOM      8  C   UNL     1      -1.973 -13.599  -1.264  0.00  0.00    +0.086 C 
ATOM      9  C   UNL     1      -1.637 -14.070   1.792  0.00  0.00    +0.048 C 
ATOM     10  C   UNL     1      -0.970 -10.976   2.964  0.00  0.00    +0.141 A 
ATOM     11  N   UNL     1      -0.729  -9.679   3.130  0.00  0.00    -0.206 NA
ENDROOT
BRANCH  10  12
ATOM     12  N   UNL     1      -0.966 -11.843   4.046  0.00  0.00    -0.266 N 
ATOM     13  C   UNL     1      -0.721 -11.374   5.285  0.00  0.00    +0.249 C 
ATOM     14  O   UNL     1      -0.504 -10.190   5.455  0.00  0.00    -0.270 OA
ATOM     15  H   UNL     1      -1.139 -12.788   3.911  0.00  0.00    +0.157 HD
BRANCH  13  16
ATOM     16  C   UNL     1      -0.717 -12.298   6.438  0.00  0.00    +0.037 A 
ATOM     17  C   UNL     1      -0.960 -13.659   6.247  0.00  0.00    +0.013 A 
ATOM     18  C   UNL     1      -0.954 -14.517   7.327  0.00  0.00    +0.001 A 
ATOM     19  C   UNL     1      -0.709 -14.030   8.599  0.00  0.00    +0.000 A 
ATOM     20  C   UNL     1      -0.468 -12.682   8.796  0.00  0.00    +0.001 A 
ATOM     21  C   UNL     1      -0.464 -11.815   7.723  0.00  0.00    +0.013 A 
ENDBRANCH  13  16
ENDBRANCH  10  12
BRANCH   1  22
ATOM     22  S   UNL     1      -0.418  -7.138   2.382  0.00  0.00    -0.077 S 
BRANCH  22  23
ATOM     23  C   UNL     1      -0.526  -6.390   0.733  0.00  0.00    +0.173 C 
BRANCH  23  25
ATOM     24  N   UNL     1      -0.299  -4.141  -0.272  0.00  0.00    -0.284 N 
ATOM     25  C   UNL     1      -0.270  -4.908   0.836  0.00  0.00    +0.228 C 
ATOM     26  O   UNL     1      -0.036  -4.407   1.915  0.00  0.00    -0.275 OA
ATOM     27  H   UNL     1      -0.421  -4.551  -1.143  0.00  0.00    +0.155 HD
BRANCH  24  32
ATOM     28  C   UNL     1       0.286   1.486   0.157  0.00  0.00    +0.044 C 
ATOM     29  C   UNL     1       0.130  -0.009   0.043  0.00  0.00    -0.050 A 
ATOM     30  C   UNL     1       1.121  -0.844   0.526  0.00  0.00    +0.008 A 
ATOM     31  C   UNL     1       0.982  -2.215   0.423  0.00  0.00    -0.029 A 
ATOM     32  C   UNL     1      -0.155  -2.753  -0.166  0.00  0.00    +0.039 A 
ATOM     33  C   UNL     1      -1.148  -1.911  -0.649  0.00  0.00    -0.029 A 
ATOM     34  C   UNL     1      -1.005  -0.542  -0.539  0.00  0.00    +0.008 A 
ATOM     35  C   UNL     1      -2.383  -2.491  -1.289  0.00  0.00    +0.045 C 
ATOM     36  C   UNL     1       2.062  -3.124   0.949  0.00  0.00    +0.045 C 
ENDBRANCH  24  32
ENDBRANCH  23  25
ENDBRANCH  22  23
ENDBRANCH   1  22
TORSDOF 6
