REMARK  Name = ZINC06162253
REMARK  15 active torsions:
REMARK  status: ('A' for Active; 'I' for Inactive)
REMARK    1  A    between atoms: C_1  and  C_2
REMARK    2  A    between atoms: C_2  and  C_3
REMARK    3  A    between atoms: C_3  and  O_4
REMARK    4  A    between atoms: O_4  and  C_5
REMARK    5  A    between atoms: C_5  and  C_7
REMARK    6  A    between atoms: C_8  and  C_39
REMARK    7  A    between atoms: C_12  and  C_14
REMARK    8  A    between atoms: C_17  and  O_21
REMARK    9  A    between atoms: C_18  and  O_20
REMARK   10  A    between atoms: O_21  and  C_22
REMARK   11  A    between atoms: C_26  and  C_29
REMARK   12  A    between atoms: C_32  and  O_37
REMARK   13  A    between atoms: C_33  and  O_35
REMARK   14  A    between atoms: O_35  and  C_36
REMARK   15  A    between atoms: O_37  and  C_38
REMARK                            x       y       z     vdW  Elec       q    Type
REMARK                         _______ _______ _______ _____ _____    ______ ____
ROOT
ATOM      1  C   UNL     1      -0.618   1.784   3.608  0.00  0.00    +0.154 C 
ATOM      2  C   UNL     1      -0.281   1.161   4.750  0.00  0.00    +0.031 C 
ATOM      3  N   UNL     1      -0.996   1.379   5.895  0.00  0.00    -0.260 NA
ATOM      4  C   UNL     1      -1.786   2.490   6.024  0.00  0.00    +0.049 C 
ATOM      5  C   UNL     1      -2.184   3.178   4.932  0.00  0.00    +0.025 C 
ATOM      6  C   UNL     1      -1.784   2.729   3.551  0.00  0.00    +0.073 C 
ATOM      7  C   UNL     1      -2.982   4.329   5.051  0.00  0.00    +0.162 C 
ATOM      8  O   UNL     1      -3.329   4.920   4.048  0.00  0.00    -0.292 OA
ATOM      9  C   UNL     1      -3.413   4.843   6.398  0.00  0.00    +0.088 C 
ATOM     10  C   UNL     1      -2.366   4.443   7.443  0.00  0.00    +0.032 C 
ATOM     11  C   UNL     1      -2.199   2.923   7.408  0.00  0.00    +0.064 C 
ATOM     12  C   UNL     1       0.892   0.215   4.769  0.00  0.00    +0.061 C 
ENDROOT
BRANCH   6  13
ATOM     13  C   UNL     1      -2.956   2.042   2.900  0.00  0.00    -0.035 A 
ATOM     14  C   UNL     1      -3.484   0.895   3.464  0.00  0.00    +0.008 A 
ATOM     15  C   UNL     1      -4.559   0.261   2.871  0.00  0.00    +0.049 A 
ATOM     16  C   UNL     1      -5.111   0.774   1.708  0.00  0.00    +0.161 A 
ATOM     17  C   UNL     1      -4.580   1.928   1.140  0.00  0.00    +0.159 A 
ATOM     18  C   UNL     1      -3.505   2.562   1.743  0.00  0.00    +0.053 A 
BRANCH  17  19
ATOM     19  O   UNL     1      -5.117   2.436  -0.002  0.00  0.00    -0.503 OA
ATOM     20  H   UNL     1      -5.828   3.074   0.148  0.00  0.00    +0.292 HD
ENDBRANCH  17  19
BRANCH  16  21
ATOM     21  O   UNL     1      -6.169   0.151   1.123  0.00  0.00    -0.491 OA
ATOM     22  C   UNL     1      -6.661  -1.028   1.762  0.00  0.00    +0.277 C 
ENDBRANCH  16  21
ENDBRANCH   6  13
BRANCH  10  23
ATOM     23  C   UNL     1      -2.829   4.870   8.812  0.00  0.00    -0.040 A 
ATOM     24  C   UNL     1      -4.026   4.395   9.315  0.00  0.00    +0.008 A 
ATOM     25  C   UNL     1      -4.455   4.784  10.570  0.00  0.00    +0.049 A 
ATOM     26  C   UNL     1      -3.685   5.653  11.327  0.00  0.00    +0.161 A 
ATOM     27  C   UNL     1      -2.481   6.132  10.821  0.00  0.00    +0.162 A 
ATOM     28  C   UNL     1      -2.054   5.733   9.564  0.00  0.00    +0.053 A 
BRANCH  27  29
ATOM     29  O   UNL     1      -1.722   6.985  11.559  0.00  0.00    -0.491 OA
ATOM     30  C   UNL     1      -0.498   7.436  10.976  0.00  0.00    +0.277 C 
ENDBRANCH  27  29
BRANCH  26  31
ATOM     31  O   UNL     1      -4.106   6.037  12.562  0.00  0.00    -0.491 OA
ATOM     32  C   UNL     1      -5.352   5.506  13.017  0.00  0.00    +0.277 C 
ENDBRANCH  26  31
ENDBRANCH  10  23
BRANCH   1  33
ATOM     33  C   UNL     1       0.141   1.546   2.438  0.00  0.00    +0.317 C 
ATOM     34  O   UNL     1       1.159   0.882   2.498  0.00  0.00    -0.250 OA
BRANCH  33  35
ATOM     35  O   UNL     1      -0.264   2.055   1.256  0.00  0.00    -0.464 OA
BRANCH  35  36
ATOM     36  C   UNL     1       0.550   1.775   0.116  0.00  0.00    +0.232 C 
BRANCH  36  38
ATOM     37  C   UNL     1       0.808   2.131  -2.344  0.00  0.00    +0.007 C 
ATOM     38  C   UNL     1      -0.064   2.430  -1.123  0.00  0.00    +0.038 C 
ENDBRANCH  36  38
ENDBRANCH  35  36
ENDBRANCH  33  35
ENDBRANCH   1  33
TORSDOF 10
