REMARK  Name = ZINC33657340
REMARK  8 active torsions:
REMARK  status: ('A' for Active; 'I' for Inactive)
REMARK    1  A    between atoms: C_1  and  C_2
REMARK    2  A    between atoms: C_2  and  C_3
REMARK    3  A    between atoms: C_8  and  N_9
REMARK    4  A    between atoms: C_10  and  C_12
REMARK    5  A    between atoms: C_13  and  N_14
REMARK    6  A    between atoms: C_13  and  C_25
REMARK    7  A    between atoms: N_14  and  N_15
REMARK    8  A    between atoms: C_16  and  C_18
REMARK                            x       y       z     vdW  Elec       q    Type
REMARK                         _______ _______ _______ _____ _____    ______ ____
ROOT
ATOM      1  C   UNL     1      -1.566  -0.095  -4.781  0.00  0.00    +0.087 C 
ATOM      2  C   UNL     1      -2.169  -0.419  -5.944  0.00  0.00    +0.024 C 
ATOM      3  C   UNL     1      -3.583  -0.940  -5.941  0.00  0.00    +0.062 C 
ENDROOT
BRANCH   1   5
ATOM      4  N   UNL     1      -1.682   0.106  -2.401  0.00  0.00    -0.282 N 
ATOM      5  C   UNL     1      -2.308  -0.091  -3.578  0.00  0.00    +0.243 C 
ATOM      6  O   UNL     1      -3.513  -0.267  -3.604  0.00  0.00    -0.270 OA
ATOM      7  H   UNL     1      -0.733   0.306  -2.384  0.00  0.00    +0.155 HD
BRANCH   4  13
ATOM      8  C   UNL     1      -1.780  -0.435  -0.050  0.00  0.00    -0.026 A 
ATOM      9  C   UNL     1      -2.491  -0.510   1.132  0.00  0.00    +0.005 A 
ATOM     10  C   UNL     1      -3.821  -0.133   1.166  0.00  0.00    +0.000 A 
ATOM     11  C   UNL     1      -4.444   0.320   0.017  0.00  0.00    +0.002 A 
ATOM     12  C   UNL     1      -3.738   0.397  -1.168  0.00  0.00    +0.023 A 
ATOM     13  C   UNL     1      -2.401   0.024  -1.204  0.00  0.00    +0.037 A 
BRANCH   8  15
ATOM     14  C   UNL     1       0.554   0.387   0.107  0.00  0.00    +0.009 C 
ATOM     15  C   UNL     1      -0.331  -0.846  -0.085  0.00  0.00    +0.033 C 
ENDBRANCH   8  15
ENDBRANCH   4  13
ENDBRANCH   1   5
BRANCH   2  16
ATOM     16  N   UNL     1      -1.497  -0.274  -7.125  0.00  0.00    -0.268 N 
ATOM     17  H   UNL     1      -1.930  -0.507  -7.962  0.00  0.00    +0.170 HD
BRANCH  16  18
ATOM     18  N   UNL     1      -0.182   0.211  -7.129  0.00  0.00    -0.233 N 
ATOM     19  C   UNL     1       0.480   0.354  -8.294  0.00  0.00    +0.260 C 
ATOM     20  O   UNL     1      -0.062   0.062  -9.341  0.00  0.00    -0.269 OA
ATOM     21  H   UNL     1       0.251   0.444  -6.293  0.00  0.00    +0.173 HD
BRANCH  19  22
ATOM     22  C   UNL     1       1.868   0.865  -8.297  0.00  0.00    +0.039 A 
ATOM     23  C   UNL     1       2.496   1.196  -7.095  0.00  0.00    +0.013 A 
ATOM     24  C   UNL     1       3.790   1.672  -7.105  0.00  0.00    +0.002 A 
ATOM     25  C   UNL     1       4.466   1.823  -8.303  0.00  0.00    +0.014 A 
ATOM     26  C   UNL     1       3.850   1.497  -9.498  0.00  0.00    +0.014 A 
ATOM     27  C   UNL     1       2.556   1.014  -9.502  0.00  0.00    +0.027 A 
ATOM     28  I   UNL     1       4.883   1.730 -11.306  0.00  0.00    -0.044 I 
ENDBRANCH  19  22
ENDBRANCH  16  18
ENDBRANCH   2  16
TORSDOF 6
