REMARK  Name = ZINC56604263
REMARK  11 active torsions:
REMARK  status: ('A' for Active; 'I' for Inactive)
REMARK    1  A    between atoms: C_1  and  C_2
REMARK    2  A    between atoms: C_2  and  C_3
REMARK    3  A    between atoms: C_3  and  C_4
REMARK    4  A    between atoms: C_3  and  C_6
REMARK    5  A    between atoms: C_4  and  C_5
REMARK    6  A    between atoms: C_6  and  C_8
REMARK    7  A    between atoms: C_6  and  N_13
REMARK    8  A    between atoms: N_16  and  C_17
REMARK    9  A    between atoms: C_22  and  S_23
REMARK   10  A    between atoms: S_23  and  C_24
REMARK   11  A    between atoms: C_24  and  C_25
REMARK                            x       y       z     vdW  Elec       q    Type
REMARK                         _______ _______ _______ _____ _____    ______ ____
ROOT
ATOM      1  N   UNL     1      -3.882  -0.643   1.192  0.00  0.00    -0.292 N 
ATOM      2  C   UNL     1      -4.245  -1.918   1.437  0.00  0.00    +0.304 C 
ATOM      3  O   UNL     1      -3.498  -2.655   2.051  0.00  0.00    -0.252 OA
ATOM      4  N   UNL     1      -5.436  -2.375   1.002  0.00  0.00    -0.268 N 
ATOM      5  H   UNL     1      -4.507  -0.035   0.768  0.00  0.00    +0.151 HD
ATOM      6  H   UNL     1      -5.995  -1.815   0.441  0.00  0.00    +0.156 HD
ENDROOT
BRANCH   4   7
ATOM      7  C   UNL     1      -5.866  -3.661   1.361  0.00  0.00    +0.048 A 
ATOM      8  C   UNL     1      -5.400  -4.251   2.525  0.00  0.00    +0.024 A 
ATOM      9  C   UNL     1      -5.825  -5.518   2.876  0.00  0.00    +0.002 A 
ATOM     10  C   UNL     1      -6.716  -6.202   2.069  0.00  0.00    +0.001 A 
ATOM     11  C   UNL     1      -7.187  -5.622   0.907  0.00  0.00    +0.016 A 
ATOM     12  C   UNL     1      -6.770  -4.347   0.549  0.00  0.00    +0.030 A 
BRANCH  12  13
ATOM     13  S   UNL     1      -7.374  -3.602  -0.928  0.00  0.00    -0.114 S 
BRANCH  13  14
ATOM     14  C   UNL     1      -8.492  -4.849  -1.624  0.00  0.00    +0.169 C 
BRANCH  14  15
ATOM     15  C   UNL     1      -9.086  -4.331  -2.909  0.00  0.00    +0.221 C 
ATOM     16  O   UNL     1      -8.784  -3.229  -3.315  0.00  0.00    -0.275 OA
ATOM     17  N   UNL     1      -9.952  -5.093  -3.606  0.00  0.00    -0.329 N 
ATOM     18  H   UNL     1     -10.194  -5.974  -3.281  0.00  0.00    +0.145 HD
ATOM     19  H   UNL     1     -10.334  -4.759  -4.433  0.00  0.00    +0.145 HD
ENDBRANCH  14  15
ENDBRANCH  13  14
ENDBRANCH  12  13
ENDBRANCH   4   7
BRANCH   1  20
ATOM     20  C   UNL     1      -2.545  -0.177   1.566  0.00  0.00    +0.114 C 
BRANCH  20  21
ATOM     21  C   UNL     1      -2.506   1.328   1.522  0.00  0.00    +0.010 A 
ATOM     22  C   UNL     1      -1.824   2.189   2.316  0.00  0.00    +0.013 A 
ATOM     23  C   UNL     1      -1.940   3.547   2.089  0.00  0.00    +0.008 A 
ATOM     24  C   UNL     1      -2.733   3.979   1.077  0.00  0.00    +0.045 A 
ATOM     25  S   UNL     1      -3.342   2.442   0.404  0.00  0.00    -0.100 S 
ENDBRANCH  20  21
BRANCH  20  26
ATOM     26  C   UNL     1      -1.515  -0.743   0.586  0.00  0.00    +0.014 C 
BRANCH  26  28
ATOM     27  C   UNL     1      -3.107  -0.548  -1.330  0.00  0.00    +0.004 C 
ATOM     28  C   UNL     1      -1.736  -0.127  -0.798  0.00  0.00    +0.002 C 
ENDBRANCH  26  28
BRANCH  26  29
ATOM     29  C   UNL     1      -0.105  -0.405   1.075  0.00  0.00    +0.002 C 
ATOM     30  C   UNL     1       0.141  -1.079   2.426  0.00  0.00    +0.004 C 
ENDBRANCH  26  29
ENDBRANCH  20  26
ENDBRANCH   1  20
TORSDOF 9
