REMARK  Name = ZINC20873137
REMARK  11 active torsions:
REMARK  status: ('A' for Active; 'I' for Inactive)
REMARK    1  A    between atoms: C_4  and  N_7
REMARK    2  A    between atoms: C_8  and  S_12
REMARK    3  A    between atoms: S_12  and  C_13
REMARK    4  A    between atoms: C_13  and  C_14
REMARK    5  A    between atoms: C_14  and  C_15
REMARK    6  A    between atoms: C_15  and  N_16
REMARK    7  A    between atoms: N_16  and  C_17
REMARK    8  A    between atoms: C_17  and  C_18
REMARK    9  A    between atoms: C_23  and  O_24
REMARK   10  A    between atoms: O_24  and  C_25
REMARK   11  A    between atoms: C_25  and  C_26
REMARK                            x       y       z     vdW  Elec       q    Type
REMARK                         _______ _______ _______ _____ _____    ______ ____
ROOT
ATOM      1  N   UNL     1       2.982   4.000  -1.368  0.00  0.00    +0.382 N 
ATOM      2  H   UNL     1       2.240   4.491  -2.016  0.00  0.00    -0.085 HD
ATOM      3  H   UNL     1       3.152   2.972  -1.720  0.00  0.00    -0.085 HD
ENDROOT
BRANCH   1   4
ATOM      4  C   UNL     1       4.245   4.749  -1.414  0.00  0.00    -0.081 C 
BRANCH   4   5
ATOM      5  C   UNL     1       4.766   4.782  -2.853  0.00  0.00    -0.008 C 
BRANCH   5   6
ATOM      6  C   UNL     1       6.081   5.562  -2.901  0.00  0.00    +0.075 C 
BRANCH   6   7
ATOM      7  S   UNL     1       6.697   5.601  -4.602  0.00  0.00    -0.084 S 
BRANCH   7   9
ATOM      8  N   UNL     1       9.070   6.877  -5.330  0.00  0.00    -0.187 N 
ATOM      9  C   UNL     1       8.175   6.533  -4.371  0.00  0.00    +0.214 A 
ATOM     10  N   UNL     1       8.622   7.021  -3.234  0.00  0.00    -0.101 NA
ATOM     11  N   UNL     1       9.727   7.648  -3.417  0.00  0.00    -0.022 NA
ATOM     12  N   UNL     1      10.065   7.609  -4.660  0.00  0.00    -0.038 NA
BRANCH   8  16
ATOM     13  C   UNL     1       8.903   5.962  -9.395  0.00  0.00    +0.000 A 
ATOM     14  C   UNL     1       9.428   7.173  -8.981  0.00  0.00    +0.002 A 
ATOM     15  C   UNL     1       9.485   7.479  -7.635  0.00  0.00    +0.028 A 
ATOM     16  C   UNL     1       9.014   6.569  -6.697  0.00  0.00    +0.070 A 
ATOM     17  C   UNL     1       8.493   5.353  -7.116  0.00  0.00    +0.028 A 
ATOM     18  C   UNL     1       8.433   5.055  -8.463  0.00  0.00    +0.002 A 
ENDBRANCH   8  16
ENDBRANCH   7   9
ENDBRANCH   6   7
ENDBRANCH   5   6
ENDBRANCH   4   5
ENDBRANCH   1   4
BRANCH   1  19
ATOM     19  C   UNL     1       2.450   3.947   0.000  0.00  0.00    -0.043 C 
BRANCH  19  20
ATOM     20  C   UNL     1       1.158   3.173   0.008  0.00  0.00    -0.022 A 
ATOM     21  C   UNL     1      -0.050   3.844   0.023  0.00  0.00    +0.020 A 
ATOM     22  C   UNL     1      -1.237   3.134   0.030  0.00  0.00    +0.018 A 
ATOM     23  C   UNL     1      -1.218   1.751   0.017  0.00  0.00    +0.019 A 
ATOM     24  C   UNL     1      -0.013   1.076   0.008  0.00  0.00    +0.047 A 
ATOM     25  C   UNL     1       1.179   1.786   0.000  0.00  0.00    +0.123 A 
ATOM     26 BR   UNL     1      -2.888   4.055   0.050  0.00  0.00    -0.050 Br
BRANCH  25  27
ATOM     27  O   UNL     1       2.366   1.124  -0.015  0.00  0.00    -0.483 OA
BRANCH  27  28
ATOM     28  C   UNL     1       2.312  -0.304  -0.023  0.00  0.00    +0.324 C 
BRANCH  28  29
ATOM     29  C   UNL     1       3.713  -0.859  -0.040  0.00  0.00    +0.248 C 
ATOM     30  O   UNL     1       4.664  -0.106  -0.044  0.00  0.00    -0.272 OA
ATOM     31  N   UNL     1       3.909  -2.192  -0.049  0.00  0.00    -0.327 N 
ATOM     32  H   UNL     1       4.932  -2.598  -0.061  0.00  0.00    +0.145 HD
ATOM     33  H   UNL     1       3.047  -2.875  -0.045  0.00  0.00    +0.145 HD
ENDBRANCH  28  29
ENDBRANCH  27  28
ENDBRANCH  25  27
ENDBRANCH  19  20
ENDBRANCH   1  19
TORSDOF 11
