REMARK  Name = ZINC09245366
REMARK  11 active torsions:
REMARK  status: ('A' for Active; 'I' for Inactive)
REMARK    1  A    between atoms: C_1  and  C_2
REMARK    2  A    between atoms: C_3  and  C_8
REMARK    3  A    between atoms: C_4  and  C_7
REMARK    4  A    between atoms: C_8  and  S_9
REMARK    5  A    between atoms: S_9  and  C_10
REMARK    6  A    between atoms: C_11  and  C_16
REMARK    7  A    between atoms: N_18  and  C_19
REMARK    8  A    between atoms: N_18  and  C_20
REMARK    9  A    between atoms: C_21  and  N_36
REMARK   10  A    between atoms: N_22  and  C_29
REMARK   11  A    between atoms: C_29  and  C_30
REMARK                            x       y       z     vdW  Elec       q    Type
REMARK                         _______ _______ _______ _____ _____    ______ ____
ROOT
ATOM      1  C   UNL     1       0.083   5.227   0.365  0.00  0.00    +0.253 C 
ATOM      2  O   UNL     1       0.231   4.025   0.476  0.00  0.00    -0.270 OA
ATOM      3  N   UNL     1       1.118   6.002  -0.014  0.00  0.00    -0.263 N 
ATOM      4  C   UNL     1       2.385   5.386  -0.416  0.00  0.00    +0.139 C 
ENDROOT
BRANCH   3   5
ATOM      5  C   UNL     1       0.982   7.406  -0.025  0.00  0.00    +0.140 A 
ATOM      6  C   UNL     1       1.290   8.133  -1.157  0.00  0.00    +0.128 A 
ATOM      7  N   UNL     1       1.141   9.500  -1.138  0.00  0.00    -0.276 N 
ATOM      8  C   UNL     1       0.712  10.123  -0.026  0.00  0.00    +0.331 A 
ATOM      9  O   UNL     1       0.592  11.333  -0.028  0.00  0.00    -0.246 OA
ATOM     10  N   UNL     1       0.413   9.432   1.089  0.00  0.00    -0.273 N 
ATOM     11  H   UNL     1       0.096   9.919   1.902  0.00  0.00    +0.173 HD
ATOM     12  C   UNL     1       0.536   8.091   1.121  0.00  0.00    +0.277 A 
ATOM     13  O   UNL     1       0.262   7.474   2.137  0.00  0.00    -0.266 OA
BRANCH   6  14
ATOM     14  N   UNL     1       1.734   7.497  -2.292  0.00  0.00    -0.343 N 
ATOM     15  H   UNL     1       1.716   6.528  -2.344  0.00  0.00    +0.144 HD
ATOM     16  H   UNL     1       2.064   8.017  -3.041  0.00  0.00    +0.144 HD
ENDBRANCH   6  14
BRANCH   7  17
ATOM     17  C   UNL     1       1.459  10.283  -2.335  0.00  0.00    +0.163 C 
BRANCH  17  18
ATOM     18  C   UNL     1       2.912  10.685  -2.301  0.00  0.00    -0.028 A 
ATOM     19  C   UNL     1       3.285  11.877  -1.710  0.00  0.00    +0.005 A 
ATOM     20  C   UNL     1       4.618  12.244  -1.674  0.00  0.00    +0.000 A 
ATOM     21  C   UNL     1       5.575  11.423  -2.240  0.00  0.00    +0.000 A 
ATOM     22  C   UNL     1       5.201  10.233  -2.836  0.00  0.00    +0.000 A 
ATOM     23  C   UNL     1       3.869   9.864  -2.866  0.00  0.00    +0.005 A 
ENDBRANCH  17  18
ENDBRANCH   7  17
ENDBRANCH   3   5
BRANCH   1  25
ATOM     24  C   UNL     1      -2.151   5.196   1.492  0.00  0.00    +0.109 A 
ATOM     25  C   UNL     1      -1.230   5.837   0.645  0.00  0.00    +0.069 A 
ATOM     26  C   UNL     1      -1.583   7.063   0.071  0.00  0.00    +0.017 A 
ATOM     27  C   UNL     1      -2.827   7.593   0.365  0.00  0.00    +0.020 A 
ATOM     28  C   UNL     1      -3.679   6.904   1.209  0.00  0.00    +0.112 A 
ATOM     29  N   UNL     1      -3.327   5.751   1.744  0.00  0.00    -0.248 NA
BRANCH  24  30
ATOM     30  S   UNL     1      -1.736   3.650   2.229  0.00  0.00    -0.100 S 
BRANCH  30  31
ATOM     31  C   UNL     1      -3.248   3.335   3.172  0.00  0.00    +0.116 C 
BRANCH  31  34
ATOM     32  C   UNL     1      -4.092   0.382   2.125  0.00  0.00    +0.069 C 
ATOM     33  C   UNL     1      -3.484   0.736   3.458  0.00  0.00    +0.085 A 
ATOM     34  C   UNL     1      -3.119   2.026   3.907  0.00  0.00    +0.027 A 
ATOM     35  C   UNL     1      -2.631   1.813   5.152  0.00  0.00    +0.138 A 
ATOM     36  O   UNL     1      -2.716   0.493   5.373  0.00  0.00    -0.359 OA
ATOM     37  N   UNL     1      -3.188  -0.086   4.423  0.00  0.00    -0.083 NA
ATOM     38  C   UNL     1      -2.097   2.854   6.102  0.00  0.00    +0.089 C 
ENDBRANCH  31  34
ENDBRANCH  30  31
ENDBRANCH  24  30
ENDBRANCH   1  25
TORSDOF 8
