REMARK  Name = ZINC44464829
REMARK  9 active torsions:
REMARK  status: ('A' for Active; 'I' for Inactive)
REMARK    1  A    between atoms: C_1  and  N_2
REMARK    2  A    between atoms: C_3  and  S_19
REMARK    3  A    between atoms: C_4  and  C_13
REMARK    4  A    between atoms: C_5  and  C_7
REMARK    5  A    between atoms: C_13  and  CA_14
REMARK    6  A    between atoms: CA_14  and  C_16
REMARK    7  A    between atoms: CA_14  and  N_18
REMARK    8  A    between atoms: C_16  and  O_17
REMARK    9  A    between atoms: S_19  and  C_20
REMARK                            x       y       z     vdW  Elec       q    Type
REMARK                         _______ _______ _______ _____ _____    ______ ____
ROOT
ATOM      1  C   UNL     1      -0.352   1.434  -0.025  0.00  0.00    +0.173 C 
ATOM      2  N   UNL     1      -0.140  -0.015  -0.013  0.00  0.00    -0.260 N 
ATOM      3  C   UNL     1       0.182  -0.785  -1.087  0.00  0.00    +0.103 A 
ATOM      4  C   UNL     1       0.289  -2.071  -0.656  0.00  0.00    +0.011 A 
ATOM      5  C   UNL     1       0.024  -2.085   0.725  0.00  0.00    +0.097 A 
ATOM      6  N   UNL     1      -0.227  -0.851   1.108  0.00  0.00    -0.170 NA
ENDROOT
BRANCH   5   7
ATOM      7  C   UNL     1       0.032  -3.283   1.601  0.00  0.00    +0.002 A 
ATOM      8  C   UNL     1       0.626  -3.225   2.860  0.00  0.00    +0.010 A 
ATOM      9  C   UNL     1       0.631  -4.342   3.670  0.00  0.00    +0.001 A 
ATOM     10  C   UNL     1       0.047  -5.518   3.235  0.00  0.00    +0.000 A 
ATOM     11  C   UNL     1      -0.544  -5.581   1.986  0.00  0.00    +0.001 A 
ATOM     12  C   UNL     1      -0.560  -4.468   1.170  0.00  0.00    +0.010 A 
ENDBRANCH   5   7
BRANCH   4  13
ATOM     13  C   UNL     1       0.630  -3.267  -1.507  0.00  0.00    +0.026 C 
BRANCH  13  14
ATOM     14  CA  UNL     1       2.151  -3.384  -1.636  0.00  0.00    -0.045 C 
BRANCH  14  15
ATOM     15  N   UNL     1       2.733  -3.666  -0.317  0.00  0.00    +0.382 N 
ATOM     16  H1  UNL     1       2.358  -4.533   0.038  0.00  0.00    -0.090 HD
ATOM     17  H2  UNL     1       3.736  -3.744  -0.402  0.00  0.00    -0.090 HD
ATOM     18  H3  UNL     1       2.506  -2.916   0.318  0.00  0.00    -0.090 HD
ENDBRANCH  14  15
BRANCH  14  19
ATOM     19  C   UNL     1       2.495  -4.521  -2.599  0.00  0.00    +0.140 C 
BRANCH  19  20
ATOM     20  O   UNL     1       3.908  -4.556  -2.810  0.00  0.00    -0.397 OA
ATOM     21  H   UNL     1       4.199  -5.255  -3.412  0.00  0.00    +0.209 HD
ENDBRANCH  19  20
ENDBRANCH  14  19
ENDBRANCH  13  14
ENDBRANCH   4  13
BRANCH   3  22
ATOM     22  S   UNL     1       0.418  -0.218  -2.739  0.00  0.00    -0.070 S 
BRANCH  22  23
ATOM     23  C   UNL     1       1.746   0.931  -2.609  0.00  0.00    +0.014 A 
ATOM     24  C   UNL     1       2.336   1.179  -1.375  0.00  0.00    +0.016 A 
ATOM     25  C   UNL     1       3.377   2.080  -1.277  0.00  0.00    +0.016 A 
ATOM     26  C   UNL     1       3.834   2.737  -2.406  0.00  0.00    +0.018 A 
ATOM     27  C   UNL     1       3.249   2.494  -3.636  0.00  0.00    +0.016 A 
ATOM     28  C   UNL     1       2.211   1.589  -3.742  0.00  0.00    +0.016 A 
ATOM     29 BR   UNL     1       5.260   3.971  -2.268  0.00  0.00    -0.050 Br
ENDBRANCH  22  23
ENDBRANCH   3  22
TORSDOF 8
