REMARK  Name = ZINC35969235
REMARK  11 active torsions:
REMARK  status: ('A' for Active; 'I' for Inactive)
REMARK    1  A    between atoms: C_1  and  C_2
REMARK    2  A    between atoms: C_5  and  C_9
REMARK    3  A    between atoms: C_6  and  C_8
REMARK    4  A    between atoms: N_14  and  C_17
REMARK    5  A    between atoms: C_17  and  C_19
REMARK    6  A    between atoms: C_17  and  C_25
REMARK    7  A    between atoms: N_27  and  C_28
REMARK    8  A    between atoms: C_28  and  C_29
REMARK    9  A    between atoms: C_29  and  C_30
REMARK   10  A    between atoms: C_29  and  C_31
REMARK   11  A    between atoms: N_32  and  C_36
REMARK                            x       y       z     vdW  Elec       q    Type
REMARK                         _______ _______ _______ _____ _____    ______ ____
ROOT
ATOM      1  C   UNL     1      -0.181  -4.021   0.091  0.00  0.00    +0.142 C 
ATOM      2  C   UNL     1       1.259  -4.473   0.228  0.00  0.00    +0.058 C 
ATOM      3  C   UNL     1       1.797  -5.173  -0.791  0.00  0.00    +0.042 C 
ATOM      4  C   UNL     1       3.220  -5.485  -0.389  0.00  0.00    +0.160 C 
ATOM      5  N   UNL     1       3.378  -4.881   0.943  0.00  0.00    -0.277 N 
ATOM      6  C   UNL     1       2.206  -4.302   1.259  0.00  0.00    +0.247 C 
ATOM      7  O   UNL     1       1.991  -3.707   2.299  0.00  0.00    -0.270 OA
ATOM      8  N   UNL     1       1.069  -5.466  -1.909  0.00  0.00    -0.260 N 
ATOM      9  C   UNL     1      -0.205  -5.093  -2.083  0.00  0.00    +0.307 C 
ATOM     10  O   UNL     1      -0.773  -5.401  -3.113  0.00  0.00    -0.252 OA
ATOM     11  N   UNL     1      -0.878  -4.388  -1.153  0.00  0.00    -0.288 N 
ATOM     12  C   UNL     1       1.719  -6.230  -2.977  0.00  0.00    +0.139 C 
ATOM     13  H   UNL     1      -1.801  -4.128  -1.300  0.00  0.00    +0.151 HD
ENDROOT
BRANCH   1  18
ATOM     14  C   UNL     1      -0.299   1.736   0.569  0.00  0.00    +0.044 C 
ATOM     15  C   UNL     1      -0.268   0.235   0.444  0.00  0.00    -0.050 A 
ATOM     16  C   UNL     1       0.886  -0.401   0.025  0.00  0.00    +0.004 A 
ATOM     17  C   UNL     1       0.914  -1.778  -0.089  0.00  0.00    +0.006 A 
ATOM     18  C   UNL     1      -0.211  -2.520   0.216  0.00  0.00    -0.020 A 
ATOM     19  C   UNL     1      -1.365  -1.885   0.636  0.00  0.00    -0.045 A 
ATOM     20  C   UNL     1      -1.392  -0.508   0.754  0.00  0.00    +0.007 A 
ATOM     21  C   UNL     1      -2.592  -2.694   0.968  0.00  0.00    +0.044 C 
ENDBRANCH   1  18
BRANCH   5  22
ATOM     22  C   UNL     1       4.587  -4.906   1.770  0.00  0.00    +0.193 C 
BRANCH  22  23
ATOM     23  C   UNL     1       4.318  -5.689   3.029  0.00  0.00    -0.018 A 
ATOM     24  C   UNL     1       3.524  -6.819   2.983  0.00  0.00    +0.006 A 
ATOM     25  C   UNL     1       3.277  -7.538   4.138  0.00  0.00    +0.000 A 
ATOM     26  C   UNL     1       3.825  -7.126   5.339  0.00  0.00    +0.000 A 
ATOM     27  C   UNL     1       4.619  -5.995   5.385  0.00  0.00    +0.000 A 
ATOM     28  C   UNL     1       4.870  -5.280   4.229  0.00  0.00    +0.006 A 
ENDBRANCH  22  23
BRANCH  22  29
ATOM     29  C   UNL     1       5.708  -5.558   1.003  0.00  0.00    +0.238 C 
ATOM     30  O   UNL     1       5.516  -5.962  -0.124  0.00  0.00    -0.273 OA
ATOM     31  N   UNL     1       6.924  -5.691   1.569  0.00  0.00    -0.313 N 
ATOM     32  H   UNL     1       7.077  -5.368   2.471  0.00  0.00    +0.149 HD
BRANCH  31  33
ATOM     33  C   UNL     1       8.014  -6.325   0.823  0.00  0.00    +0.107 C 
BRANCH  33  34
ATOM     34  C   UNL     1       9.276  -6.351   1.688  0.00  0.00    -0.000 C 
ATOM     35  C   UNL     1      10.378  -7.122   0.959  0.00  0.00    +0.009 C 
ATOM     36  C   UNL     1       9.744  -4.918   1.949  0.00  0.00    +0.009 C 
ENDBRANCH  33  34
ENDBRANCH  31  33
ENDBRANCH  22  29
ENDBRANCH   5  22
TORSDOF 6
