REMARK  Name = ZINC24811542
REMARK  10 active torsions:
REMARK  status: ('A' for Active; 'I' for Inactive)
REMARK    1  A    between atoms: C_1  and  C_2
REMARK    2  A    between atoms: C_2  and  N_3
REMARK    3  A    between atoms: C_4  and  C_35
REMARK    4  A    between atoms: C_10  and  C_12
REMARK    5  A    between atoms: N_14  and  N_15
REMARK    6  A    between atoms: C_16  and  C_18
REMARK    7  A    between atoms: C_18  and  N_19
REMARK    8  A    between atoms: C_24  and  C_31
REMARK    9  A    between atoms: C_27  and  C_29
REMARK   10  A    between atoms: C_27  and  C_30
REMARK                            x       y       z     vdW  Elec       q    Type
REMARK                         _______ _______ _______ _____ _____    ______ ____
ROOT
ATOM      1  N   UNL     1      -0.017  -4.285   3.841  0.00  0.00    -0.233 N 
ATOM      2  C   UNL     1      -0.107  -3.413   2.817  0.00  0.00    +0.247 C 
ATOM      3  O   UNL     1       0.228  -3.751   1.702  0.00  0.00    -0.273 OA
ATOM      4  H   UNL     1      -0.321  -3.978   4.853  0.00  0.00    +0.173 HD
ENDROOT
BRANCH   1   7
ATOM      5  C   UNL     1       0.552  -6.454   4.641  0.00  0.00    +0.260 C 
ATOM      6  O   UNL     1       0.217  -6.115   5.759  0.00  0.00    -0.269 OA
ATOM      7  N   UNL     1       0.462  -5.582   3.617  0.00  0.00    -0.230 N 
ATOM      8  H   UNL     1       0.766  -5.889   2.605  0.00  0.00    +0.173 HD
BRANCH   5  16
ATOM      9  N   UNL     1       2.432 -11.691   4.018  0.00  0.00    -0.328 N 
ATOM     10  C   UNL     1       2.302 -12.072   5.318  0.00  0.00    +0.108 A 
ATOM     11  N   UNL     1       1.831 -11.088   6.028  0.00  0.00    -0.233 NA
ATOM     12  C   UNL     1       1.627 -10.008   5.230  0.00  0.00    +0.090 A 
ATOM     13  C   UNL     1       2.011 -10.381   3.929  0.00  0.00    +0.069 A 
ATOM     14  C   UNL     1       1.912  -9.470   2.883  0.00  0.00    +0.029 A 
ATOM     15  C   UNL     1       1.443  -8.210   3.114  0.00  0.00    +0.015 A 
ATOM     16  C   UNL     1       1.058  -7.821   4.404  0.00  0.00    +0.040 A 
ATOM     17  C   UNL     1       1.155  -8.718   5.464  0.00  0.00    +0.043 A 
ATOM     18  C   UNL     1       2.652 -13.435   5.857  0.00  0.00    +0.086 C 
BRANCH   9  20
ATOM     19  C   UNL     1       4.444 -12.357   2.800  0.00  0.00    +0.027 C 
ATOM     20  C   UNL     1       2.928 -12.519   2.917  0.00  0.00    +0.120 C 
ENDBRANCH   9  20
ENDBRANCH   5  16
ENDBRANCH   1   7
BRANCH   2  21
ATOM     21  C   UNL     1      -0.623  -2.018   3.058  0.00  0.00    +0.215 C 
BRANCH  21  22
ATOM     22  N   UNL     1      -0.623  -1.272   1.797  0.00  0.00    -0.215 N 
ATOM     23  C   UNL     1       0.419  -0.538   1.351  0.00  0.00    +0.247 C 
ATOM     24  O   UNL     1       1.458  -0.345   1.945  0.00  0.00    -0.273 OA
ATOM     25  C   UNL     1       0.002  -0.004   0.002  0.00  0.00    +0.113 C 
ATOM     26  C   UNL     1      -0.019   1.518   0.010  0.00  0.00    +0.038 C 
ATOM     27  C   UNL     1       1.413   2.057  -0.000  0.00  0.00    -0.011 C 
ATOM     28  C   UNL     1       2.087   1.615  -1.298  0.00  0.00    +0.009 C 
ATOM     29  C   UNL     1       2.169   0.095  -1.379  0.00  0.00    -0.032 C 
ATOM     30  C   UNL     1       0.835  -0.583  -1.122  0.00  0.00    +0.041 C 
ATOM     31  C   UNL     1       3.236  -0.424  -0.410  0.00  0.00    +0.011 C 
ATOM     32  C   UNL     1       2.625  -0.274  -2.807  0.00  0.00    +0.011 C 
ATOM     33  C   UNL     1       1.379   3.587   0.059  0.00  0.00    +0.007 C 
ATOM     34  N   UNL     1      -1.388  -0.492  -0.143  0.00  0.00    -0.285 N 
ATOM     35  C   UNL     1      -1.653  -1.234   0.945  0.00  0.00    +0.310 C 
ATOM     36  O   UNL     1      -2.710  -1.805   1.135  0.00  0.00    -0.252 OA
ATOM     37  H   UNL     1      -1.977  -0.219  -1.031  0.00  0.00    +0.151 HD
ENDBRANCH  21  22
ENDBRANCH   2  21
TORSDOF 5
