REMARK  Name = ZINC01703368
REMARK  9 active torsions:
REMARK  status: ('A' for Active; 'I' for Inactive)
REMARK    1  A    between atoms: C_1  and  C_2
REMARK    2  A    between atoms: C_2  and  O_3
REMARK    3  A    between atoms: O_3  and  C_4
REMARK    4  A    between atoms: C_4  and  C_5
REMARK    5  A    between atoms: C_4  and  O_21
REMARK    6  A    between atoms: C_6  and  C_13
REMARK    7  A    between atoms: C_7  and  N_12
REMARK    8  A    between atoms: O_21  and  C_22
REMARK    9  A    between atoms: C_22  and  C_23
REMARK                            x       y       z     vdW  Elec       q    Type
REMARK                         _______ _______ _______ _____ _____    ______ ____
ROOT
ATOM      1  C   UNL     1      -3.159   4.825   1.256  0.00  0.00    +0.111 A 
ATOM      2  C   UNL     1      -2.190   5.226   0.338  0.00  0.00    +0.048 A 
ATOM      3  C   UNL     1      -2.462   6.344  -0.471  0.00  0.00    +0.129 A 
ATOM      4  N   UNL     1      -3.623   6.974  -0.327  0.00  0.00    -0.199 NA
ATOM      5  C   UNL     1      -4.512   6.559   0.564  0.00  0.00    +0.215 A 
ATOM      6  N   UNL     1      -4.288   5.510   1.342  0.00  0.00    -0.214 NA
ATOM      7  N   UNL     1      -5.709   7.242   0.684  0.00  0.00    -0.327 N 
ATOM      8  H   UNL     1      -5.888   8.011   0.121  0.00  0.00    +0.145 HD
ATOM      9  H   UNL     1      -6.370   6.950   1.331  0.00  0.00    +0.145 HD
ENDROOT
BRANCH   2  10
ATOM     10  C   UNL     1      -0.909   4.490   0.214  0.00  0.00    -0.011 A 
ATOM     11  C   UNL     1       0.277   5.071   0.661  0.00  0.00    +0.010 A 
ATOM     12  C   UNL     1       1.467   4.383   0.543  0.00  0.00    +0.022 A 
ATOM     13  C   UNL     1       1.485   3.117  -0.018  0.00  0.00    +0.059 A 
ATOM     14  C   UNL     1       0.310   2.535  -0.465  0.00  0.00    +0.060 A 
ATOM     15  C   UNL     1      -0.886   3.219  -0.356  0.00  0.00    +0.030 A 
ATOM     16 CL   UNL     1       0.341   0.949  -1.168  0.00  0.00    -0.082 Cl
ATOM     17 CL   UNL     1       2.986   2.257  -0.164  0.00  0.00    -0.082 Cl
ENDBRANCH   2  10
BRANCH   3  18
ATOM     18  N   UNL     1      -1.537   6.780  -1.403  0.00  0.00    -0.343 N 
ATOM     19  H   UNL     1      -0.692   6.314  -1.502  0.00  0.00    +0.144 HD
ATOM     20  H   UNL     1      -1.733   7.552  -1.957  0.00  0.00    +0.144 HD
ENDBRANCH   3  18
BRANCH   1  21
ATOM     21  C   UNL     1      -2.922   3.630   2.143  0.00  0.00    +0.301 C 
BRANCH  21  22
ATOM     22  O   UNL     1      -3.101   4.008   3.509  0.00  0.00    -0.346 OA
BRANCH  22  24
ATOM     23  C   UNL     1      -2.628   3.678   5.856  0.00  0.00    +0.034 C 
ATOM     24  C   UNL     1      -2.527   3.094   4.446  0.00  0.00    +0.160 C 
ENDBRANCH  22  24
ENDBRANCH  21  22
BRANCH  21  25
ATOM     25  O   UNL     1      -3.851   2.597   1.809  0.00  0.00    -0.346 OA
BRANCH  25  26
ATOM     26  C   UNL     1      -3.391   1.280   2.117  0.00  0.00    +0.160 C 
ATOM     27  C   UNL     1      -4.387   0.252   1.576  0.00  0.00    +0.034 C 
ENDBRANCH  25  26
ENDBRANCH  21  25
ENDBRANCH   1  21
TORSDOF 7
