REMARK  Name = ZINC09274504
REMARK  13 active torsions:
REMARK  status: ('A' for Active; 'I' for Inactive)
REMARK    1  A    between atoms: C_1  and  C_2
REMARK    2  A    between atoms: C_2  and  C_29
REMARK    3  A    between atoms: C_5  and  C_25
REMARK    4  A    between atoms: C_6  and  N_12
REMARK    5  A    between atoms: C_9  and  C_10
REMARK    6  A    between atoms: C_9  and  C_11
REMARK    7  A    between atoms: C_13  and  C_15
REMARK    8  A    between atoms: C_19  and  O_23
REMARK    9  A    between atoms: C_20  and  O_21
REMARK   10  A    between atoms: O_21  and  C_22
REMARK   11  A    between atoms: O_23  and  C_24
REMARK   12  A    between atoms: C_25  and  O_27
REMARK   13  A    between atoms: O_27  and  C_28
REMARK                            x       y       z     vdW  Elec       q    Type
REMARK                         _______ _______ _______ _____ _____    ______ ____
ROOT
ATOM      1  C   UNL     1      -0.013   1.086   0.008  0.00  0.00    -0.010 C 
ATOM      2  C   UNL     1      -0.729   1.579   1.268  0.00  0.00    -0.069 C 
ATOM      3  C   UNL     1      -2.138   0.980   1.315  0.00  0.00    +0.024 C 
ATOM      4  C   UNL     1      -2.977   1.646   0.233  0.00  0.00    -0.024 A 
ATOM      5  C   UNL     1      -4.122   1.049  -0.426  0.00  0.00    +0.091 A 
ATOM      6  C   UNL     1      -4.782   1.815  -1.381  0.00  0.00    +0.086 A 
ATOM      7  S   UNL     1      -3.883   3.297  -1.388  0.00  0.00    -0.079 S 
ATOM      8  C   UNL     1      -2.670   2.902  -0.162  0.00  0.00    -0.016 A 
ATOM      9  C   UNL     1      -1.544   3.747   0.341  0.00  0.00    -0.041 C 
ATOM     10  C   UNL     1      -2.147   5.003   1.001  0.00  0.00    -0.005 C 
ATOM     11  C   UNL     1      -0.674   4.204  -0.835  0.00  0.00    -0.005 C 
ATOM     12  C   UNL     1       0.048   1.047   2.487  0.00  0.00    -0.010 C 
ATOM     13  N   UNL     1      -0.719   3.061   1.375  0.00  0.00    +0.389 N 
ATOM     14  H   UNL     1       0.251   3.385   1.282  0.00  0.00    -0.084 HD
ATOM     15  H   UNL     1      -1.079   3.320   2.301  0.00  0.00    -0.084 HD
ENDROOT
BRANCH   6  16
ATOM     16  N   UNL     1      -5.888   1.476  -2.142  0.00  0.00    -0.275 N 
ATOM     17  C   UNL     1      -6.394   2.357  -3.026  0.00  0.00    +0.252 C 
ATOM     18  O   UNL     1      -5.880   3.451  -3.156  0.00  0.00    -0.270 OA
ATOM     19  H   UNL     1      -6.298   0.603  -2.038  0.00  0.00    +0.156 HD
BRANCH  17  20
ATOM     20  C   UNL     1      -7.572   1.995  -3.836  0.00  0.00    +0.082 A 
ATOM     21  C   UNL     1      -8.167   0.738  -3.689  0.00  0.00    +0.017 A 
ATOM     22  C   UNL     1      -9.267   0.404  -4.447  0.00  0.00    +0.005 A 
ATOM     23  C   UNL     1      -9.791   1.308  -5.358  0.00  0.00    +0.049 A 
ATOM     24  C   UNL     1      -9.214   2.556  -5.515  0.00  0.00    +0.162 A 
ATOM     25  C   UNL     1      -8.105   2.911  -4.752  0.00  0.00    +0.174 A 
BRANCH  25  26
ATOM     26  O   UNL     1      -7.539   4.136  -4.899  0.00  0.00    -0.491 OA
ATOM     27  C   UNL     1      -6.504   4.259  -5.877  0.00  0.00    +0.277 C 
ENDBRANCH  25  26
BRANCH  24  28
ATOM     28  O   UNL     1      -9.733   3.438  -6.410  0.00  0.00    -0.491 OA
ATOM     29  C   UNL     1     -10.875   3.009  -7.155  0.00  0.00    +0.277 C 
ENDBRANCH  24  28
ENDBRANCH  17  20
ENDBRANCH   6  16
BRANCH   5  30
ATOM     30  C   UNL     1      -4.577  -0.306  -0.105  0.00  0.00    +0.342 C 
ATOM     31  O   UNL     1      -5.398  -0.479   0.775  0.00  0.00    -0.245 OA
BRANCH  30  32
ATOM     32  O   UNL     1      -4.084  -1.361  -0.785  0.00  0.00    -0.464 OA
ATOM     33  C   UNL     1      -4.580  -2.675  -0.413  0.00  0.00    +0.280 C 
ENDBRANCH  30  32
ENDBRANCH   5  30
TORSDOF 6
