REMARK  Name = ZINC00847923
REMARK  5 active torsions:
REMARK  status: ('A' for Active; 'I' for Inactive)
REMARK    1  A    between atoms: C_4  and  C_7
REMARK    2  A    between atoms: C_7  and  C_27
REMARK    3  A    between atoms: C_9  and  C_12
REMARK    4  A    between atoms: N_14  and  N_15
REMARK    5  A    between atoms: C_16  and  C_17
REMARK                            x       y       z     vdW  Elec       q    Type
REMARK                         _______ _______ _______ _____ _____    ______ ____
ROOT
ATOM      1  C   UNL     1       3.198  11.203   0.030  0.00  0.00    +0.104 C 
ATOM      2  C   UNL     1       1.882  10.401   0.033  0.00  0.00    +0.099 C 
ATOM      3  C   UNL     1       2.333   8.958   0.028  0.00  0.00    +0.125 C 
ATOM      4  N   UNL     1       3.626   8.911   0.015  0.00  0.00    -0.185 NA
ATOM      5  N   UNL     1       4.239  10.163   0.016  0.00  0.00    -0.253 N 
ATOM      6  H   UNL     1       5.195  10.322   0.008  0.00  0.00    +0.169 HD
ENDROOT
BRANCH   1  10
ATOM      7  C   UNL     1       3.519  13.599   3.552  0.00  0.00    +0.000 A 
ATOM      8  C   UNL     1       4.653  13.045   2.987  0.00  0.00    +0.000 A 
ATOM      9  C   UNL     1       4.549  12.269   1.848  0.00  0.00    +0.006 A 
ATOM     10  C   UNL     1       3.312  12.048   1.273  0.00  0.00    -0.018 A 
ATOM     11  C   UNL     1       2.179  12.607   1.834  0.00  0.00    +0.006 A 
ATOM     12  C   UNL     1       2.282  13.378   2.977  0.00  0.00    +0.000 A 
ENDBRANCH   1  10
BRANCH   1  13
ATOM     13  C   UNL     1       3.291  12.063  -1.204  0.00  0.00    -0.018 A 
ATOM     14  C   UNL     1       2.147  12.619  -1.746  0.00  0.00    +0.006 A 
ATOM     15  C   UNL     1       2.233  13.411  -2.876  0.00  0.00    +0.000 A 
ATOM     16  C   UNL     1       3.461  13.639  -3.468  0.00  0.00    +0.000 A 
ATOM     17  C   UNL     1       4.604  13.079  -2.929  0.00  0.00    +0.000 A 
ATOM     18  C   UNL     1       4.519  12.291  -1.797  0.00  0.00    +0.006 A 
ENDBRANCH   1  13
BRANCH   3  19
ATOM     19  C   UNL     1       1.446   7.795   0.029  0.00  0.00    +0.279 C 
ATOM     20  O   UNL     1       0.238   7.951   0.041  0.00  0.00    -0.267 OA
ATOM     21  N   UNL     1       1.965   6.551   0.018  0.00  0.00    -0.202 N 
ATOM     22  H   UNL     1       2.927   6.427   0.009  0.00  0.00    +0.178 HD
BRANCH  21  23
ATOM     23  N   UNL     1       1.115   5.437   0.020  0.00  0.00    -0.187 NA
ATOM     24  C   UNL     1       1.616   4.238   0.009  0.00  0.00    +0.140 C 
BRANCH  24  25
ATOM     25  C   UNL     1       0.723   3.068   0.011  0.00  0.00    +0.020 A 
ATOM     26  C   UNL     1       1.097   1.760   0.001  0.00  0.00    +0.093 A 
ATOM     27  N   UNL     1      -0.011   0.966   0.007  0.00  0.00    -0.360 N 
ATOM     28  H   UNL     1       0.002  -0.004   0.002  0.00  0.00    +0.165 HD
ATOM     29  C   UNL     1      -1.153   1.739   0.016  0.00  0.00    +0.047 A 
ATOM     30  C   UNL     1      -0.751   3.085   0.024  0.00  0.00    +0.008 A 
ATOM     31  C   UNL     1      -1.706   4.098   0.038  0.00  0.00    +0.010 A 
ATOM     32  C   UNL     1      -3.045   3.774   0.048  0.00  0.00    +0.001 A 
ATOM     33  C   UNL     1      -3.443   2.445   0.045  0.00  0.00    +0.002 A 
ATOM     34  C   UNL     1      -2.510   1.432   0.032  0.00  0.00    +0.026 A 
ENDBRANCH  24  25
ENDBRANCH  21  23
ENDBRANCH   3  19
TORSDOF 5
