REMARK  Name = ZINC09104928
REMARK  15 active torsions:
REMARK  status: ('A' for Active; 'I' for Inactive)
REMARK    1  A    between atoms: C_1  and  C_2
REMARK    2  A    between atoms: C_2  and  C_3
REMARK    3  A    between atoms: C_2  and  C_4
REMARK    4  A    between atoms: C_7  and  S_10
REMARK    5  A    between atoms: S_10  and  C_13
REMARK    6  A    between atoms: C_13  and  C_15
REMARK    7  A    between atoms: C_13  and  C_27
REMARK    8  A    between atoms: C_15  and  N_16
REMARK    9  A    between atoms: C_17  and  C_19
REMARK   10  A    between atoms: N_21  and  C_22
REMARK   11  A    between atoms: C_22  and  C_23
REMARK   12  A    between atoms: C_23  and  C_24
REMARK   13  A    between atoms: C_24  and  N_62
REMARK   14  A    between atoms: C_25  and  N_62
REMARK   15  A    between atoms: C_26  and  N_62
REMARK                            x       y       z     vdW  Elec       q    Type
REMARK                         _______ _______ _______ _____ _____    ______ ____
ROOT
ATOM      1  C   UNL     1      -1.530   3.197   6.218  0.00  0.00    +0.189 C 
ENDROOT
BRANCH   1   2
ATOM      2  C   UNL     1      -0.793   1.889   6.350  0.00  0.00    +0.016 A 
ATOM      3  C   UNL     1       0.520   1.624   6.139  0.00  0.00    +0.013 A 
ATOM      4  C   UNL     1       0.981   0.335   6.327  0.00  0.00    +0.008 A 
ATOM      5  C   UNL     1       0.106  -0.628   6.707  0.00  0.00    +0.045 A 
ATOM      6  S   UNL     1      -1.423   0.286   6.818  0.00  0.00    -0.100 S 
ENDBRANCH   1   2
BRANCH   1   7
ATOM      7  S   UNL     1      -2.837   3.032   4.972  0.00  0.00    +0.006 S 
ATOM      8  O   UNL     1      -3.345   4.312   4.622  0.00  0.00    -0.169 OA
ATOM      9  O   UNL     1      -3.719   1.975   5.325  0.00  0.00    -0.169 OA
BRANCH   7  13
ATOM     10  C   UNL     1      -0.718   1.572   1.248  0.00  0.00    -0.045 A 
ATOM     11  C   UNL     1      -0.856   2.928   1.478  0.00  0.00    +0.006 A 
ATOM     12  C   UNL     1      -1.506   3.374   2.614  0.00  0.00    +0.027 A 
ATOM     13  C   UNL     1      -2.012   2.463   3.523  0.00  0.00    +0.089 A 
ATOM     14  C   UNL     1      -1.870   1.107   3.295  0.00  0.00    +0.027 A 
ATOM     15  C   UNL     1      -1.222   0.662   2.158  0.00  0.00    +0.006 A 
BRANCH  10  17
ATOM     16  C   UNL     1       1.423   1.615  -0.003  0.00  0.00    +0.012 C 
ATOM     17  C   UNL     1      -0.013   1.086   0.008  0.00  0.00    +0.013 C 
ATOM     18  C   UNL     1      -0.753   1.593  -1.232  0.00  0.00    +0.012 C 
ENDBRANCH  10  17
ENDBRANCH   7  13
ENDBRANCH   1   7
BRANCH   1  19
ATOM     19  C   UNL     1      -2.153   3.569   7.565  0.00  0.00    +0.136 C 
BRANCH  19  20
ATOM     20  N   UNL     1      -2.869   4.841   7.437  0.00  0.00    -0.305 N 
ATOM     21  C   UNL     1      -3.501   5.369   8.504  0.00  0.00    +0.299 C 
ATOM     22  O   UNL     1      -3.477   4.791   9.571  0.00  0.00    -0.265 OA
ATOM     23  H   UNL     1      -2.889   5.303   6.584  0.00  0.00    +0.149 HD
BRANCH  21  24
ATOM     24  C   UNL     1      -4.232   6.666   8.373  0.00  0.00    +0.299 C 
ATOM     25  O   UNL     1      -4.256   7.244   7.306  0.00  0.00    -0.265 OA
ATOM     26  N   UNL     1      -4.864   7.194   9.440  0.00  0.00    -0.308 N 
ATOM     27  H   UNL     1      -4.845   6.732  10.293  0.00  0.00    +0.149 HD
BRANCH  26  28
ATOM     28  C   UNL     1      -5.580   8.465   9.312  0.00  0.00    +0.103 C 
BRANCH  28  29
ATOM     29  C   UNL     1      -6.204   8.838  10.659  0.00  0.00    +0.000 C 
BRANCH  29  30
ATOM     30  C   UNL     1      -6.952  10.165  10.525  0.00  0.00    -0.078 C 
BRANCH  30  33
ATOM     31  C   UNL     1      -8.072  11.896  11.795  0.00  0.00    -0.097 C 
ATOM     32  C   UNL     1      -8.600   9.567  12.194  0.00  0.00    -0.097 C 
ATOM     33  N   UNL     1      -7.530  10.521  11.838  0.00  0.00    +0.376 N 
ATOM     34  H   UNL     1      -6.792  10.476  12.550  0.00  0.00    -0.083 HD
ENDBRANCH  30  33
ENDBRANCH  29  30
ENDBRANCH  28  29
ENDBRANCH  26  28
ENDBRANCH  21  24
ENDBRANCH  19  20
ENDBRANCH   1  19
TORSDOF 11
