REMARK  Name = ZINC01118025
REMARK  10 active torsions:
REMARK  status: ('A' for Active; 'I' for Inactive)
REMARK    1  A    between atoms: C_1  and  C_2
REMARK    2  A    between atoms: C_2  and  O_3
REMARK    3  A    between atoms: O_3  and  C_4
REMARK    4  A    between atoms: C_6  and  C_13
REMARK    5  A    between atoms: C_9  and  O_10
REMARK    6  A    between atoms: O_10  and  C_11
REMARK    7  A    between atoms: C_15  and  C_22
REMARK    8  A    between atoms: C_16  and  C_21
REMARK    9  A    between atoms: C_22  and  O_24
REMARK   10  A    between atoms: O_24  and  C_25
REMARK                            x       y       z     vdW  Elec       q    Type
REMARK                         _______ _______ _______ _____ _____    ______ ____
ROOT
ATOM      1  C   UNL     1       1.290  -0.664  -0.259  0.00  0.00    +0.141 C 
ATOM      2  C   UNL     1       2.528   0.210  -0.235  0.00  0.00    +0.078 C 
ATOM      3  C   UNL     1       2.363   1.526   0.022  0.00  0.00    +0.019 C 
ATOM      4  N   UNL     1       1.124   2.049   0.254  0.00  0.00    -0.300 N 
ATOM      5  C   UNL     1      -0.002   1.324   0.245  0.00  0.00    +0.135 C 
ATOM      6  S   UNL     1      -1.494   2.108   0.544  0.00  0.00    -0.019 S 
ATOM      7  N   UNL     1       0.001  -0.002   0.003  0.00  0.00    -0.315 N 
ATOM      8  C   UNL     1       3.568   2.431   0.055  0.00  0.00    +0.061 C 
ATOM      9  H   UNL     1       1.055   2.999   0.434  0.00  0.00    +0.154 HD
ATOM     10  H   UNL     1      -0.826  -0.508   0.002  0.00  0.00    +0.149 HD
ENDROOT
BRANCH   1  13
ATOM     11  C   UNL     1       2.177  -3.972   1.337  0.00  0.00    +0.163 A 
ATOM     12  C   UNL     1       2.005  -2.972   0.394  0.00  0.00    +0.055 A 
ATOM     13  C   UNL     1       1.470  -1.753   0.768  0.00  0.00    -0.018 A 
ATOM     14  C   UNL     1       1.096  -1.532   2.080  0.00  0.00    +0.025 A 
ATOM     15  C   UNL     1       1.259  -2.528   3.026  0.00  0.00    +0.063 A 
ATOM     16  C   UNL     1       1.800  -3.751   2.658  0.00  0.00    +0.175 A 
ATOM     17 BR   UNL     1       0.746  -2.222   4.820  0.00  0.00    -0.046 Br
BRANCH  16  18
ATOM     18  O   UNL     1       1.962  -4.731   3.587  0.00  0.00    -0.490 OA
ATOM     19  C   UNL     1       0.872  -5.637   3.771  0.00  0.00    +0.277 C 
ENDBRANCH  16  18
BRANCH  11  20
ATOM     20  O   UNL     1       2.707  -5.170   0.972  0.00  0.00    -0.489 OA
BRANCH  20  22
ATOM     21  C   UNL     1       3.646  -6.727  -0.620  0.00  0.00    +0.048 C 
ATOM     22  C   UNL     1       3.071  -5.326  -0.401  0.00  0.00    +0.226 C 
ENDBRANCH  20  22
ENDBRANCH  11  20
ENDBRANCH   1  13
BRANCH   2  23
ATOM     23  C   UNL     1       3.811  -0.334  -0.475  0.00  0.00    +0.338 C 
ATOM     24  O   UNL     1       4.777   0.402  -0.563  0.00  0.00    -0.245 OA
BRANCH  23  25
ATOM     25  O   UNL     1       3.965  -1.668  -0.608  0.00  0.00    -0.465 OA
ATOM     26  C   UNL     1       5.290  -2.147  -0.849  0.00  0.00    +0.280 C 
ENDBRANCH  23  25
ENDBRANCH   2  23
TORSDOF 6
