REMARK  Name = ZINC01144967
REMARK  8 active torsions:
REMARK  status: ('A' for Active; 'I' for Inactive)
REMARK    1  A    between atoms: C_1  and  O_2
REMARK    2  A    between atoms: O_2  and  C_3
REMARK    3  A    between atoms: C_5  and  C_19
REMARK    4  A    between atoms: C_8  and  O_9
REMARK    5  A    between atoms: O_9  and  C_10
REMARK    6  A    between atoms: C_10  and  C_11
REMARK    7  A    between atoms: C_21  and  C_32
REMARK    8  A    between atoms: C_22  and  N_31
REMARK                            x       y       z     vdW  Elec       q    Type
REMARK                         _______ _______ _______ _____ _____    ______ ____
ROOT
ATOM      1  C   UNL     1      -3.589  -0.118   2.993  0.00  0.00    +0.163 A 
ATOM      2  C   UNL     1      -3.084  -0.127   1.702  0.00  0.00    +0.054 A 
ATOM      3  C   UNL     1      -1.863  -0.719   1.440  0.00  0.00    -0.030 A 
ATOM      4  C   UNL     1      -1.136  -1.294   2.467  0.00  0.00    +0.028 A 
ATOM      5  C   UNL     1      -1.631  -1.284   3.759  0.00  0.00    +0.086 A 
ATOM      6  C   UNL     1      -2.858  -0.696   4.026  0.00  0.00    +0.181 A 
ATOM      7 CL   UNL     1      -0.716  -2.007   5.044  0.00  0.00    -0.080 Cl
ENDROOT
BRANCH   3   8
ATOM      8  C   UNL     1      -1.319  -0.733   0.035  0.00  0.00    +0.101 C 
ATOM      9  C   UNL     1      -1.136  -2.156  -0.414  0.00  0.00    +0.098 C 
ATOM     10  C   UNL     1       0.096  -2.720  -0.420  0.00  0.00    +0.198 C 
ATOM     11  O   UNL     1       1.181  -2.034  -0.026  0.00  0.00    -0.445 OA
ATOM     12  C   UNL     1       1.161  -0.688  -0.035  0.00  0.00    +0.115 C 
ATOM     13  C   UNL     1       0.002  -0.004   0.002  0.00  0.00    +0.046 C 
ATOM     14  C   UNL     1      -0.017   1.404   0.010  0.00  0.00    +0.163 C 
ATOM     15  O   UNL     1      -1.083   1.986   0.018  0.00  0.00    -0.292 OA
ATOM     16  C   UNL     1       1.259   2.201   0.002  0.00  0.00    +0.080 C 
ATOM     17  C   UNL     1       2.366   1.371   0.662  0.00  0.00    +0.016 C 
ATOM     18  C   UNL     1       2.483   0.041  -0.084  0.00  0.00    +0.075 C 
BRANCH  10  19
ATOM     19  N   UNL     1       0.239  -4.019  -0.838  0.00  0.00    -0.328 N 
ATOM     20  H   UNL     1       1.116  -4.433  -0.847  0.00  0.00    +0.145 HD
ATOM     21  H   UNL     1      -0.538  -4.524  -1.125  0.00  0.00    +0.145 HD
ENDBRANCH  10  19
BRANCH   9  22
ATOM     22  C   UNL     1      -2.270  -2.920  -0.839  0.00  0.00    +0.101 C 
ATOM     23  N   UNL     1      -3.170  -3.526  -1.176  0.00  0.00    -0.191 NA
ENDBRANCH   9  22
ENDBRANCH   3   8
BRANCH   1  25
ATOM     24  C   UNL     1      -5.487   1.033   2.140  0.00  0.00    +0.277 C 
ATOM     25  O   UNL     1      -4.793   0.459   3.250  0.00  0.00    -0.491 OA
ENDBRANCH   1  25
BRANCH   6  26
ATOM     26  O   UNL     1      -3.346  -0.685   5.295  0.00  0.00    -0.482 OA
BRANCH  26  27
ATOM     27  C   UNL     1      -3.000   0.434   6.114  0.00  0.00    +0.265 C 
BRANCH  27  28
ATOM     28  C   UNL     1      -3.626   0.274   7.475  0.00  0.00    -0.008 A 
ATOM     29  C   UNL     1      -2.938  -0.380   8.480  0.00  0.00    +0.007 A 
ATOM     30  C   UNL     1      -3.511  -0.528   9.729  0.00  0.00    +0.003 A 
ATOM     31  C   UNL     1      -4.773  -0.022   9.975  0.00  0.00    +0.038 A 
ATOM     32  C   UNL     1      -5.464   0.633   8.970  0.00  0.00    +0.124 A 
ATOM     33  C   UNL     1      -4.886   0.785   7.720  0.00  0.00    +0.045 A 
ATOM     34  F   UNL     1      -6.698   1.128   9.209  0.00  0.00    -0.205 F 
ENDBRANCH  27  28
ENDBRANCH  26  27
ENDBRANCH   6  26
TORSDOF 7
