REMARK  Name = ZINC13959390
REMARK  13 active torsions:
REMARK  status: ('A' for Active; 'I' for Inactive)
REMARK    1  A    between atoms: C_1  and  C_2
REMARK    2  A    between atoms: C_2  and  N_3
REMARK    3  A    between atoms: C_4  and  C_23
REMARK    4  A    between atoms: C_7  and  S_8
REMARK    5  A    between atoms: S_8  and  C_9
REMARK    6  A    between atoms: C_9  and  C_10
REMARK    7  A    between atoms: N_12  and  N_13
REMARK    8  A    between atoms: C_16  and  C_21
REMARK    9  A    between atoms: C_16  and  C_22
REMARK   10  A    between atoms: C_17  and  C_19
REMARK   11  A    between atoms: C_17  and  C_20
REMARK   12  A    between atoms: C_25  and  C_29
REMARK   13  A    between atoms: N_27  and  C_28
REMARK                            x       y       z     vdW  Elec       q    Type
REMARK                         _______ _______ _______ _____ _____    ______ ____
ROOT
ATOM      1  S   UNL     1       5.339   1.092   2.261  0.00  0.00    -0.077 S 
ENDROOT
BRANCH   1   6
ATOM      2  N   UNL     1       2.646   1.677   1.781  0.00  0.00    -0.301 N 
ATOM      3  C   UNL     1       1.579   2.125   2.528  0.00  0.00    +0.183 A 
ATOM      4  N   UNL     1       2.016   2.302   3.755  0.00  0.00    -0.127 NA
ATOM      5  N   UNL     1       3.260   1.991   3.826  0.00  0.00    -0.122 NA
ATOM      6  C   UNL     1       3.699   1.605   2.649  0.00  0.00    +0.192 A 
BRANCH   3   7
ATOM      7  C   UNL     1       0.209   2.367   2.042  0.00  0.00    +0.106 A 
ATOM      8  C   UNL     1      -0.246   2.190   0.752  0.00  0.00    +0.065 A 
ATOM      9  C   UNL     1      -1.597   2.532   0.729  0.00  0.00    +0.166 A 
ATOM     10  N   UNL     1      -1.959   2.894   1.934  0.00  0.00    -0.167 NA
ATOM     11  N   UNL     1      -0.849   2.808   2.783  0.00  0.00    -0.263 N 
ATOM     12  C   UNL     1      -0.828   3.127   4.213  0.00  0.00    +0.173 C 
BRANCH   9  13
ATOM     13  C   UNL     1      -2.494   2.487  -0.481  0.00  0.00    +0.436 C 
ATOM     14  F   UNL     1      -3.092   1.226  -0.571  0.00  0.00    -0.164 F 
ATOM     15  F   UNL     1      -3.486   3.466  -0.362  0.00  0.00    -0.164 F 
ATOM     16  F   UNL     1      -1.737   2.728  -1.632  0.00  0.00    -0.164 F 
ENDBRANCH   9  13
ENDBRANCH   3   7
BRANCH   2  18
ATOM     17  C   UNL     1       2.855   2.622  -0.465  0.00  0.00    +0.027 C 
ATOM     18  C   UNL     1       2.651   1.346   0.354  0.00  0.00    +0.122 C 
ENDBRANCH   2  18
ENDBRANCH   1   6
BRANCH   1  19
ATOM     19  C   UNL     1       6.115   1.267   3.887  0.00  0.00    +0.174 C 
BRANCH  19  20
ATOM     20  C   UNL     1       7.567   0.871   3.795  0.00  0.00    +0.242 C 
ATOM     21  O   UNL     1       8.030   0.506   2.735  0.00  0.00    -0.273 OA
ATOM     22  N   UNL     1       8.349   0.922   4.891  0.00  0.00    -0.206 N 
ATOM     23  H   UNL     1       7.979   1.213   5.739  0.00  0.00    +0.177 HD
BRANCH  22  24
ATOM     24  N   UNL     1       9.698   0.553   4.807  0.00  0.00    -0.189 NA
ATOM     25  C   UNL     1      10.415   0.504   5.864  0.00  0.00    +0.034 C 
ATOM     26  C   UNL     1       9.816   0.699   7.239  0.00  0.00    +0.039 C 
ATOM     27  C   UNL     1      10.576   1.827   7.943  0.00  0.00    -0.068 C 
ATOM     28  C   UNL     1      12.627   1.375   6.542  0.00  0.00    -0.068 C 
ATOM     29  C   UNL     1      11.904   0.246   5.803  0.00  0.00    +0.039 C 
ATOM     30  C   UNL     1      14.072   0.902   6.814  0.00  0.00    -0.010 C 
ATOM     31  C   UNL     1      12.715   2.602   5.626  0.00  0.00    -0.010 C 
ATOM     32  C   UNL     1      10.221   1.759   9.445  0.00  0.00    -0.010 C 
ATOM     33  C   UNL     1      10.075   3.177   7.418  0.00  0.00    -0.010 C 
ATOM     34  N   UNL     1      12.060   1.716   7.878  0.00  0.00    +0.386 N 
ATOM     35  H   UNL     1      12.351   0.986   8.539  0.00  0.00    -0.084 HD
ATOM     36  H   UNL     1      12.457   2.618   8.168  0.00  0.00    -0.084 HD
ENDBRANCH  22  24
ENDBRANCH  19  20
ENDBRANCH   1  19
TORSDOF 7
