REMARK  Name = ZINC38619275
REMARK  10 active torsions:
REMARK  status: ('A' for Active; 'I' for Inactive)
REMARK    1  A    between atoms: C_1  and  O_2
REMARK    2  A    between atoms: O_2  and  C_3
REMARK    3  A    between atoms: C_6  and  N_9
REMARK    4  A    between atoms: N_12  and  C_15
REMARK    5  A    between atoms: C_15  and  C_17
REMARK    6  A    between atoms: C_15  and  C_31
REMARK    7  A    between atoms: C_17  and  N_18
REMARK    8  A    between atoms: N_18  and  S_19
REMARK    9  A    between atoms: S_19  and  C_22
REMARK   10  A    between atoms: C_27  and  N_28
REMARK                            x       y       z     vdW  Elec       q    Type
REMARK                         _______ _______ _______ _____ _____    ______ ____
ROOT
ATOM      1  C   UNL     1      -7.708  -5.256   2.466  0.00  0.00    +0.139 C 
ENDROOT
BRANCH   1   5
ATOM      2  N   UNL     1      -5.577  -2.005   0.883  0.00  0.00    -0.327 N 
ATOM      3  C   UNL     1      -5.473  -3.285   0.166  0.00  0.00    +0.120 C 
ATOM      4  C   UNL     1      -6.655  -4.170   0.575  0.00  0.00    +0.104 C 
ATOM      5  N   UNL     1      -6.696  -4.280   2.040  0.00  0.00    -0.289 NA
ATOM      6  C   UNL     1      -6.931  -2.972   2.666  0.00  0.00    +0.104 C 
ATOM      7  C   UNL     1      -5.753  -2.038   2.343  0.00  0.00    +0.120 C 
BRANCH   2  11
ATOM      8  C   UNL     1      -5.361   1.618  -1.166  0.00  0.00    +0.120 A 
ATOM      9  C   UNL     1      -5.565   1.609   0.205  0.00  0.00    +0.047 A 
ATOM     10  C   UNL     1      -5.637   0.409   0.885  0.00  0.00    +0.027 A 
ATOM     11  C   UNL     1      -5.505  -0.789   0.195  0.00  0.00    +0.030 A 
ATOM     12  C   UNL     1      -5.301  -0.779  -1.179  0.00  0.00    +0.027 A 
ATOM     13  C   UNL     1      -5.235   0.422  -1.858  0.00  0.00    +0.047 A 
BRANCH   8  15
ATOM     14  C   UNL     1      -5.429   3.993  -1.060  0.00  0.00    +0.277 C 
ATOM     15  O   UNL     1      -5.291   2.800  -1.835  0.00  0.00    -0.495 OA
ENDBRANCH   8  15
ENDBRANCH   2  11
ENDBRANCH   1   5
BRANCH   1  16
ATOM     16  C   UNL     1      -9.074  -4.784   2.038  0.00  0.00    +0.123 A 
ATOM     17  C   UNL     1     -10.160  -4.698   2.828  0.00  0.00    +0.046 A 
ATOM     18  C   UNL     1     -11.214  -4.211   2.022  0.00  0.00    +0.041 A 
ATOM     19  C   UNL     1     -10.710  -4.027   0.789  0.00  0.00    +0.195 A 
ATOM     20  O   UNL     1      -9.412  -4.370   0.806  0.00  0.00    -0.466 OA
ENDBRANCH   1  16
BRANCH   1  21
ATOM     21  C   UNL     1      -7.412  -6.612   1.821  0.00  0.00    +0.132 C 
BRANCH  21  22
ATOM     22  N   UNL     1      -6.037  -7.010   2.130  0.00  0.00    -0.188 NA
ATOM     23  H   UNL     1      -5.405  -6.354   2.463  0.00  0.00    +0.148 HD
BRANCH  22  24
ATOM     24  S   UNL     1      -5.561  -8.581   1.911  0.00  0.00    +0.061 S 
ATOM     25  O   UNL     1      -4.169  -8.626   2.194  0.00  0.00    -0.153 OA
ATOM     26  O   UNL     1      -6.505  -9.391   2.598  0.00  0.00    -0.153 OA
BRANCH  24  27
ATOM     27  C   UNL     1      -5.738  -8.945   0.196  0.00  0.00    +0.135 A 
ATOM     28  C   UNL     1      -6.638  -9.911  -0.216  0.00  0.00    +0.031 A 
ATOM     29  C   UNL     1      -6.777 -10.196  -1.561  0.00  0.00    +0.002 A 
ATOM     30  C   UNL     1      -6.018  -9.515  -2.495  0.00  0.00    +0.002 A 
ATOM     31  C   UNL     1      -5.119  -8.549  -2.083  0.00  0.00    +0.035 A 
ATOM     32  C   UNL     1      -4.983  -8.261  -0.737  0.00  0.00    +0.152 A 
BRANCH  32  33
ATOM     33  N   UNL     1      -4.025  -7.222  -0.297  0.00  0.00    +0.058 N 
ATOM     34  O   UNL     1      -3.275  -6.713  -1.097  0.00  0.00    -0.126 OA
ATOM     35  O   UNL     1      -3.991  -6.884   0.864  0.00  0.00    -0.126 OA
ENDBRANCH  32  33
ENDBRANCH  24  27
ENDBRANCH  22  24
ENDBRANCH  21  22
ENDBRANCH   1  21
TORSDOF 9
