REMARK  Name = ZINC39980853
REMARK  9 active torsions:
REMARK  status: ('A' for Active; 'I' for Inactive)
REMARK    1  A    between atoms: C_1  and  C_2
REMARK    2  A    between atoms: C_6  and  C_29
REMARK    3  A    between atoms: C_7  and  S_13
REMARK    4  A    between atoms: C_11  and  C_12
REMARK    5  A    between atoms: S_13  and  C_14
REMARK    6  A    between atoms: C_14  and  C_15
REMARK    7  A    between atoms: N_17  and  C_18
REMARK    8  A    between atoms: C_18  and  C_19
REMARK    9  A    between atoms: C_19  and  C_20
REMARK                            x       y       z     vdW  Elec       q    Type
REMARK                         _______ _______ _______ _____ _____    ______ ____
ROOT
ATOM      1  C   UNL     1       0.103  -6.937   0.779  0.00  0.00    +0.171 C 
ENDROOT
BRANCH   1   2
ATOM      2  C   UNL     1       0.125  -8.429   0.990  0.00  0.00    +0.223 C 
ATOM      3  O   UNL     1       0.131  -9.176   0.034  0.00  0.00    -0.275 OA
ATOM      4  N   UNL     1       0.138  -8.933   2.240  0.00  0.00    -0.314 N 
ATOM      5  H   UNL     1       0.133  -8.335   3.003  0.00  0.00    +0.149 HD
BRANCH   4   6
ATOM      6  C   UNL     1       0.160 -10.383   2.445  0.00  0.00    +0.109 C 
BRANCH   6   7
ATOM      7  C   UNL     1       0.171 -10.686   3.944  0.00  0.00    +0.056 C 
BRANCH   7   8
ATOM      8  C   UNL     1       0.193 -12.178   4.155  0.00  0.00    -0.021 A 
ATOM      9  C   UNL     1       1.378 -13.039   4.170  0.00  0.00    +0.003 A 
ATOM     10  C   UNL     1       2.746 -12.809   4.013  0.00  0.00    +0.010 A 
ATOM     11  C   UNL     1       3.622 -13.855   4.083  0.00  0.00    +0.001 A 
ATOM     12  C   UNL     1       3.163 -15.145   4.308  0.00  0.00    +0.002 A 
ATOM     13  C   UNL     1       1.817 -15.395   4.466  0.00  0.00    +0.026 A 
ATOM     14  C   UNL     1       0.908 -14.345   4.399  0.00  0.00    +0.047 A 
ATOM     15  N   UNL     1      -0.463 -14.269   4.513  0.00  0.00    -0.360 N 
ATOM     16  C   UNL     1      -0.870 -12.970   4.370  0.00  0.00    +0.087 A 
ATOM     17  H   UNL     1      -1.051 -15.023   4.673  0.00  0.00    +0.165 HD
ENDBRANCH   7   8
ENDBRANCH   6   7
ENDBRANCH   4   6
ENDBRANCH   1   2
BRANCH   1  18
ATOM     18  S   UNL     1       0.090  -6.577  -0.999  0.00  0.00    -0.095 S 
BRANCH  18  25
ATOM     19  C   UNL     1      -0.018   1.503   0.010  0.00  0.00    +0.044 C 
ATOM     20  C   UNL     1       0.002  -0.004   0.002  0.00  0.00    -0.047 A 
ATOM     21  C   UNL     1       0.006  -0.670  -1.186  0.00  0.00    +0.013 A 
ATOM     22  C   UNL     1       0.025  -2.075  -1.196  0.00  0.00    +0.002 A 
ATOM     23  C   UNL     1       0.030  -2.793  -2.405  0.00  0.00    +0.031 A 
ATOM     24  C   UNL     1       0.050  -4.179  -2.342  0.00  0.00    +0.084 A 
ATOM     25  C   UNL     1       0.065  -4.817  -1.078  0.00  0.00    +0.115 A 
ATOM     26  N   UNL     1       0.059  -4.121   0.039  0.00  0.00    -0.239 NA
ATOM     27  C   UNL     1       0.041  -2.783   0.033  0.00  0.00    +0.073 A 
ATOM     28  C   UNL     1       0.036  -2.060   1.237  0.00  0.00    +0.032 A 
ATOM     29  C   UNL     1       0.023  -0.698   1.209  0.00  0.00    -0.045 A 
ATOM     30  C   UNL     1       0.025   0.070   2.506  0.00  0.00    +0.044 C 
BRANCH  24  31
ATOM     31  C   UNL     1       0.055  -4.957  -3.544  0.00  0.00    +0.102 C 
ATOM     32  N   UNL     1       0.059  -5.574  -4.498  0.00  0.00    -0.191 NA
ENDBRANCH  24  31
ENDBRANCH  18  25
ENDBRANCH   1  18
TORSDOF 7
