REMARK  Name = ZINC20858891
REMARK  5 active torsions:
REMARK  status: ('A' for Active; 'I' for Inactive)
REMARK    1  A    between atoms: C_1  and  C_2
REMARK    2  A    between atoms: C_6  and  C_8
REMARK    3  A    between atoms: C_14  and  C_18
REMARK    4  A    between atoms: C_18  and  S_19
REMARK    5  A    between atoms: S_19  and  C_20
REMARK                            x       y       z     vdW  Elec       q    Type
REMARK                         _______ _______ _______ _____ _____    ______ ____
ROOT
ATOM      1  C   UNL     1      11.357   5.368   1.302  0.00  0.00    +0.132 A 
ATOM      2  N   UNL     1      10.776   5.570   0.148  0.00  0.00    -0.154 NA
ATOM      3  N   UNL     1       9.416   5.333  -0.029  0.00  0.00    -0.171 N 
ATOM      4  C   UNL     1       8.693   5.503  -1.175  0.00  0.00    +0.275 A 
ATOM      5  O   UNL     1       9.240   5.905  -2.190  0.00  0.00    -0.266 OA
ATOM      6  C   UNL     1       7.327   5.216  -1.184  0.00  0.00    +0.096 A 
ATOM      7  C   UNL     1       6.716   4.763  -0.035  0.00  0.00    +0.060 A 
ATOM      8  N   UNL     1       7.449   4.614   1.066  0.00  0.00    -0.225 NA
ATOM      9  C   UNL     1       8.731   4.880   1.065  0.00  0.00    +0.199 A 
ATOM     10  S   UNL     1       9.999   4.797   2.310  0.00  0.00    -0.028 S 
ENDROOT
BRANCH   1  16
ATOM     11  C   UNL     1      14.989   5.170   4.719  0.00  0.00    +0.044 C 
ATOM     12  C   UNL     1      14.527   5.468   3.316  0.00  0.00    -0.050 A 
ATOM     13  C   UNL     1      15.431   5.924   2.373  0.00  0.00    +0.003 A 
ATOM     14  C   UNL     1      15.014   6.200   1.084  0.00  0.00    +0.001 A 
ATOM     15  C   UNL     1      13.694   6.016   0.728  0.00  0.00    +0.010 A 
ATOM     16  C   UNL     1      12.776   5.562   1.675  0.00  0.00    +0.009 A 
ATOM     17  C   UNL     1      13.203   5.285   2.974  0.00  0.00    +0.014 A 
ENDBRANCH   1  16
BRANCH   7  18
ATOM     18  C   UNL     1       5.242   4.449  -0.023  0.00  0.00    +0.133 C 
BRANCH  18  19
ATOM     19  S   UNL     1       5.008   2.654  -0.030  0.00  0.00    -0.082 S 
BRANCH  19  20
ATOM     20  C   UNL     1       3.248   2.575  -0.015  0.00  0.00    +0.168 A 
ATOM     21  N   UNL     1       2.514   1.422  -0.014  0.00  0.00    -0.333 N 
ATOM     22  H   UNL     1       3.022   0.446  -0.024  0.00  0.00    +0.168 HD
ATOM     23  C   UNL     1       1.178   1.787   0.000  0.00  0.00    +0.067 A 
ATOM     24  C   UNL     1      -0.013   1.076   0.008  0.00  0.00    +0.028 A 
ATOM     25  C   UNL     1      -1.216   1.751   0.017  0.00  0.00    +0.002 A 
ATOM     26  C   UNL     1      -1.243   3.138   0.030  0.00  0.00    +0.002 A 
ATOM     27  C   UNL     1      -0.071   3.860   0.023  0.00  0.00    +0.030 A 
ATOM     28  C   UNL     1       1.156   3.191   0.008  0.00  0.00    +0.090 A 
ATOM     29  N   UNL     1       2.448   3.612  -0.001  0.00  0.00    -0.222 NA
ENDBRANCH  19  20
ENDBRANCH  18  19
ENDBRANCH   7  18
TORSDOF 4
