REMARK  Name = ZINC00269183
REMARK  3 active torsions:
REMARK  status: ('A' for Active; 'I' for Inactive)
REMARK    1  A    between atoms: C_1  and  C_2
REMARK    2  A    between atoms: C_5  and  C_21
REMARK    3  A    between atoms: C_6  and  N_8
REMARK                            x       y       z     vdW  Elec       q    Type
REMARK                         _______ _______ _______ _____ _____    ______ ____
ROOT
ATOM      1  N   UNL     1      -2.901   2.961   0.027  0.00  0.00    -0.248 N 
ATOM      2  C   UNL     1      -3.792   3.540   0.902  0.00  0.00    +0.189 C 
ATOM      3  N   UNL     1      -4.930   2.918   1.147  0.00  0.00    -0.185 NA
ATOM      4  C   UNL     1      -5.209   1.734   0.577  0.00  0.00    +0.213 C 
ATOM      5  N   UNL     1      -4.295   1.028  -0.035  0.00  0.00    -0.226 NA
ATOM      6  C   UNL     1      -2.906   1.495  -0.077  0.00  0.00    +0.137 C 
ATOM      7  C   UNL     1      -2.259   1.075  -1.396  0.00  0.00    +0.050 C 
ATOM      8  C   UNL     1      -0.813   1.574  -1.437  0.00  0.00    +0.004 C 
ATOM      9  C   UNL     1      -0.032   0.972  -0.267  0.00  0.00    +0.000 C 
ATOM     10  C   UNL     1      -0.680   1.398   1.052  0.00  0.00    +0.004 C 
ATOM     11  C   UNL     1      -2.126   0.898   1.094  0.00  0.00    +0.050 C 
ATOM     12  N   UNL     1      -6.500   1.248   0.638  0.00  0.00    -0.328 N 
ATOM     13  N   UNL     1      -3.503   4.732   1.506  0.00  0.00    -0.331 N 
ATOM     14  H   UNL     1      -7.189   1.760   1.089  0.00  0.00    +0.145 HD
ATOM     15  H   UNL     1      -6.716   0.394   0.232  0.00  0.00    +0.145 HD
ATOM     16  H   UNL     1      -2.663   5.179   1.319  0.00  0.00    +0.145 HD
ATOM     17  H   UNL     1      -4.138   5.130   2.121  0.00  0.00    +0.145 HD
ENDROOT
BRANCH   1  23
ATOM     18  C   UNL     1       1.298   5.492  -0.322  0.00  0.00    +0.044 C 
ATOM     19  C   UNL     1       0.018   4.979  -0.930  0.00  0.00    -0.049 A 
ATOM     20  C   UNL     1      -0.290   5.278  -2.245  0.00  0.00    +0.004 A 
ATOM     21  C   UNL     1      -1.462   4.808  -2.807  0.00  0.00    +0.005 A 
ATOM     22  C   UNL     1      -2.328   4.036  -2.058  0.00  0.00    -0.029 A 
ATOM     23  C   UNL     1      -2.025   3.739  -0.736  0.00  0.00    +0.042 A 
ATOM     24  C   UNL     1      -0.845   4.212  -0.174  0.00  0.00    +0.027 A 
ATOM     25  C   UNL     1      -3.604   3.520  -2.673  0.00  0.00    +0.045 C 
ENDBRANCH   1  23
TORSDOF 1
