REMARK  Name = ZINC14252549
REMARK  6 active torsions:
REMARK  status: ('A' for Active; 'I' for Inactive)
REMARK    1  A    between atoms: C_1  and  C_2
REMARK    2  A    between atoms: C_2  and  C_3
REMARK    3  A    between atoms: C_2  and  N_38
REMARK    4  A    between atoms: C_6  and  N_9
REMARK    5  A    between atoms: N_9  and  S_10
REMARK    6  A    between atoms: S_10  and  C_13
REMARK                            x       y       z     vdW  Elec       q    Type
REMARK                         _______ _______ _______ _____ _____    ______ ____
ROOT
ATOM      1  N   UNL     1      -1.370  -0.513   0.071  0.00  0.00    -0.187 NA
ATOM      2  H   UNL     1      -2.038  -0.038   0.591  0.00  0.00    +0.148 HD
ENDROOT
BRANCH   1   5
ATOM      3  C   UNL     1       1.419   2.052  -0.001  0.00  0.00    -0.077 C 
ATOM      4  C   UNL     1      -0.019   1.527   0.010  0.00  0.00    +0.002 C 
ATOM      5  C   UNL     1       0.002  -0.004   0.002  0.00  0.00    +0.073 C 
ATOM      6  C   UNL     1       0.794  -0.503   1.214  0.00  0.00    +0.002 C 
ATOM      7  C   UNL     1       2.208   0.081   1.168  0.00  0.00    -0.077 C 
ATOM      8  N   UNL     1       2.120   1.556   1.203  0.00  0.00    +0.381 N 
ATOM      9  H   UNL     1       1.590   1.839   2.037  0.00  0.00    -0.081 HD
BRANCH   8  11
ATOM     10  C   UNL     1       3.357   3.667   1.283  0.00  0.00    -0.014 C 
ATOM     11  C   UNL     1       3.474   2.142   1.275  0.00  0.00    -0.075 C 
ATOM     12  C   UNL     1       4.147   1.675   2.567  0.00  0.00    -0.014 C 
ENDBRANCH   8  11
ENDBRANCH   1   5
BRANCH   1  13
ATOM     13  S   UNL     1      -1.781  -1.898  -0.738  0.00  0.00    +0.065 S 
ATOM     14  O   UNL     1      -3.153  -2.141  -0.456  0.00  0.00    -0.153 OA
ATOM     15  O   UNL     1      -1.290  -1.756  -2.063  0.00  0.00    -0.153 OA
BRANCH  13  16
ATOM     16  C   UNL     1      -0.875  -3.219  -0.003  0.00  0.00    +0.143 A 
ATOM     17  C   UNL     1      -1.222  -4.017   1.035  0.00  0.00    +0.037 A 
ATOM     18  C   UNL     1      -0.344  -5.005   1.444  0.00  0.00    +0.025 A 
ATOM     19  C   UNL     1       0.842  -5.136   0.800  0.00  0.00    +0.057 A 
ATOM     20  S   UNL     1       0.741  -3.846  -0.429  0.00  0.00    -0.062 S 
ATOM     21 BR   UNL     1       2.241  -6.367   1.122  0.00  0.00    -0.043 Br
ENDBRANCH  13  16
ENDBRANCH   1  13
TORSDOF 4
