REMARK  Name = ZINC19884068
REMARK  10 active torsions:
REMARK  status: ('A' for Active; 'I' for Inactive)
REMARK    1  A    between atoms: C_1  and  N_2
REMARK    2  A    between atoms: N_2  and  C_3
REMARK    3  A    between atoms: N_2  and  C_33
REMARK    4  A    between atoms: C_3  and  C_4
REMARK    5  A    between atoms: C_8  and  O_10
REMARK    6  A    between atoms: O_10  and  C_11
REMARK    7  A    between atoms: C_11  and  C_12
REMARK    8  A    between atoms: C_12  and  N_13
REMARK    9  A    between atoms: C_19  and  C_21
REMARK   10  A    between atoms: C_33  and  C_34
REMARK                            x       y       z     vdW  Elec       q    Type
REMARK                         _______ _______ _______ _____ _____    ______ ____
ROOT
ATOM      1  C   UNL     1      -9.918   1.157   1.789  0.00  0.00    +0.125 C 
ENDROOT
BRANCH   1   2
ATOM      2  N   UNL     1      -9.736   1.481   0.368  0.00  0.00    -0.296 NA
ATOM      3  C   UNL     1     -10.633   2.569  -0.043  0.00  0.00    +0.103 C 
ATOM      4  C   UNL     1     -10.288   2.998  -1.473  0.00  0.00    +0.123 C 
ATOM      5  N   UNL     1     -10.315   1.809  -2.338  0.00  0.00    -0.295 N 
ATOM      6  C   UNL     1      -9.547   0.626  -1.919  0.00  0.00    +0.123 C 
ATOM      7  C   UNL     1      -9.922   0.290  -0.471  0.00  0.00    +0.103 C 
ATOM      8  C   UNL     1     -11.025   1.802  -3.483  0.00  0.00    +0.252 C 
ATOM      9  O   UNL     1     -11.113   0.781  -4.139  0.00  0.00    -0.270 OA
BRANCH   8  10
ATOM     10  C   UNL     1     -11.695   3.029  -3.940  0.00  0.00    +0.101 A 
ATOM     11  C   UNL     1     -10.967   4.067  -4.509  0.00  0.00    +0.023 A 
ATOM     12  C   UNL     1     -11.630   5.223  -4.944  0.00  0.00    -0.027 A 
ATOM     13  C   UNL     1     -12.972   5.324  -4.803  0.00  0.00    +0.022 A 
ATOM     14  N   UNL     1     -13.686   4.312  -4.232  0.00  0.00    -0.325 N 
ATOM     15  H   UNL     1     -14.775   4.408  -4.111  0.00  0.00    +0.169 HD
ATOM     16  C   UNL     1     -13.100   3.183  -3.804  0.00  0.00    +0.261 A 
ATOM     17  O   UNL     1     -13.769   2.296  -3.303  0.00  0.00    -0.267 OA
ATOM     18  C   UNL     1     -13.749   6.531  -5.268  0.00  0.00    +0.053 C 
ATOM     19  C   UNL     1     -12.822   7.726  -5.470  0.00  0.00    +0.006 C 
ATOM     20  C   UNL     1     -11.651   7.282  -6.355  0.00  0.00    +0.005 C 
ATOM     21  C   UNL     1     -10.786   6.314  -5.552  0.00  0.00    +0.037 C 
ENDBRANCH   8  10
ENDBRANCH   1   2
BRANCH   1  22
ATOM     22  C   UNL     1      -8.684   0.415   2.306  0.00  0.00    +0.244 C 
BRANCH  22  23
ATOM     23  O   UNL     1      -7.548   1.279   2.243  0.00  0.00    -0.491 OA
BRANCH  23  28
ATOM     24  C   UNL     1      -4.013   1.035   3.070  0.00  0.00    -0.061 A 
ATOM     25  C   UNL     1      -3.947  -0.265   3.535  0.00  0.00    +0.002 A 
ATOM     26  C   UNL     1      -5.085  -1.048   3.568  0.00  0.00    +0.004 A 
ATOM     27  C   UNL     1      -6.293  -0.534   3.136  0.00  0.00    +0.045 A 
ATOM     28  C   UNL     1      -6.361   0.770   2.668  0.00  0.00    +0.121 A 
ATOM     29  C   UNL     1      -5.218   1.556   2.641  0.00  0.00    +0.047 A 
BRANCH  24  30
ATOM     30  C   UNL     1      -2.770   1.887   3.036  0.00  0.00    -0.043 C 
BRANCH  30  32
ATOM     31  C   UNL     1      -2.916   2.253   0.647  0.00  0.00    -0.096 C 
ATOM     32  N   UNL     1      -2.096   1.718   1.742  0.00  0.00    +0.382 N 
ATOM     33  H   UNL     1      -1.963   0.640   1.568  0.00  0.00    -0.082 HD
BRANCH  32  34
ATOM     34  C   UNL     1      -0.766   2.341   1.756  0.00  0.00    -0.056 C 
BRANCH  34  35
ATOM     35  C   UNL     1       0.001   1.936   0.495  0.00  0.00    +0.057 C 
ATOM     36  C   UNL     1       1.464   2.424   0.579  0.00  0.00    +0.029 C 
ATOM     37  C   UNL     1       2.221   1.275  -0.126  0.00  0.00    +0.097 C 
ATOM     38  C   UNL     1       1.316   0.075   0.045  0.00  0.00    +0.213 C 
ATOM     39  O   UNL     1       1.654  -1.079  -0.113  0.00  0.00    -0.276 OA
ATOM     40  N   UNL     1       0.081   0.473   0.398  0.00  0.00    -0.314 N 
ATOM     41  H   UNL     1      -0.807  -0.141   0.605  0.00  0.00    +0.149 HD
ENDBRANCH  34  35
ENDBRANCH  32  34
ENDBRANCH  30  32
ENDBRANCH  24  30
ENDBRANCH  23  28
ENDBRANCH  22  23
ENDBRANCH   1  22
TORSDOF 9
