REMARK  Name = ZINC59872954
REMARK  8 active torsions:
REMARK  status: ('A' for Active; 'I' for Inactive)
REMARK    1  A    between atoms: C_1  and  C_2
REMARK    2  A    between atoms: C_2  and  C_4
REMARK    3  A    between atoms: C_2  and  O_11
REMARK    4  A    between atoms: N_9  and  C_10
REMARK    5  A    between atoms: O_11  and  C_12
REMARK    6  A    between atoms: C_12  and  C_14
REMARK    7  A    between atoms: C_17  and  O_33
REMARK    8  A    between atoms: C_21  and  C_23
REMARK                            x       y       z     vdW  Elec       q    Type
REMARK                         _______ _______ _______ _____ _____    ______ ____
ROOT
ATOM      1  C   UNL     1       0.547  -1.195   3.443  0.00  0.00    +0.187 C 
ATOM      2  C   UNL     1       1.093  -2.593   3.086  0.00  0.00    +0.066 C 
ATOM      3  C   UNL     1       0.775  -3.426   4.356  0.00  0.00    +0.134 C 
ATOM      4  C   UNL     1      -0.579  -2.816   4.796  0.00  0.00    +0.140 C 
ATOM      5  N   UNL     1      -0.458  -1.373   4.502  0.00  0.00    -0.285 N 
ATOM      6  C   UNL     1      -1.150  -0.384   5.103  0.00  0.00    +0.223 C 
ATOM      7  O   UNL     1      -0.909   0.774   4.835  0.00  0.00    -0.275 OA
ENDROOT
BRANCH   6   8
ATOM      8  C   UNL     1      -2.223  -0.718   6.106  0.00  0.00    +0.048 C 
ATOM      9  C   UNL     1      -1.578  -1.271   7.378  0.00  0.00    +0.019 C 
ATOM     10  C   UNL     1      -2.667  -1.610   8.398  0.00  0.00    -0.009 C 
ATOM     11  C   UNL     1      -3.461  -0.346   8.736  0.00  0.00    +0.007 C 
ATOM     12  C   UNL     1      -4.106   0.207   7.463  0.00  0.00    -0.009 C 
ATOM     13  C   UNL     1      -3.016   0.546   6.444  0.00  0.00    +0.019 C 
ATOM     14  C   UNL     1      -5.048  -0.844   6.872  0.00  0.00    +0.007 C 
ATOM     15  C   UNL     1      -4.255  -2.107   6.534  0.00  0.00    -0.009 C 
ATOM     16  C   UNL     1      -3.610  -2.660   7.806  0.00  0.00    +0.007 C 
ATOM     17  C   UNL     1      -3.166  -1.768   5.515  0.00  0.00    +0.019 C 
ENDBRANCH   6   8
BRANCH   1  18
ATOM     18  C   UNL     1      -0.092  -0.569   2.231  0.00  0.00    +0.329 C 
ATOM     19  O   UNL     1      -1.268  -0.290   2.244  0.00  0.00    -0.249 OA
BRANCH  18  20
ATOM     20  O   UNL     1       0.644  -0.320   1.137  0.00  0.00    -0.451 OA
BRANCH  20  22
ATOM     21  C   UNL     1       0.050   1.798   0.137  0.00  0.00    +0.062 C 
ATOM     22  C   UNL     1      -0.027   0.275   0.024  0.00  0.00    +0.259 C 
BRANCH  22  23
ATOM     23  C   UNL     1       0.634  -0.168  -1.256  0.00  0.00    +0.261 C 
ATOM     24  O   UNL     1       1.639  -0.845  -1.217  0.00  0.00    -0.271 OA
ATOM     25  N   UNL     1       0.107   0.188  -2.445  0.00  0.00    -0.237 N 
ATOM     26  C   UNL     1       0.698  -0.207  -3.589  0.00  0.00    +0.306 C 
ATOM     27  O   UNL     1       1.705  -0.886  -3.550  0.00  0.00    -0.252 OA
ATOM     28  N   UNL     1       0.171   0.149  -4.778  0.00  0.00    -0.302 N 
ATOM     29  C   UNL     1       0.813  -0.281  -6.022  0.00  0.00    +0.129 C 
ATOM     30  H   UNL     1      -0.697   0.730  -2.476  0.00  0.00    +0.159 HD
ATOM     31  H   UNL     1      -0.633   0.690  -4.809  0.00  0.00    +0.150 HD
ENDBRANCH  22  23
ENDBRANCH  20  22
ENDBRANCH  18  20
ENDBRANCH   1  18
BRANCH   3  32
ATOM     32  O   UNL     1       0.633  -4.812   4.037  0.00  0.00    -0.390 OA
ATOM     33  H   UNL     1       0.434  -5.372   4.799  0.00  0.00    +0.210 HD
ENDBRANCH   3  32
TORSDOF 6
