REMARK  Name = ZINC16842154
REMARK  7 active torsions:
REMARK  status: ('A' for Active; 'I' for Inactive)
REMARK    1  A    between atoms: C_5  and  N_7
REMARK    2  A    between atoms: C_8  and  C_10
REMARK    3  A    between atoms: C_10  and  S_11
REMARK    4  A    between atoms: S_11  and  C_12
REMARK    5  A    between atoms: C_15  and  S_19
REMARK    6  A    between atoms: C_16  and  N_18
REMARK    7  A    between atoms: S_19  and  C_22
REMARK                            x       y       z     vdW  Elec       q    Type
REMARK                         _______ _______ _______ _____ _____    ______ ____
ROOT
ATOM      1  C   UNL     1      -3.488   5.051   4.319  0.00  0.00    +0.190 A 
ATOM      2  N   UNL     1      -3.034   6.033   3.553  0.00  0.00    -0.228 NA
ATOM      3  C   UNL     1      -2.722   5.817   2.284  0.00  0.00    +0.144 A 
ATOM      4  C   UNL     1      -2.884   4.552   1.753  0.00  0.00    +0.152 A 
ATOM      5  C   UNL     1      -3.364   3.538   2.584  0.00  0.00    +0.146 A 
ATOM      6  N   UNL     1      -3.653   3.823   3.850  0.00  0.00    -0.205 NA
ENDROOT
BRANCH   5   7
ATOM      7  N   UNL     1      -3.537   2.252   2.097  0.00  0.00    -0.342 N 
ATOM      8  H   UNL     1      -3.324   2.052   1.172  0.00  0.00    +0.144 HD
ATOM      9  H   UNL     1      -3.871   1.553   2.680  0.00  0.00    +0.144 HD
ENDBRANCH   5   7
BRANCH   4  10
ATOM     10  S   UNL     1      -2.487   4.224   0.068  0.00  0.00    +0.036 S 
ATOM     11  O   UNL     1      -2.008   5.444  -0.481  0.00  0.00    -0.164 OA
ATOM     12  O   UNL     1      -3.595   3.524  -0.481  0.00  0.00    -0.164 OA
BRANCH  10  13
ATOM     13  C   UNL     1      -1.129   3.101   0.062  0.00  0.00    +0.131 A 
ATOM     14  C   UNL     1      -1.142   1.746   0.053  0.00  0.00    +0.035 A 
ATOM     15  C   UNL     1       0.061   1.064   0.053  0.00  0.00    +0.009 A 
ATOM     16  C   UNL     1       1.217   1.771   0.052  0.00  0.00    +0.047 A 
ATOM     17  S   UNL     1       0.622   3.454   0.058  0.00  0.00    -0.078 S 
ENDBRANCH  10  13
ENDBRANCH   4  10
BRANCH   1  18
ATOM     18  S   UNL     1      -3.882   5.388   6.003  0.00  0.00    -0.077 S 
BRANCH  18  19
ATOM     19  C   UNL     1      -3.476   7.150   6.075  0.00  0.00    +0.173 C 
BRANCH  19  21
ATOM     20  N   UNL     1      -3.511   8.966   7.754  0.00  0.00    -0.284 N 
ATOM     21  C   UNL     1      -3.743   7.671   7.464  0.00  0.00    +0.228 C 
ATOM     22  O   UNL     1      -4.165   6.924   8.321  0.00  0.00    -0.275 OA
ATOM     23  H   UNL     1      -3.112   9.548   7.088  0.00  0.00    +0.155 HD
BRANCH  20  28
ATOM     24  C   UNL     1      -4.050   9.173  11.385  0.00  0.00    +0.002 A 
ATOM     25  C   UNL     1      -4.510  10.471  11.509  0.00  0.00    +0.001 A 
ATOM     26  C   UNL     1      -4.639  11.272  10.389  0.00  0.00    +0.017 A 
ATOM     27  C   UNL     1      -4.309  10.776   9.142  0.00  0.00    +0.039 A 
ATOM     28  C   UNL     1      -3.846   9.472   9.015  0.00  0.00    +0.047 A 
ATOM     29  C   UNL     1      -3.723   8.670  10.142  0.00  0.00    +0.024 A 
ATOM     30 BR   UNL     1      -4.487  11.870   7.610  0.00  0.00    -0.048 Br
ENDBRANCH  20  28
ENDBRANCH  19  21
ENDBRANCH  18  19
ENDBRANCH   1  18
TORSDOF 7
