REMARK  Name = ZINC39597796
REMARK  5 active torsions:
REMARK  status: ('A' for Active; 'I' for Inactive)
REMARK    1  A    between atoms: C_7  and  C_10
REMARK    2  A    between atoms: C_10  and  C_11
REMARK    3  A    between atoms: C_11  and  N_12
REMARK    4  A    between atoms: C_13  and  C_15
REMARK    5  A    between atoms: C_26  and  C_28
REMARK                            x       y       z     vdW  Elec       q    Type
REMARK                         _______ _______ _______ _____ _____    ______ ____
ROOT
ATOM      1  C   UNL     1      -6.091   6.581  -2.717  0.00  0.00    +0.100 C 
ATOM      2  C   UNL     1      -7.462   6.906  -2.082  0.00  0.00    +0.121 C 
ATOM      3  N   UNL     1      -8.021   7.985  -2.930  0.00  0.00    -0.296 N 
ATOM      4  C   UNL     1      -7.646   7.601  -4.311  0.00  0.00    +0.115 C 
ATOM      5  C   UNL     1      -6.216   7.038  -4.181  0.00  0.00    -0.004 C 
ATOM      6  C   UNL     1      -6.029   5.852  -5.122  0.00  0.00    -0.010 C 
ATOM      7  C   UNL     1      -6.099   6.341  -6.572  0.00  0.00    -0.082 C 
ATOM      8  N   UNL     1      -5.053   7.345  -6.803  0.00  0.00    +0.379 N 
ATOM      9  C   UNL     1      -5.295   8.522  -5.960  0.00  0.00    -0.082 C 
ATOM     10  C   UNL     1      -5.190   8.126  -4.484  0.00  0.00    -0.010 C 
ATOM     11  C   UNL     1      -8.715   9.071  -2.534  0.00  0.00    +0.247 C 
ATOM     12  O   UNL     1      -8.849   9.308  -1.350  0.00  0.00    -0.270 OA
ATOM     13  H   UNL     1      -4.153   6.950  -6.576  0.00  0.00    -0.086 HD
ATOM     14  H   UNL     1      -5.062   7.621  -7.773  0.00  0.00    -0.086 HD
ENDROOT
BRANCH  11  15
ATOM     15  C   UNL     1      -9.314   9.976  -3.543  0.00  0.00    +0.040 A 
ATOM     16  C   UNL     1      -9.541   9.541  -4.852  0.00  0.00    +0.033 A 
ATOM     17  C   UNL     1     -10.102  10.418  -5.761  0.00  0.00    +0.111 A 
ATOM     18  N   UNL     1     -10.421  11.647  -5.407  0.00  0.00    -0.263 NA
ATOM     19  C   UNL     1     -10.223  12.097  -4.184  0.00  0.00    +0.111 A 
ATOM     20  C   UNL     1      -9.672  11.285  -3.210  0.00  0.00    +0.033 A 
ENDBRANCH  11  15
BRANCH   1  22
ATOM     21  N   UNL     1      -4.551   4.650  -2.593  0.00  0.00    -0.315 N 
ATOM     22  C   UNL     1      -5.820   5.101  -2.651  0.00  0.00    +0.218 C 
ATOM     23  O   UNL     1      -6.743   4.314  -2.650  0.00  0.00    -0.275 OA
ATOM     24  H   UNL     1      -3.812   5.279  -2.594  0.00  0.00    +0.149 HD
BRANCH  21  25
ATOM     25  C   UNL     1      -4.287   3.210  -2.529  0.00  0.00    +0.109 C 
BRANCH  25  26
ATOM     26  C   UNL     1      -2.777   2.971  -2.471  0.00  0.00    +0.056 C 
BRANCH  26  33
ATOM     27  C   UNL     1      -2.384  -0.367  -5.739  0.00  0.00    +0.001 A 
ATOM     28  C   UNL     1      -2.123  -1.621  -5.203  0.00  0.00    +0.002 A 
ATOM     29  C   UNL     1      -2.006  -1.792  -3.841  0.00  0.00    +0.026 A 
ATOM     30  C   UNL     1      -2.148  -0.699  -2.992  0.00  0.00    +0.047 A 
ATOM     31  N   UNL     1      -2.089  -0.546  -1.625  0.00  0.00    -0.360 N 
ATOM     32  C   UNL     1      -2.304   0.764  -1.294  0.00  0.00    +0.087 A 
ATOM     33  C   UNL     1      -2.505   1.490  -2.405  0.00  0.00    -0.021 A 
ATOM     34  C   UNL     1      -2.412   0.570  -3.541  0.00  0.00    +0.003 A 
ATOM     35  C   UNL     1      -2.522   0.721  -4.924  0.00  0.00    +0.010 A 
ATOM     36  H   UNL     1      -1.920  -1.261  -0.991  0.00  0.00    +0.165 HD
ENDBRANCH  26  33
ENDBRANCH  25  26
ENDBRANCH  21  25
ENDBRANCH   1  22
TORSDOF 5
