REMARK  Name = ZINC19817395
REMARK  6 active torsions:
REMARK  status: ('A' for Active; 'I' for Inactive)
REMARK    1  A    between atoms: C_1  and  C_2
REMARK    2  A    between atoms: C_4  and  C_30
REMARK    3  A    between atoms: C_6  and  S_8
REMARK    4  A    between atoms: S_8  and  C_9
REMARK    5  A    between atoms: C_9  and  C_10
REMARK    6  A    between atoms: C_21  and  C_29
REMARK                            x       y       z     vdW  Elec       q    Type
REMARK                         _______ _______ _______ _____ _____    ______ ____
ROOT
ATOM      1  C   UNL     1       0.056  -2.148   5.299  0.00  0.00    +0.060 A 
ATOM      2  C   UNL     1       1.200  -2.122   6.043  0.00  0.00    +0.094 A 
ATOM      3  C   UNL     1       1.188  -2.694   7.327  0.00  0.00    +0.253 A 
ATOM      4  O   UNL     1       2.192  -2.688   8.020  0.00  0.00    -0.268 OA
ATOM      5  N   UNL     1       0.044  -3.251   7.779  0.00  0.00    -0.295 N 
ATOM      6  H   UNL     1       0.013  -3.651   8.663  0.00  0.00    +0.172 HD
ATOM      7  C   UNL     1      -1.066  -3.247   6.993  0.00  0.00    +0.202 A 
ATOM      8  N   UNL     1      -1.049  -2.704   5.792  0.00  0.00    -0.220 NA
ATOM      9  N   UNL     1      -2.225  -3.815   7.460  0.00  0.00    -0.254 N 
ATOM     10  C   UNL     1      -3.364  -3.818   6.667  0.00  0.00    +0.222 A 
ATOM     11  N   UNL     1      -4.475  -4.370   7.149  0.00  0.00    -0.219 NA
ATOM     12  C   UNL     1      -5.588  -4.405   6.446  0.00  0.00    +0.051 A 
ATOM     13  C   UNL     1      -5.585  -3.839   5.157  0.00  0.00    +0.022 A 
ATOM     14  C   UNL     1      -6.728  -3.833   4.345  0.00  0.00    +0.012 A 
ATOM     15  C   UNL     1      -6.667  -3.271   3.105  0.00  0.00    +0.001 A 
ATOM     16  C   UNL     1      -5.486  -2.702   2.634  0.00  0.00    +0.002 A 
ATOM     17  C   UNL     1      -4.358  -2.690   3.397  0.00  0.00    +0.028 A 
ATOM     18  C   UNL     1      -4.382  -3.259   4.678  0.00  0.00    +0.076 A 
ATOM     19  N   UNL     1      -3.303  -3.269   5.471  0.00  0.00    -0.214 NA
ATOM     20  C   UNL     1      -6.836  -5.035   7.008  0.00  0.00    +0.066 C 
ATOM     21  H   UNL     1      -2.248  -4.213   8.344  0.00  0.00    +0.158 HD
ENDROOT
BRANCH   1  22
ATOM     22  C   UNL     1       0.041  -1.542   3.919  0.00  0.00    +0.133 C 
BRANCH  22  23
ATOM     23  S   UNL     1       0.053  -2.864   2.678  0.00  0.00    -0.080 S 
BRANCH  23  29
ATOM     24  C   UNL     1      -0.018   1.503   0.010  0.00  0.00    +0.066 C 
ATOM     25  C   UNL     1       0.002  -0.004   0.002  0.00  0.00    +0.043 A 
ATOM     26  C   UNL     1       0.006  -0.699  -1.198  0.00  0.00    +0.046 A 
ATOM     27  C   UNL     1       0.025  -2.084  -1.161  0.00  0.00    +0.043 A 
ATOM     28  N   UNL     1       0.039  -2.699   0.010  0.00  0.00    -0.227 NA
ATOM     29  C   UNL     1       0.035  -2.005   1.140  0.00  0.00    +0.189 A 
ATOM     30  N   UNL     1       0.022  -0.679   1.139  0.00  0.00    -0.227 NA
ATOM     31  C   UNL     1       0.029  -2.881  -2.440  0.00  0.00    +0.066 C 
ENDBRANCH  23  29
ENDBRANCH  22  23
ENDBRANCH   1  22
TORSDOF 3
