REMARK  Name = ZINC24705327
REMARK  7 active torsions:
REMARK  status: ('A' for Active; 'I' for Inactive)
REMARK    1  A    between atoms: C_6  and  S_7
REMARK    2  A    between atoms: S_7  and  N_10
REMARK    3  A    between atoms: N_10  and  C_11
REMARK    4  A    between atoms: C_11  and  C_12
REMARK    5  A    between atoms: C_12  and  C_13
REMARK    6  A    between atoms: N_15  and  N_16
REMARK    7  A    between atoms: C_17  and  C_19
REMARK                            x       y       z     vdW  Elec       q    Type
REMARK                         _______ _______ _______ _____ _____    ______ ____
ROOT
ATOM      1  C   UNL     1      -1.622   3.491  -3.009  0.00  0.00    +0.114 C 
ENDROOT
BRANCH   1   2
ATOM      2  C   UNL     1      -1.855   4.955  -3.279  0.00  0.00    +0.230 C 
ATOM      3  O   UNL     1      -1.645   5.772  -2.408  0.00  0.00    -0.274 OA
ATOM      4  N   UNL     1      -2.298   5.356  -4.487  0.00  0.00    -0.234 N 
ATOM      5  H   UNL     1      -2.489   4.614  -5.276  0.00  0.00    +0.173 HD
BRANCH   4   6
ATOM      6  N   UNL     1      -2.515   6.717  -4.737  0.00  0.00    -0.230 N 
ATOM      7  C   UNL     1      -2.958   7.118  -5.945  0.00  0.00    +0.267 C 
ATOM      8  O   UNL     1      -3.169   6.297  -6.819  0.00  0.00    -0.268 OA
ATOM      9  H   UNL     1      -2.325   7.459  -3.947  0.00  0.00    +0.173 HD
BRANCH   7  10
ATOM     10  C   UNL     1      -3.186   8.542  -6.207  0.00  0.00    +0.076 A 
ATOM     11  C   UNL     1      -3.632   9.157  -7.363  0.00  0.00    +0.024 A 
ATOM     12  C   UNL     1      -3.773  10.539  -7.356  0.00  0.00    -0.036 A 
ATOM     13  C   UNL     1      -3.431  11.177  -6.214  0.00  0.00    -0.006 A 
ATOM     14  S   UNL     1      -2.967   9.938  -5.114  0.00  0.00    -0.088 S 
ATOM     15  C   UNL     1      -3.444  12.670  -5.973  0.00  0.00    +0.043 C 
ATOM     16  C   UNL     1      -4.916  13.116  -5.971  0.00  0.00    +0.005 C 
ATOM     17  C   UNL     1      -5.431  13.233  -7.386  0.00  0.00    +0.001 C 
ATOM     18  C   UNL     1      -5.653  11.941  -8.129  0.00  0.00    +0.005 C 
ATOM     19  C   UNL     1      -4.337  11.295  -8.565  0.00  0.00    +0.036 C 
ENDBRANCH   7  10
ENDBRANCH   4   6
ENDBRANCH   1   2
BRANCH   1  20
ATOM     20  C   UNL     1      -1.125   3.309  -1.574  0.00  0.00    +0.115 C 
BRANCH  20  21
ATOM     21  N   UNL     1      -0.897   1.885  -1.312  0.00  0.00    -0.189 NA
ATOM     22  H   UNL     1      -1.442   1.126  -1.892  0.00  0.00    +0.148 HD
BRANCH  21  23
ATOM     23  S   UNL     1      -0.017   1.417   0.010  0.00  0.00    +0.059 S 
ATOM     24  O   UNL     1       0.002  -0.004   0.002  0.00  0.00    -0.153 OA
ATOM     25  O   UNL     1       1.172   2.195   0.003  0.00  0.00    -0.153 OA
BRANCH  23  31
ATOM     26  C   UNL     1      -0.715   3.145   2.002  0.00  0.00    +0.032 A 
ATOM     27  C   UNL     1      -1.430   3.534   3.121  0.00  0.00    +0.051 A 
ATOM     28  C   UNL     1      -2.350   2.666   3.683  0.00  0.00    +0.162 A 
ATOM     29  C   UNL     1      -2.559   1.414   3.122  0.00  0.00    +0.164 A 
ATOM     30  C   UNL     1      -1.846   1.030   1.999  0.00  0.00    +0.078 A 
ATOM     31  C   UNL     1      -0.927   1.900   1.439  0.00  0.00    +0.109 A 
ATOM     32  O   UNL     1      -3.469   0.566   3.683  0.00  0.00    -0.488 OA
ATOM     33  C   UNL     1      -3.129   0.048   4.971  0.00  0.00    +0.232 C 
ATOM     34  C   UNL     1      -3.528   1.023   6.067  0.00  0.00    +0.082 C 
ATOM     35  C   UNL     1      -2.749   2.327   5.993  0.00  0.00    +0.232 C 
ATOM     36  O   UNL     1      -3.058   3.034   4.790  0.00  0.00    -0.488 OA
ENDBRANCH  23  31
ENDBRANCH  21  23
ENDBRANCH  20  21
ENDBRANCH   1  20
TORSDOF 7
