REMARK  Name = ZINC39394583
REMARK  4 active torsions:
REMARK  status: ('A' for Active; 'I' for Inactive)
REMARK    1  A    between atoms: C_6  and  C_7
REMARK    2  A    between atoms: C_11  and  C_13
REMARK    3  A    between atoms: C_13  and  N_14
REMARK    4  A    between atoms: C_21  and  C_26
REMARK                            x       y       z     vdW  Elec       q    Type
REMARK                         _______ _______ _______ _____ _____    ______ ____
ROOT
ATOM      1  N   UNL     1      -0.857  -4.348   1.164  0.00  0.00    -0.300 NA
ATOM      2  C   UNL     1      -0.505  -4.977   2.463  0.00  0.00    +0.087 C 
ATOM      3  C   UNL     1      -0.248  -6.462   2.330  0.00  0.00    +0.051 C 
ATOM      4  C   UNL     1      -1.269  -7.101   1.392  0.00  0.00    +0.141 C 
ATOM      5  N   UNL     1      -1.553  -8.496   1.800  0.00  0.00    -0.238 NA
ATOM      6  N   UNL     1      -1.897  -9.181   0.549  0.00  0.00    -0.236 NA
ATOM      7  C   UNL     1      -1.272  -8.410  -0.548  0.00  0.00    +0.169 C 
ATOM      8  N   UNL     1      -0.565  -7.270   0.079  0.00  0.00    -0.266 NA
ATOM      9  C   UNL     1      -0.659  -6.029  -0.644  0.00  0.00    +0.103 C 
ATOM     10  C   UNL     1      -0.024  -4.844   0.073  0.00  0.00    +0.100 C 
ATOM     11  H   UNL     1      -2.320  -8.532   2.455  0.00  0.00    +0.142 HD
ATOM     12  H   UNL     1      -2.898  -9.234   0.429  0.00  0.00    +0.142 HD
ENDROOT
BRANCH   7  13
ATOM     13  C   UNL     1      -0.285  -9.294  -1.313  0.00  0.00    +0.151 C 
ATOM     14  C   UNL     1      -1.048 -10.421  -2.042  0.00  0.00    +0.037 C 
ATOM     15  C   UNL     1      -0.100 -11.636  -1.854  0.00  0.00    +0.031 C 
ATOM     16  C   UNL     1       0.484 -11.339  -0.450  0.00  0.00    +0.160 C 
ATOM     17  O   UNL     1       0.628  -9.909  -0.398  0.00  0.00    -0.374 OA
ENDBRANCH   7  13
BRANCH   1  18
ATOM     18  C   UNL     1      -0.791  -2.884   1.253  0.00  0.00    +0.099 C 
BRANCH  18  23
ATOM     19  C   UNL     1      -1.260  -0.760   0.010  0.00  0.00    +0.080 C 
ATOM     20  N   UNL     1      -2.470  -0.273   0.018  0.00  0.00    -0.153 NA
ATOM     21  N   UNL     1      -3.439  -1.271   0.024  0.00  0.00    -0.161 NA
ATOM     22  C   UNL     1      -2.926  -2.458   0.019  0.00  0.00    +0.118 C 
ATOM     23  C   UNL     1      -1.423  -2.268   0.004  0.00  0.00    +0.097 C 
BRANCH  19  29
ATOM     24  C   UNL     1      -0.017   1.395   0.010  0.00  0.00    +0.011 A 
ATOM     25  C   UNL     1       1.169   2.096   0.002  0.00  0.00    +0.020 A 
ATOM     26  C   UNL     1       2.378   1.420  -0.013  0.00  0.00    +0.041 A 
ATOM     27  C   UNL     1       2.405   0.035  -0.021  0.00  0.00    +0.020 A 
ATOM     28  C   UNL     1       1.226  -0.680  -0.014  0.00  0.00    +0.011 A 
ATOM     29  C   UNL     1       0.002  -0.004   0.002  0.00  0.00    -0.001 A 
ATOM     30 CL   UNL     1       3.867   2.313  -0.024  0.00  0.00    -0.084 Cl
ENDBRANCH  19  29
ENDBRANCH  18  23
ENDBRANCH   1  18
TORSDOF 4
