REMARK  Name = ZINC66915995
REMARK  5 active torsions:
REMARK  status: ('A' for Active; 'I' for Inactive)
REMARK    1  A    between atoms: C_5  and  C_7
REMARK    2  A    between atoms: C_8  and  S_9
REMARK    3  A    between atoms: S_9  and  N_12
REMARK    4  A    between atoms: C_15  and  N_18
REMARK    5  A    between atoms: C_22  and  C_24
REMARK                            x       y       z     vdW  Elec       q    Type
REMARK                         _______ _______ _______ _____ _____    ______ ____
ROOT
ATOM      1  N   UNL     1      -0.500  -5.116   1.410  0.00  0.00    -0.177 NA
ATOM      2  C   UNL     1       0.359  -5.323   2.585  0.00  0.00    +0.108 C 
ATOM      3  C   UNL     1       0.128  -6.740   3.121  0.00  0.00    +0.002 C 
ATOM      4  C   UNL     1      -1.365  -6.941   3.390  0.00  0.00    -0.065 C 
ATOM      5  C   UNL     1      -2.147  -6.786   2.084  0.00  0.00    +0.002 C 
ATOM      6  C   UNL     1      -1.942  -5.365   1.537  0.00  0.00    +0.108 C 
ENDROOT
BRANCH   4   7
ATOM      7  N   UNL     1      -1.587  -8.287   3.936  0.00  0.00    +0.389 N 
ATOM      8  C   UNL     1      -3.025  -8.480   4.217  0.00  0.00    -0.077 C 
ATOM      9  C   UNL     1      -3.065  -9.340   5.505  0.00  0.00    -0.020 C 
ATOM     10  C   UNL     1      -1.863  -8.768   6.302  0.00  0.00    -0.008 C 
ATOM     11  C   UNL     1      -0.837  -8.441   5.196  0.00  0.00    +0.019 C 
ATOM     12  H   UNL     1      -1.277  -8.979   3.270  0.00  0.00    -0.080 HD
BRANCH  11  13
ATOM     13  C   UNL     1       0.155  -9.568   5.068  0.00  0.00    +0.197 C 
ATOM     14  O   UNL     1       0.236 -10.190   4.030  0.00  0.00    -0.278 OA
ATOM     15  N   UNL     1       0.952  -9.886   6.108  0.00  0.00    -0.331 N 
ATOM     16  H   UNL     1       0.887  -9.389   6.938  0.00  0.00    +0.145 HD
ATOM     17  H   UNL     1       1.590 -10.612   6.025  0.00  0.00    +0.145 HD
ENDBRANCH  11  13
ENDBRANCH   4   7
BRANCH   1  18
ATOM     18  S   UNL     1       0.145  -4.606  -0.027  0.00  0.00    +0.054 S 
ATOM     19  O   UNL     1      -0.753  -5.022  -1.046  0.00  0.00    -0.153 OA
ATOM     20  O   UNL     1       1.514  -4.987  -0.016  0.00  0.00    -0.153 OA
BRANCH  18  22
ATOM     21  C   UNL     1       1.249  -2.160  -0.023  0.00  0.00    +0.030 C 
ATOM     22  C   UNL     1       0.113  -2.844  -0.016  0.00  0.00    +0.153 C 
BRANCH  21  27
ATOM     23  C   UNL     1      -0.017   1.375   0.010  0.00  0.00    +0.001 A 
ATOM     24  C   UNL     1       1.170   2.087   0.002  0.00  0.00    +0.001 A 
ATOM     25  C   UNL     1       2.382   1.422  -0.013  0.00  0.00    +0.020 A 
ATOM     26  C   UNL     1       2.416   0.041  -0.021  0.00  0.00    +0.048 A 
ATOM     27  C   UNL     1       1.221  -0.682  -0.014  0.00  0.00    -0.005 A 
ATOM     28  C   UNL     1       0.002  -0.004   0.002  0.00  0.00    +0.009 A 
ATOM     29 CL   UNL     1       3.938  -0.793  -0.042  0.00  0.00    -0.083 Cl
ENDBRANCH  21  27
ENDBRANCH  18  22
ENDBRANCH   1  18
TORSDOF 5
