REMARK  Name = ZINC63746550
REMARK  5 active torsions:
REMARK  status: ('A' for Active; 'I' for Inactive)
REMARK    1  A    between atoms: C_1  and  C_2
REMARK    2  A    between atoms: C_7  and  S_12
REMARK    3  A    between atoms: S_12  and  C_13
REMARK    4  A    between atoms: C_13  and  C_14
REMARK    5  A    between atoms: C_27  and  C_29
REMARK                            x       y       z     vdW  Elec       q    Type
REMARK                         _______ _______ _______ _____ _____    ______ ____
ROOT
ATOM      1  C   UNL     1      -4.091  -4.910   1.844  0.00  0.00    +0.230 C 
ATOM      2  O   UNL     1      -4.084  -5.978   2.420  0.00  0.00    -0.274 OA
ATOM      3  N   UNL     1      -5.261  -4.324   1.526  0.00  0.00    -0.266 N 
ATOM      4  C   UNL     1      -5.284  -3.093   0.856  0.00  0.00    +0.058 A 
ATOM      5  C   UNL     1      -4.927  -3.009  -0.480  0.00  0.00    +0.025 A 
ATOM      6  C   UNL     1      -4.978  -1.789  -1.130  0.00  0.00    +0.002 A 
ATOM      7  C   UNL     1      -5.384  -0.654  -0.453  0.00  0.00    +0.002 A 
ATOM      8  C   UNL     1      -5.733  -0.728   0.883  0.00  0.00    +0.025 A 
ATOM      9  C   UNL     1      -5.675  -1.944   1.544  0.00  0.00    +0.055 A 
ATOM     10  N   UNL     1      -5.969  -2.033   2.910  0.00  0.00    -0.284 N 
ATOM     11  C   UNL     1      -6.803  -2.991   3.369  0.00  0.00    +0.219 C 
ATOM     12  O   UNL     1      -6.985  -3.110   4.563  0.00  0.00    -0.275 OA
ATOM     13  C   UNL     1      -7.509  -3.913   2.410  0.00  0.00    +0.118 C 
ATOM     14  C   UNL     1      -6.533  -4.964   1.868  0.00  0.00    +0.087 C 
ATOM     15  C   UNL     1      -7.126  -5.618   0.618  0.00  0.00    +0.029 C 
ATOM     16  H   UNL     1      -5.571  -1.403   3.530  0.00  0.00    +0.155 HD
ENDROOT
BRANCH   1  17
ATOM     17  C   UNL     1      -2.790  -4.240   1.485  0.00  0.00    +0.169 C 
BRANCH  17  18
ATOM     18  S   UNL     1      -1.405  -5.270   2.043  0.00  0.00    -0.106 S 
BRANCH  18  25
ATOM     19  C   UNL     1      -0.018   1.503   0.010  0.00  0.00    +0.044 C 
ATOM     20  C   UNL     1       0.002  -0.004   0.002  0.00  0.00    -0.048 A 
ATOM     21  C   UNL     1       0.005  -0.672  -1.235  0.00  0.00    +0.005 A 
ATOM     22  C   UNL     1       0.022  -2.017  -1.335  0.00  0.00    +0.028 A 
ATOM     23  C   UNL     1       0.040  -2.834  -0.114  0.00  0.00    +0.061 A 
ATOM     24  N   UNL     1       0.057  -4.120   0.090  0.00  0.00    -0.355 N 
ATOM     25  C   UNL     1       0.067  -4.335   1.542  0.00  0.00    +0.236 C 
ATOM     26  N   UNL     1       0.053  -3.002   2.159  0.00  0.00    -0.355 N 
ATOM     27  C   UNL     1       0.037  -2.127   1.195  0.00  0.00    +0.061 A 
ATOM     28  C   UNL     1       0.022  -0.657   1.181  0.00  0.00    +0.030 A 
ATOM     29  H   UNL     1       0.062  -4.809  -0.593  0.00  0.00    +0.162 HD
ATOM     30  H   UNL     1       0.055  -2.810   3.109  0.00  0.00    +0.162 HD
ENDBRANCH  18  25
ENDBRANCH  17  18
ENDBRANCH   1  17
TORSDOF 3
