REMARK  Name = ZINC01455138
REMARK  8 active torsions:
REMARK  status: ('A' for Active; 'I' for Inactive)
REMARK    1  A    between atoms: C_1  and  C_2
REMARK    2  A    between atoms: C_4  and  C_34
REMARK    3  A    between atoms: N_8  and  S_9
REMARK    4  A    between atoms: S_9  and  C_12
REMARK    5  A    between atoms: C_15  and  N_18
REMARK    6  A    between atoms: N_20  and  C_31
REMARK    7  A    between atoms: C_21  and  C_24
REMARK    8  A    between atoms: C_31  and  C_32
REMARK                            x       y       z     vdW  Elec       q    Type
REMARK                         _______ _______ _______ _____ _____    ______ ____
ROOT
ATOM      1  C   UNL     1       7.076   2.246   0.943  0.00  0.00    +0.109 A 
ATOM      2  C   UNL     1       7.285   0.879   0.965  0.00  0.00    +0.030 A 
ATOM      3  C   UNL     1       6.226   0.014   0.770  0.00  0.00    +0.025 A 
ATOM      4  C   UNL     1       4.951   0.518   0.549  0.00  0.00    +0.033 A 
ATOM      5  C   UNL     1       4.746   1.891   0.521  0.00  0.00    +0.025 A 
ATOM      6  C   UNL     1       5.807   2.751   0.724  0.00  0.00    +0.030 A 
ENDROOT
BRANCH   4   7
ATOM      7  N   UNL     1       3.877  -0.355   0.351  0.00  0.00    -0.295 N 
ATOM      8  C   UNL     1       2.622  -0.033   0.844  0.00  0.00    +0.144 A 
ATOM      9  N   UNL     1       1.499  -0.725   0.784  0.00  0.00    -0.319 N 
ATOM     10  C   UNL     1       0.374  -0.258   1.318  0.00  0.00    +0.058 A 
ATOM     11  C   UNL     1       0.383   0.960   1.938  0.00  0.00    +0.074 A 
ATOM     12  S   UNL     1       2.096   1.427   1.729  0.00  0.00    -0.062 S 
ATOM     13  H   UNL     1       4.011  -1.186  -0.132  0.00  0.00    +0.154 HD
BRANCH  10  14
ATOM     14  C   UNL     1      -0.878  -1.050   1.241  0.00  0.00    -0.001 A 
ATOM     15  C   UNL     1      -1.193  -1.748   0.076  0.00  0.00    +0.011 A 
ATOM     16  C   UNL     1      -2.357  -2.487   0.012  0.00  0.00    +0.020 A 
ATOM     17  C   UNL     1      -3.215  -2.528   1.097  0.00  0.00    +0.041 A 
ATOM     18  C   UNL     1      -2.909  -1.832   2.254  0.00  0.00    +0.020 A 
ATOM     19  C   UNL     1      -1.746  -1.094   2.331  0.00  0.00    +0.011 A 
ATOM     20 CL   UNL     1      -4.680  -3.454   1.007  0.00  0.00    -0.084 Cl
ENDBRANCH  10  14
BRANCH   9  21
ATOM     21  C   UNL     1       1.492  -2.030   0.118  0.00  0.00    +0.151 C 
BRANCH  21  22
ATOM     22  C   UNL     1       1.368  -1.834  -1.371  0.00  0.00    -0.013 C 
ATOM     23  C   UNL     1       2.228  -2.401  -2.180  0.00  0.00    +0.005 C 
ENDBRANCH  21  22
ENDBRANCH   9  21
ENDBRANCH   4   7
BRANCH   1  24
ATOM     24  S   UNL     1       8.429   3.346   1.194  0.00  0.00    +0.075 S 
ATOM     25  O   UNL     1       7.878   4.566   1.668  0.00  0.00    -0.150 OA
ATOM     26  O   UNL     1       9.412   2.621   1.919  0.00  0.00    -0.150 OA
BRANCH  24  34
ATOM     27  C   UNL     1       4.805   5.262  -1.755  0.00  0.00    +0.066 C 
ATOM     28  C   UNL     1       6.292   5.122  -1.958  0.00  0.00    +0.044 A 
ATOM     29  C   UNL     1       6.902   5.670  -3.076  0.00  0.00    +0.046 A 
ATOM     30  C   UNL     1       8.271   5.519  -3.224  0.00  0.00    +0.044 A 
ATOM     31  N   UNL     1       8.952   4.861  -2.299  0.00  0.00    -0.219 NA
ATOM     32  C   UNL     1       8.338   4.350  -1.242  0.00  0.00    +0.235 A 
ATOM     33  N   UNL     1       7.029   4.472  -1.074  0.00  0.00    -0.219 NA
ATOM     34  N   UNL     1       9.081   3.668  -0.294  0.00  0.00    -0.184 N 
ATOM     35  C   UNL     1       8.977   6.098  -4.423  0.00  0.00    +0.066 C 
ATOM     36  H   UNL     1       9.983   3.378  -0.502  0.00  0.00    +0.177 HD
ENDBRANCH  24  34
ENDBRANCH   1  24
TORSDOF 6
