REMARK  Name = ZINC00847723
REMARK  12 active torsions:
REMARK  status: ('A' for Active; 'I' for Inactive)
REMARK    1  A    between atoms: C_1  and  C_2
REMARK    2  A    between atoms: C_2  and  O_3
REMARK    3  A    between atoms: O_3  and  C_4
REMARK    4  A    between atoms: C_6  and  C_11
REMARK    5  A    between atoms: C_9  and  O_10
REMARK    6  A    between atoms: C_16  and  C_21
REMARK    7  A    between atoms: C_24  and  O_27
REMARK    8  A    between atoms: O_27  and  C_28
REMARK    9  A    between atoms: C_30  and  C_36
REMARK   10  A    between atoms: C_31  and  C_32
REMARK   11  A    between atoms: C_32  and  O_34
REMARK   12  A    between atoms: O_34  and  C_35
REMARK                            x       y       z     vdW  Elec       q    Type
REMARK                         _______ _______ _______ _____ _____    ______ ____
ROOT
ATOM      1  C   UNL     1      -0.229  -4.969   0.477  0.00  0.00    +0.092 C 
ATOM      2  C   UNL     1      -1.282  -5.832  -0.171  0.00  0.00    +0.024 C 
ATOM      3  C   UNL     1      -1.016  -7.114  -0.499  0.00  0.00    +0.016 C 
ATOM      4  C   UNL     1      -2.060  -7.980  -1.160  0.00  0.00    +0.059 C 
ATOM      5  C   UNL     1      -3.453  -7.548  -0.697  0.00  0.00    +0.032 C 
ATOM      6  C   UNL     1      -3.647  -6.070  -1.053  0.00  0.00    +0.088 C 
ATOM      7  C   UNL     1      -2.544  -5.266  -0.421  0.00  0.00    +0.162 C 
ATOM      8  O   UNL     1      -2.748  -4.106  -0.122  0.00  0.00    -0.292 OA
ATOM      9  N   UNL     1       0.213  -7.658  -0.236  0.00  0.00    -0.321 N 
ATOM     10  C   UNL     1       1.045  -7.087   0.685  0.00  0.00    +0.016 C 
ATOM     11  C   UNL     1       0.871  -5.808   1.058  0.00  0.00    +0.065 C 
ATOM     12  C   UNL     1       2.166  -7.896   1.286  0.00  0.00    +0.061 C 
ATOM     13  H   UNL     1       0.495  -8.458  -0.707  0.00  0.00    +0.152 HD
ENDROOT
BRANCH   1  16
ATOM     14  C   UNL     1       0.777  -1.811  -1.336  0.00  0.00    +0.162 A 
ATOM     15  C   UNL     1       0.243  -2.669  -0.388  0.00  0.00    +0.054 A 
ATOM     16  C   UNL     1       0.352  -4.037  -0.555  0.00  0.00    -0.032 A 
ATOM     17  C   UNL     1       0.992  -4.552  -1.667  0.00  0.00    +0.008 A 
ATOM     18  C   UNL     1       1.526  -3.702  -2.616  0.00  0.00    +0.049 A 
ATOM     19  C   UNL     1       1.416  -2.330  -2.458  0.00  0.00    +0.158 A 
BRANCH  19  20
ATOM     20  O   UNL     1       1.936  -1.492  -3.394  0.00  0.00    -0.503 OA
ATOM     21  H   UNL     1       2.856  -1.241  -3.231  0.00  0.00    +0.292 HD
ENDBRANCH  19  20
BRANCH  14  22
ATOM     22  O   UNL     1       0.671  -0.465  -1.174  0.00  0.00    -0.489 OA
BRANCH  22  24
ATOM     23  C   UNL     1      -0.019   1.526   0.010  0.00  0.00    +0.048 C 
ATOM     24  C   UNL     1       0.002  -0.004   0.002  0.00  0.00    +0.226 C 
ENDBRANCH  22  24
ENDBRANCH  14  22
ENDBRANCH   1  16
BRANCH   5  25
ATOM     25  C   UNL     1      -4.498  -8.382  -1.393  0.00  0.00    -0.043 A 
ATOM     26  C   UNL     1      -4.583  -8.372  -2.773  0.00  0.00    +0.007 A 
ATOM     27  C   UNL     1      -5.541  -9.135  -3.412  0.00  0.00    +0.046 A 
ATOM     28  C   UNL     1      -6.417  -9.912  -2.669  0.00  0.00    +0.120 A 
ATOM     29  C   UNL     1      -6.330  -9.920  -1.284  0.00  0.00    +0.046 A 
ATOM     30  C   UNL     1      -5.367  -9.159  -0.650  0.00  0.00    +0.007 A 
BRANCH  28  31
ATOM     31  O   UNL     1      -7.361 -10.663  -3.296  0.00  0.00    -0.495 OA
ATOM     32  C   UNL     1      -8.229 -11.438  -2.467  0.00  0.00    +0.277 C 
ENDBRANCH  28  31
ENDBRANCH   5  25
BRANCH  11  33
ATOM     33  C   UNL     1       1.742  -5.242   2.018  0.00  0.00    +0.337 C 
ATOM     34  O   UNL     1       2.639  -5.912   2.496  0.00  0.00    -0.245 OA
BRANCH  33  35
ATOM     35  O   UNL     1       1.580  -3.959   2.403  0.00  0.00    -0.465 OA
ATOM     36  C   UNL     1       2.496  -3.453   3.376  0.00  0.00    +0.280 C 
ENDBRANCH  33  35
ENDBRANCH  11  33
TORSDOF 8
