REMARK  Name = ZINC14697621
REMARK  10 active torsions:
REMARK  status: ('A' for Active; 'I' for Inactive)
REMARK    1  A    between atoms: C_1  and  C_2
REMARK    2  A    between atoms: C_3  and  C_8
REMARK    3  A    between atoms: C_4  and  C_7
REMARK    4  A    between atoms: N_10  and  C_11
REMARK    5  A    between atoms: N_10  and  C_19
REMARK    6  A    between atoms: C_11  and  C_12
REMARK    7  A    between atoms: C_12  and  C_13
REMARK    8  A    between atoms: C_20  and  N_35
REMARK    9  A    between atoms: N_21  and  C_28
REMARK   10  A    between atoms: C_28  and  C_29
REMARK                            x       y       z     vdW  Elec       q    Type
REMARK                         _______ _______ _______ _____ _____    ______ ____
ROOT
ATOM      1  C   UNL     1       1.261   2.345  -0.393  0.00  0.00    +0.140 A 
ATOM      2  C   UNL     1       1.191   1.902  -1.698  0.00  0.00    +0.128 A 
ATOM      3  N   UNL     1       1.274   0.553  -1.955  0.00  0.00    -0.276 N 
ATOM      4  C   UNL     1       1.421  -0.324  -0.946  0.00  0.00    +0.331 A 
ATOM      5  O   UNL     1       1.491  -1.513  -1.195  0.00  0.00    -0.246 OA
ATOM      6  N   UNL     1       1.490   0.088   0.332  0.00  0.00    -0.273 N 
ATOM      7  H   UNL     1       1.600  -0.585   1.063  0.00  0.00    +0.173 HD
ATOM      8  C   UNL     1       1.415   1.398   0.638  0.00  0.00    +0.277 A 
ATOM      9  O   UNL     1       1.474   1.761   1.801  0.00  0.00    -0.266 OA
ENDROOT
BRANCH   1  12
ATOM     10  C   UNL     1       2.289   4.404   0.249  0.00  0.00    +0.256 C 
ATOM     11  O   UNL     1       2.207   5.569   0.587  0.00  0.00    -0.269 OA
ATOM     12  N   UNL     1       1.180   3.722  -0.096  0.00  0.00    -0.260 N 
BRANCH  10  15
ATOM     13  C   UNL     1       4.266   3.949  -2.359  0.00  0.00    +0.070 C 
ATOM     14  C   UNL     1       4.497   3.525  -0.931  0.00  0.00    +0.093 A 
ATOM     15  C   UNL     1       3.604   3.737   0.218  0.00  0.00    +0.102 A 
ATOM     16  C   UNL     1       4.294   3.156   1.253  0.00  0.00    +0.147 A 
ATOM     17  O   UNL     1       5.431   2.688   0.732  0.00  0.00    -0.359 OA
ATOM     18  N   UNL     1       5.530   2.898  -0.452  0.00  0.00    -0.083 NA
ATOM     19  C   UNL     1       3.855   3.063   2.692  0.00  0.00    +0.090 C 
ENDBRANCH  10  15
BRANCH  12  20
ATOM     20  C   UNL     1      -0.112   4.410  -0.164  0.00  0.00    +0.118 C 
BRANCH  20  21
ATOM     21  C   UNL     1      -0.762   4.412   1.221  0.00  0.00    +0.050 C 
BRANCH  21  22
ATOM     22  C   UNL     1      -2.090   5.120   1.151  0.00  0.00    -0.072 C 
ATOM     23  C   UNL     1      -3.153   4.401   0.981  0.00  0.00    -0.028 C 
ATOM     24  C   UNL     1      -4.541   4.963   0.883  0.00  0.00    +0.027 C 
ATOM     25  C   UNL     1      -4.571   6.394   1.425  0.00  0.00    +0.004 C 
ATOM     26  C   UNL     1      -3.426   7.182   0.776  0.00  0.00    +0.005 C 
ATOM     27  C   UNL     1      -2.099   6.614   1.290  0.00  0.00    +0.030 C 
ENDBRANCH  21  22
ENDBRANCH  20  21
ENDBRANCH  12  20
ENDBRANCH   1  12
BRANCH   2  28
ATOM     28  N   UNL     1       1.041   2.799  -2.729  0.00  0.00    -0.343 N 
ATOM     29  H   UNL     1       0.925   2.479  -3.637  0.00  0.00    +0.144 HD
ATOM     30  H   UNL     1       1.052   3.752  -2.548  0.00  0.00    +0.144 HD
ENDBRANCH   2  28
BRANCH   3  31
ATOM     31  C   UNL     1       1.201   0.070  -3.336  0.00  0.00    +0.163 C 
BRANCH  31  32
ATOM     32  C   UNL     1      -0.236  -0.214  -3.694  0.00  0.00    -0.028 A 
ATOM     33  C   UNL     1      -0.788  -1.448  -3.407  0.00  0.00    +0.005 A 
ATOM     34  C   UNL     1      -2.107  -1.707  -3.731  0.00  0.00    +0.000 A 
ATOM     35  C   UNL     1      -2.870  -0.735  -4.351  0.00  0.00    +0.000 A 
ATOM     36  C   UNL     1      -2.316   0.498  -4.642  0.00  0.00    +0.000 A 
ATOM     37  C   UNL     1      -0.999   0.758  -4.313  0.00  0.00    +0.005 A 
ENDBRANCH  31  32
ENDBRANCH   3  31
TORSDOF 8
