REMARK  Name = ZINC18088797
REMARK  8 active torsions:
REMARK  status: ('A' for Active; 'I' for Inactive)
REMARK    1  A    between atoms: C_1  and  C_2
REMARK    2  A    between atoms: C_7  and  C_9
REMARK    3  A    between atoms: C_9  and  C_11
REMARK    4  A    between atoms: C_9  and  C_17
REMARK    5  A    between atoms: C_17  and  C_19
REMARK    6  A    between atoms: C_17  and  C_21
REMARK    7  A    between atoms: C_26  and  C_29
REMARK    8  A    between atoms: C_33  and  N_35
REMARK                            x       y       z     vdW  Elec       q    Type
REMARK                         _______ _______ _______ _____ _____    ______ ____
ROOT
ATOM      1  C   UNL     1      -0.964   1.329  -0.369  0.00  0.00    +0.063 C 
ATOM      2  C   UNL     1      -0.491  -0.092  -0.197  0.00  0.00    +0.047 C 
ATOM      3  N   UNL     1      -0.452  -0.992  -1.101  0.00  0.00    -0.179 NA
ATOM      4  N   UNL     1       0.035  -2.211  -0.639  0.00  0.00    -0.135 N 
ATOM      5  C   UNL     1       0.351  -2.143   0.672  0.00  0.00    +0.250 C 
ATOM      6  O   UNL     1       0.797  -3.029   1.370  0.00  0.00    -0.273 OA
ATOM      7  C   UNL     1       0.032  -0.717   1.079  0.00  0.00    +0.132 C 
ATOM      8  C   UNL     1       0.176  -3.349  -1.424  0.00  0.00    +0.188 A 
ATOM      9  N   UNL     1      -0.096  -3.520  -2.705  0.00  0.00    -0.223 NA
ATOM     10  C   UNL     1       0.102  -4.686  -3.300  0.00  0.00    +0.080 A 
ATOM     11  C   UNL     1       0.598  -5.734  -2.575  0.00  0.00    +0.077 A 
ATOM     12  S   UNL     1       0.781  -4.969  -0.970  0.00  0.00    -0.058 S 
ENDROOT
BRANCH  10  13
ATOM     13  C   UNL     1      -0.211  -4.854  -4.740  0.00  0.00    +0.003 A 
ATOM     14  C   UNL     1      -0.007  -6.084  -5.362  0.00  0.00    +0.010 A 
ATOM     15  C   UNL     1      -0.301  -6.234  -6.702  0.00  0.00    +0.003 A 
ATOM     16  C   UNL     1      -0.796  -5.166  -7.428  0.00  0.00    +0.033 A 
ATOM     17  C   UNL     1      -1.000  -3.943  -6.817  0.00  0.00    +0.127 A 
ATOM     18  C   UNL     1      -0.716  -3.783  -5.476  0.00  0.00    +0.042 A 
BRANCH  17  19
ATOM     19  N   UNL     1      -1.530  -2.804  -7.601  0.00  0.00    +0.056 N 
ATOM     20  O   UNL     1      -1.784  -2.944  -8.774  0.00  0.00    -0.126 OA
ATOM     21  O   UNL     1      -1.708  -1.734  -7.067  0.00  0.00    -0.126 OA
ENDBRANCH  17  19
ENDBRANCH  10  13
BRANCH   7  22
ATOM     22  C   UNL     1      -1.042  -0.699   2.168  0.00  0.00    +0.062 C 
BRANCH  22  23
ATOM     23  C   UNL     1      -2.262  -1.440   1.683  0.00  0.00    -0.042 A 
ATOM     24  C   UNL     1      -2.228  -2.816   1.552  0.00  0.00    +0.004 A 
ATOM     25  C   UNL     1      -3.346  -3.495   1.107  0.00  0.00    +0.000 A 
ATOM     26  C   UNL     1      -4.499  -2.800   0.794  0.00  0.00    +0.000 A 
ATOM     27  C   UNL     1      -4.533  -1.424   0.926  0.00  0.00    +0.000 A 
ATOM     28  C   UNL     1      -3.416  -0.745   1.375  0.00  0.00    +0.004 A 
ENDBRANCH  22  23
BRANCH  22  29
ATOM     29  C   UNL     1      -0.502  -1.376   3.429  0.00  0.00    +0.185 C 
BRANCH  29  30
ATOM     30  C   UNL     1      -1.495  -1.213   4.551  0.00  0.00    +0.228 C 
ATOM     31  O   UNL     1      -1.172  -0.637   5.568  0.00  0.00    -0.275 OA
ATOM     32  N   UNL     1      -2.742  -1.709   4.425  0.00  0.00    -0.328 N 
ATOM     33  H   UNL     1      -3.000  -2.170   3.611  0.00  0.00    +0.145 HD
ATOM     34  H   UNL     1      -3.381  -1.604   5.147  0.00  0.00    +0.145 HD
ENDBRANCH  29  30
BRANCH  29  35
ATOM     35  C   UNL     1       0.776  -0.753   3.811  0.00  0.00    +0.076 C 
ATOM     36  N   UNL     1       1.762  -0.273   4.106  0.00  0.00    -0.196 NA
ENDBRANCH  29  35
ENDBRANCH  22  29
ENDBRANCH   7  22
TORSDOF 7
