REMARK  Name = ZINC04619217
REMARK  5 active torsions:
REMARK  status: ('A' for Active; 'I' for Inactive)
REMARK    1  A    between atoms: C_1  and  C_2
REMARK    2  A    between atoms: C_2  and  S_3
REMARK    3  A    between atoms: S_3  and  C_4
REMARK    4  A    between atoms: C_10  and  C_12
REMARK    5  A    between atoms: C_13  and  N_27
REMARK                            x       y       z     vdW  Elec       q    Type
REMARK                         _______ _______ _______ _____ _____    ______ ____
ROOT
ATOM      1  C   UNL     1      -0.830  10.208   1.284  0.00  0.00    +0.097 A 
ATOM      2  C   UNL     1      -0.421  11.300   0.551  0.00  0.00    +0.053 A 
ATOM      3  C   UNL     1      -0.729  12.628   1.061  0.00  0.00    +0.029 A 
ATOM      4  C   UNL     1      -0.418  13.887   0.487  0.00  0.00    +0.017 A 
ATOM      5  C   UNL     1      -0.806  15.027   1.145  0.00  0.00    -0.025 A 
ATOM      6  C   UNL     1      -1.487  14.941   2.356  0.00  0.00    +0.046 A 
ATOM      7  N   UNL     1      -1.773  13.774   2.887  0.00  0.00    -0.244 NA
ATOM      8  C   UNL     1      -1.424  12.652   2.291  0.00  0.00    +0.111 A 
ATOM      9  S   UNL     1      -1.635  10.937   2.697  0.00  0.00    -0.062 S 
ATOM     10  C   UNL     1      -1.868  16.236   3.024  0.00  0.00    +0.056 C 
ATOM     11  C   UNL     1      -3.137  16.805   2.476  0.00  0.00    +0.006 C 
ATOM     12  C   UNL     1      -3.079  17.552   1.159  0.00  0.00    +0.000 C 
ATOM     13  C   UNL     1      -2.944  16.565  -0.015  0.00  0.00    +0.000 C 
ATOM     14  C   UNL     1      -1.494  16.674  -0.559  0.00  0.00    +0.005 C 
ATOM     15  C   UNL     1      -0.518  16.393   0.581  0.00  0.00    +0.037 C 
ENDROOT
BRANCH   1  22
ATOM     16  C   UNL     1      -0.809   3.866   1.366  0.00  0.00    +0.160 A 
ATOM     17  N   UNL     1      -0.280   4.614   0.416  0.00  0.00    -0.133 NA
ATOM     18  N   UNL     1      -0.347   5.985   0.507  0.00  0.00    -0.125 NA
ATOM     19  C   UNL     1      -0.939   6.546   1.544  0.00  0.00    +0.189 A 
ATOM     20  S   UNL     1      -1.456   5.110   2.473  0.00  0.00    -0.024 S 
ATOM     21  N   UNL     1      -1.117   7.895   1.834  0.00  0.00    -0.259 N 
ATOM     22  C   UNL     1      -0.649   8.834   0.988  0.00  0.00    +0.258 C 
ATOM     23  O   UNL     1      -0.070   8.502  -0.031  0.00  0.00    -0.269 OA
ATOM     24  H   UNL     1      -1.578   8.160   2.646  0.00  0.00    +0.157 HD
BRANCH  16  25
ATOM     25  S   UNL     1      -0.868   2.111   1.503  0.00  0.00    -0.097 S 
BRANCH  25  27
ATOM     26  C   UNL     1       0.002  -0.004   0.002  0.00  0.00    +0.016 C 
ATOM     27  C   UNL     1      -0.019   1.526   0.010  0.00  0.00    +0.073 C 
ENDBRANCH  25  27
ENDBRANCH  16  25
ENDBRANCH   1  22
BRANCH   2  28
ATOM     28  N   UNL     1       0.263  11.138  -0.646  0.00  0.00    -0.356 N 
ATOM     29  H   UNL     1       0.458  10.247  -0.976  0.00  0.00    +0.142 HD
ATOM     30  H   UNL     1       0.545  11.916  -1.152  0.00  0.00    +0.142 HD
ENDBRANCH   2  28
TORSDOF 4
