REMARK  Name = ZINC14539634
REMARK  7 active torsions:
REMARK  status: ('A' for Active; 'I' for Inactive)
REMARK    1  A    between atoms: C_2  and  C_3
REMARK    2  A    between atoms: C_3  and  N_4
REMARK    3  A    between atoms: C_6  and  C_11
REMARK    4  A    between atoms: C_19  and  C_30
REMARK    5  A    between atoms: N_22  and  C_23
REMARK    6  A    between atoms: C_23  and  C_24
REMARK    7  A    between atoms: C_24  and  N_71
REMARK                            x       y       z     vdW  Elec       q    Type
REMARK                         _______ _______ _______ _____ _____    ______ ____
ROOT
ATOM      1  C   UNL     1       1.328  -7.688  -3.337  0.00  0.00    +0.221 C 
ATOM      2  O   UNL     1       1.505  -8.880  -3.205  0.00  0.00    -0.275 OA
ATOM      3  N   UNL     1       0.831  -6.963  -2.316  0.00  0.00    -0.296 N 
ATOM      4  C   UNL     1       0.582  -7.567  -0.995  0.00  0.00    +0.114 C 
ATOM      5  C   UNL     1       1.494  -6.872   0.013  0.00  0.00    +0.073 C 
ATOM      6  C   UNL     1       1.424  -5.374  -0.139  0.00  0.00    +0.028 A 
ATOM      7  C   UNL     1       1.007  -4.770  -1.272  0.00  0.00    -0.010 A 
ATOM      8  C   UNL     1       1.006  -3.368  -1.362  0.00  0.00    +0.020 A 
ATOM      9  C   UNL     1       1.424  -2.612  -0.281  0.00  0.00    +0.047 A 
ATOM     10  C   UNL     1       1.844  -3.284   0.893  0.00  0.00    +0.259 A 
ATOM     11  O   UNL     1       2.216  -2.647   1.865  0.00  0.00    -0.267 OA
ATOM     12  N   UNL     1       1.823  -4.625   0.933  0.00  0.00    -0.313 N 
ATOM     13  C   UNL     1       0.513  -5.540  -2.471  0.00  0.00    +0.144 C 
ENDROOT
BRANCH   1  16
ATOM     14  N   UNL     1       2.655  -7.644  -6.735  0.00  0.00    -0.297 N 
ATOM     15  C   UNL     1       1.570  -8.015  -5.819  0.00  0.00    +0.121 C 
ATOM     16  C   UNL     1       1.664  -7.016  -4.644  0.00  0.00    +0.101 C 
ATOM     17  C   UNL     1       3.156  -6.613  -4.691  0.00  0.00    +0.110 C 
ATOM     18  C   UNL     1       3.563  -6.861  -6.127  0.00  0.00    +0.217 C 
ATOM     19  O   UNL     1       4.562  -6.418  -6.652  0.00  0.00    -0.276 OA
BRANCH  14  20
ATOM     20  C   UNL     1       2.738  -8.071  -8.134  0.00  0.00    +0.134 C 
BRANCH  20  22
ATOM     21  C   UNL     1       2.954 -10.409  -8.804  0.00  0.00    +0.005 C 
ATOM     22  C   UNL     1       3.497  -9.370  -8.218  0.00  0.00    -0.016 C 
ENDBRANCH  20  22
ENDBRANCH  14  20
ENDBRANCH   1  16
BRANCH   9  23
ATOM     23  C   UNL     1       1.438  -1.133  -0.352  0.00  0.00    -0.010 A 
ATOM     24  C   UNL     1       0.248  -0.408  -0.487  0.00  0.00    +0.028 A 
ATOM     25  C   UNL     1       0.307   0.968  -0.550  0.00  0.00    +0.111 A 
ATOM     26  N   UNL     1       1.464   1.600  -0.483  0.00  0.00    -0.263 NA
ATOM     27  C   UNL     1       2.608   0.955  -0.356  0.00  0.00    +0.111 A 
ATOM     28  C   UNL     1       2.641  -0.421  -0.286  0.00  0.00    +0.028 A 
ENDBRANCH   9  23
BRANCH  12  29
ATOM     29  C   UNL     1       2.247  -5.307   2.159  0.00  0.00    +0.106 C 
BRANCH  29  30
ATOM     30  C   UNL     1       1.060  -5.415   3.118  0.00  0.00    -0.057 C 
BRANCH  30  36
ATOM     31  C   UNL     1       1.848  -7.495   4.074  0.00  0.00    -0.079 C 
ATOM     32  C   UNL     1       2.421  -8.132   5.342  0.00  0.00    -0.019 C 
ATOM     33  C   UNL     1       1.375  -8.066   6.458  0.00  0.00    -0.004 C 
ATOM     34  C   UNL     1       0.979  -6.606   6.690  0.00  0.00    -0.019 C 
ATOM     35  C   UNL     1       0.448  -6.013   5.383  0.00  0.00    -0.079 C 
ATOM     36  N   UNL     1       1.509  -6.084   4.357  0.00  0.00    +0.381 N 
ATOM     37  H   UNL     1       2.346  -5.605   4.710  0.00  0.00    -0.082 HD
ENDBRANCH  30  36
ENDBRANCH  29  30
ENDBRANCH  12  29
TORSDOF 7
