REMARK  Name = ZINC15769203
REMARK  6 active torsions:
REMARK  status: ('A' for Active; 'I' for Inactive)
REMARK    1  A    between atoms: C_1  and  C_2
REMARK    2  A    between atoms: C_5  and  C_8
REMARK    3  A    between atoms: C_14  and  N_18
REMARK    4  A    between atoms: N_21  and  C_24
REMARK    5  A    between atoms: C_27  and  C_33
REMARK    6  A    between atoms: C_29  and  N_30
REMARK                            x       y       z     vdW  Elec       q    Type
REMARK                         _______ _______ _______ _____ _____    ______ ____
ROOT
ATOM      1  N   UNL     1       0.146 -10.454   0.194  0.00  0.00    -0.313 N 
ATOM      2  C   UNL     1       0.255 -10.845   1.607  0.00  0.00    +0.125 C 
ATOM      3  C   UNL     1      -0.923 -11.765   1.953  0.00  0.00    +0.124 C 
ATOM      4  N   UNL     1      -1.012 -12.818   0.931  0.00  0.00    -0.325 N 
ATOM      5  C   UNL     1      -1.121 -12.427  -0.481  0.00  0.00    +0.124 C 
ATOM      6  C   UNL     1       0.051 -11.508  -0.827  0.00  0.00    +0.125 C 
ENDROOT
BRANCH   1  13
ATOM      7  C   UNL     1      -0.787  -4.929  -2.474  0.00  0.00    +0.132 A 
ATOM      8  N   UNL     1      -0.058  -5.172  -1.417  0.00  0.00    -0.154 NA
ATOM      9  N   UNL     1       0.077  -6.460  -0.908  0.00  0.00    -0.173 N 
ATOM     10  C   UNL     1       0.804  -6.841   0.183  0.00  0.00    +0.277 A 
ATOM     11  O   UNL     1       1.426  -6.007   0.824  0.00  0.00    -0.266 OA
ATOM     12  C   UNL     1       0.837  -8.176   0.566  0.00  0.00    +0.113 A 
ATOM     13  C   UNL     1       0.127  -9.120  -0.168  0.00  0.00    +0.106 A 
ATOM     14  N   UNL     1      -0.574  -8.710  -1.231  0.00  0.00    -0.322 N 
ATOM     15  C   UNL     1      -0.594  -7.449  -1.576  0.00  0.00    +0.179 A 
ATOM     16  S   UNL     1      -1.397  -6.555  -2.889  0.00  0.00    -0.030 S 
ATOM     17  H   UNL     1      -1.074  -9.357  -1.752  0.00  0.00    +0.169 HD
BRANCH   7  22
ATOM     18  C   UNL     1      -1.788   0.092  -5.104  0.00  0.00    +0.044 C 
ATOM     19  C   UNL     1      -1.526  -1.222  -4.415  0.00  0.00    -0.050 A 
ATOM     20  C   UNL     1      -0.709  -1.265  -3.299  0.00  0.00    +0.004 A 
ATOM     21  C   UNL     1      -0.466  -2.465  -2.664  0.00  0.00    +0.011 A 
ATOM     22  C   UNL     1      -1.044  -3.638  -3.150  0.00  0.00    +0.009 A 
ATOM     23  C   UNL     1      -1.866  -3.589  -4.276  0.00  0.00    +0.011 A 
ATOM     24  C   UNL     1      -2.107  -2.381  -4.899  0.00  0.00    +0.004 A 
ENDBRANCH   7  22
ENDBRANCH   1  13
BRANCH   4  25
ATOM     25  C   UNL     1      -0.994 -14.166   1.297  0.00  0.00    +0.060 A 
ATOM     26  C   UNL     1      -2.183 -14.830   1.569  0.00  0.00    +0.026 A 
ATOM     27  C   UNL     1      -2.161 -16.163   1.929  0.00  0.00    +0.014 A 
ATOM     28  C   UNL     1      -0.957 -16.837   2.020  0.00  0.00    +0.057 A 
ATOM     29  C   UNL     1       0.229 -16.179   1.750  0.00  0.00    +0.047 A 
ATOM     30  C   UNL     1       0.214 -14.847   1.384  0.00  0.00    +0.148 A 
BRANCH  28  31
ATOM     31  C   UNL     1      -0.936 -18.291   2.413  0.00  0.00    +0.417 C 
ATOM     32  F   UNL     1      -2.245 -18.733   2.634  0.00  0.00    -0.166 F 
ATOM     33  F   UNL     1      -0.357 -19.044   1.387  0.00  0.00    -0.166 F 
ATOM     34  F   UNL     1      -0.188 -18.447   3.585  0.00  0.00    -0.166 F 
ENDBRANCH  28  31
BRANCH  30  35
ATOM     35  N   UNL     1       1.483 -14.145   1.089  0.00  0.00    +0.058 N 
ATOM     36  O   UNL     1       2.534 -14.738   1.165  0.00  0.00    -0.126 OA
ATOM     37  O   UNL     1       1.469 -12.978   0.773  0.00  0.00    -0.126 OA
ENDBRANCH  30  35
ENDBRANCH   4  25
TORSDOF 5
