REMARK  Name = ZINC00951795
REMARK  8 active torsions:
REMARK  status: ('A' for Active; 'I' for Inactive)
REMARK    1  A    between atoms: C_1  and  C_2
REMARK    2  A    between atoms: C_3  and  C_31
REMARK    3  A    between atoms: C_4  and  C_17
REMARK    4  A    between atoms: C_20  and  O_23
REMARK    5  A    between atoms: O_23  and  C_24
REMARK    6  A    between atoms: C_24  and  C_25
REMARK    7  A    between atoms: C_31  and  O_33
REMARK    8  A    between atoms: O_33  and  C_34
REMARK                            x       y       z     vdW  Elec       q    Type
REMARK                         _______ _______ _______ _____ _____    ______ ____
ROOT
ATOM      1  C   UNL     1       2.097   5.589  -0.748  0.00  0.00    +0.061 C 
ATOM      2  C   UNL     1       2.241   4.139  -0.365  0.00  0.00    +0.017 C 
ATOM      3  C   UNL     1       3.455   3.565  -0.388  0.00  0.00    +0.065 C 
ATOM      4  C   UNL     1       3.655   2.127  -0.008  0.00  0.00    +0.096 C 
ATOM      5  C   UNL     1       2.348   1.385  -0.010  0.00  0.00    +0.067 A 
ATOM      6  C   UNL     1       1.160   2.052   0.002  0.00  0.00    +0.113 A 
ATOM      7  N   UNL     1      -0.016   1.341   0.009  0.00  0.00    -0.295 N 
ATOM      8  H   UNL     1      -0.890   1.827   0.020  0.00  0.00    +0.172 HD
ATOM      9  C   UNL     1       0.002  -0.004   0.002  0.00  0.00    +0.328 A 
ATOM     10  O   UNL     1      -1.048  -0.618   0.010  0.00  0.00    -0.247 OA
ATOM     11  N   UNL     1       1.165  -0.680  -0.014  0.00  0.00    -0.275 N 
ATOM     12  H   UNL     1       1.157  -1.680  -0.020  0.00  0.00    +0.173 HD
ATOM     13  C   UNL     1       2.341  -0.022  -0.021  0.00  0.00    +0.260 A 
ATOM     14  O   UNL     1       3.391  -0.641  -0.035  0.00  0.00    -0.267 OA
ATOM     15  N   UNL     1       1.133   3.426   0.003  0.00  0.00    -0.304 N 
ATOM     16  H   UNL     1       0.323   3.892   0.264  0.00  0.00    +0.153 HD
ENDROOT
BRANCH   4  17
ATOM     17  C   UNL     1       4.261   2.059   1.370  0.00  0.00    -0.035 A 
ATOM     18  C   UNL     1       3.578   2.583   2.451  0.00  0.00    +0.008 A 
ATOM     19  C   UNL     1       4.129   2.517   3.716  0.00  0.00    +0.046 A 
ATOM     20  C   UNL     1       5.375   1.934   3.899  0.00  0.00    +0.121 A 
ATOM     21  C   UNL     1       6.061   1.414   2.812  0.00  0.00    +0.046 A 
ATOM     22  C   UNL     1       5.503   1.477   1.550  0.00  0.00    +0.008 A 
BRANCH  20  23
ATOM     23  O   UNL     1       5.922   1.874   5.142  0.00  0.00    -0.487 OA
BRANCH  23  24
ATOM     24  C   UNL     1       5.159   2.430   6.214  0.00  0.00    +0.264 C 
BRANCH  24  25
ATOM     25  C   UNL     1       5.919   2.273   7.506  0.00  0.00    -0.010 A 
ATOM     26  C   UNL     1       5.741   1.141   8.280  0.00  0.00    +0.007 A 
ATOM     27  C   UNL     1       6.442   0.995   9.462  0.00  0.00    +0.000 A 
ATOM     28  C   UNL     1       7.314   1.985   9.876  0.00  0.00    +0.000 A 
ATOM     29  C   UNL     1       7.488   3.119   9.105  0.00  0.00    +0.000 A 
ATOM     30  C   UNL     1       6.790   3.263   7.920  0.00  0.00    +0.007 A 
ENDBRANCH  24  25
ENDBRANCH  23  24
ENDBRANCH  20  23
ENDBRANCH   4  17
BRANCH   3  31
ATOM     31  C   UNL     1       4.574   4.335  -0.781  0.00  0.00    +0.337 C 
ATOM     32  O   UNL     1       4.429   5.503  -1.093  0.00  0.00    -0.245 OA
BRANCH  31  33
ATOM     33  O   UNL     1       5.801   3.776  -0.810  0.00  0.00    -0.465 OA
ATOM     34  C   UNL     1       6.886   4.613  -1.217  0.00  0.00    +0.280 C 
ENDBRANCH  31  33
ENDBRANCH   3  31
TORSDOF 6
