REMARK  Name = ZINC20418873
REMARK  10 active torsions:
REMARK  status: ('A' for Active; 'I' for Inactive)
REMARK    1  A    between atoms: C_1  and  C_2
REMARK    2  A    between atoms: C_3  and  C_33
REMARK    3  A    between atoms: C_4  and  C_24
REMARK    4  A    between atoms: C_10  and  C_15
REMARK    5  A    between atoms: C_18  and  N_21
REMARK    6  A    between atoms: N_21  and  C_22
REMARK    7  A    between atoms: N_21  and  C_23
REMARK    8  A    between atoms: C_33  and  O_35
REMARK    9  A    between atoms: O_35  and  C_36
REMARK   10  A    between atoms: C_36  and  C_37
REMARK                            x       y       z     vdW  Elec       q    Type
REMARK                         _______ _______ _______ _____ _____    ______ ____
ROOT
ATOM      1  C   UNL     1      -4.314   7.938  -2.526  0.00  0.00    +0.061 C 
ATOM      2  C   UNL     1      -5.193   7.401  -1.427  0.00  0.00    +0.016 C 
ATOM      3  C   UNL     1      -4.914   6.209  -0.871  0.00  0.00    +0.065 C 
ATOM      4  C   UNL     1      -5.776   5.636   0.216  0.00  0.00    +0.092 C 
ATOM      5  C   UNL     1      -6.628   6.708   0.850  0.00  0.00    +0.024 C 
ATOM      6  C   UNL     1      -6.837   7.884   0.221  0.00  0.00    +0.016 C 
ATOM      7  N   UNL     1      -6.269   8.129  -1.001  0.00  0.00    -0.321 N 
ATOM      8  C   UNL     1      -7.692   8.958   0.845  0.00  0.00    +0.059 C 
ATOM      9  C   UNL     1      -8.774   8.313   1.714  0.00  0.00    +0.032 C 
ATOM     10  C   UNL     1      -8.091   7.454   2.783  0.00  0.00    +0.088 C 
ATOM     11  C   UNL     1      -7.205   6.444   2.105  0.00  0.00    +0.162 C 
ATOM     12  O   UNL     1      -6.983   5.382   2.652  0.00  0.00    -0.292 OA
ATOM     13  H   UNL     1      -6.687   8.919  -1.641  0.00  0.00    +0.152 HD
ENDROOT
BRANCH   4  14
ATOM     14  C   UNL     1      -6.667   4.570  -0.369  0.00  0.00    -0.032 A 
ATOM     15  C   UNL     1      -7.559   4.893  -1.375  0.00  0.00    +0.008 A 
ATOM     16  C   UNL     1      -8.378   3.919  -1.914  0.00  0.00    +0.050 A 
ATOM     17  C   UNL     1      -8.307   2.616  -1.448  0.00  0.00    +0.166 A 
ATOM     18  C   UNL     1      -7.408   2.292  -0.435  0.00  0.00    +0.167 A 
ATOM     19  C   UNL     1      -6.586   3.272   0.097  0.00  0.00    +0.054 A 
ATOM     20  O   UNL     1      -7.529   0.961  -0.155  0.00  0.00    -0.453 OA
ATOM     21  C   UNL     1      -8.217   0.391  -1.284  0.00  0.00    +0.466 C 
ATOM     22  O   UNL     1      -8.991   1.489  -1.802  0.00  0.00    -0.453 OA
ENDBRANCH   4  14
BRANCH   9  23
ATOM     23  C   UNL     1      -9.597   9.387   2.378  0.00  0.00    -0.043 A 
ATOM     24  C   UNL     1      -8.991  10.294   3.228  0.00  0.00    +0.006 A 
ATOM     25  C   UNL     1      -9.742  11.282   3.834  0.00  0.00    +0.023 A 
ATOM     26  C   UNL     1     -11.108  11.358   3.598  0.00  0.00    +0.029 A 
ATOM     27  C   UNL     1     -11.715  10.442   2.748  0.00  0.00    +0.023 A 
ATOM     28  C   UNL     1     -10.958   9.460   2.141  0.00  0.00    +0.006 A 
BRANCH  26  29
ATOM     29  N   UNL     1     -11.871  12.354   4.213  0.00  0.00    -0.336 N 
ATOM     30  C   UNL     1     -13.328  12.361   4.058  0.00  0.00    +0.129 C 
ATOM     31  C   UNL     1     -11.214  13.390   5.013  0.00  0.00    +0.129 C 
ENDBRANCH  26  29
ENDBRANCH   9  23
BRANCH   3  32
ATOM     32  C   UNL     1      -3.791   5.478  -1.324  0.00  0.00    +0.338 C 
ATOM     33  O   UNL     1      -2.758   5.490  -0.681  0.00  0.00    -0.245 OA
BRANCH  32  34
ATOM     34  O   UNL     1      -3.865   4.768  -2.469  0.00  0.00    -0.459 OA
BRANCH  34  35
ATOM     35  C   UNL     1      -2.692   4.054  -2.866  0.00  0.00    +0.264 C 
BRANCH  35  36
ATOM     36  C   UNL     1      -2.965   3.315  -4.178  0.00  0.00    +0.156 C 
ATOM     37  C   UNL     1      -1.675   2.638  -4.692  0.00  0.00    +0.037 C 
ATOM     38  C   UNL     1      -2.167   1.303  -5.296  0.00  0.00    +0.031 C 
ATOM     39  C   UNL     1      -3.696   1.328  -5.075  0.00  0.00    +0.160 C 
ATOM     40  O   UNL     1      -3.891   2.228  -3.959  0.00  0.00    -0.373 OA
ENDBRANCH  35  36
ENDBRANCH  34  35
ENDBRANCH  32  34
ENDBRANCH   3  32
TORSDOF 7
