REMARK  Name = ZINC21251655
REMARK  10 active torsions:
REMARK  status: ('A' for Active; 'I' for Inactive)
REMARK    1  A    between atoms: C_1  and  C_2
REMARK    2  A    between atoms: C_2  and  O_3
REMARK    3  A    between atoms: O_3  and  C_4
REMARK    4  A    between atoms: C_4  and  C_6
REMARK    5  A    between atoms: C_7  and  C_13
REMARK    6  A    between atoms: C_13  and  S_14
REMARK    7  A    between atoms: S_14  and  C_15
REMARK    8  A    between atoms: C_18  and  C_27
REMARK    9  A    between atoms: N_19  and  C_20
REMARK   10  A    between atoms: C_24  and  C_26
REMARK                            x       y       z     vdW  Elec       q    Type
REMARK                         _______ _______ _______ _____ _____    ______ ____
ROOT
ATOM      1  C   UNL     1      -3.189  -0.194   0.862  0.00  0.00    +0.197 A 
ATOM      2  N   UNL     1      -4.412  -0.596   0.609  0.00  0.00    -0.122 NA
ATOM      3  N   UNL     1      -4.773  -0.209  -0.562  0.00  0.00    -0.128 NA
ATOM      4  C   UNL     1      -3.803   0.471  -1.130  0.00  0.00    +0.171 A 
ATOM      5  N   UNL     1      -2.754   0.498  -0.238  0.00  0.00    -0.270 N 
ENDROOT
BRANCH   4   6
ATOM      6  C   UNL     1      -3.831   1.086  -2.472  0.00  0.00    +0.045 A 
ATOM      7  C   UNL     1      -2.832   1.792  -3.062  0.00  0.00    +0.095 A 
ATOM      8  N   UNL     1      -3.227   2.199  -4.303  0.00  0.00    -0.360 N 
ATOM      9  H   UNL     1      -2.541   2.782  -4.935  0.00  0.00    +0.165 HD
ATOM     10  C   UNL     1      -4.513   1.774  -4.557  0.00  0.00    +0.047 A 
ATOM     11  C   UNL     1      -4.951   1.060  -3.429  0.00  0.00    +0.010 A 
ATOM     12  C   UNL     1      -6.230   0.508  -3.405  0.00  0.00    +0.011 A 
ATOM     13  C   UNL     1      -7.061   0.666  -4.492  0.00  0.00    +0.001 A 
ATOM     14  C   UNL     1      -6.630   1.370  -5.607  0.00  0.00    +0.002 A 
ATOM     15  C   UNL     1      -5.368   1.921  -5.645  0.00  0.00    +0.026 A 
ENDBRANCH   4   6
BRANCH   5  16
ATOM     16  C   UNL     1      -1.505   1.109  -0.416  0.00  0.00    +0.051 A 
ATOM     17  C   UNL     1      -1.417   2.490  -0.537  0.00  0.00    +0.026 A 
ATOM     18  C   UNL     1      -0.186   3.089  -0.718  0.00  0.00    +0.002 A 
ATOM     19  C   UNL     1       0.959   2.316  -0.774  0.00  0.00    +0.003 A 
ATOM     20  C   UNL     1       0.875   0.942  -0.649  0.00  0.00    -0.048 A 
ATOM     21  C   UNL     1      -0.353   0.336  -0.467  0.00  0.00    +0.029 A 
ATOM     22  C   UNL     1       2.126   0.103  -0.711  0.00  0.00    +0.044 C 
ENDBRANCH   5  16
BRANCH   1  23
ATOM     23  S   UNL     1      -2.276  -0.489   2.340  0.00  0.00    -0.080 S 
BRANCH  23  24
ATOM     24  C   UNL     1      -3.497  -1.440   3.279  0.00  0.00    +0.128 C 
BRANCH  24  26
ATOM     25  C   UNL     1      -3.326  -1.153   5.726  0.00  0.00    +0.071 C 
ATOM     26  C   UNL     1      -2.920  -1.813   4.620  0.00  0.00    +0.034 C 
ATOM     27  N   UNL     1      -1.998  -2.818   4.698  0.00  0.00    -0.272 N 
ATOM     28  C   UNL     1      -1.427  -3.214   5.842  0.00  0.00    +0.304 C 
ATOM     29  O   UNL     1      -0.611  -4.115   5.811  0.00  0.00    -0.253 OA
ATOM     30  N   UNL     1      -1.731  -2.651   7.028  0.00  0.00    -0.295 N 
ATOM     31  C   UNL     1      -2.720  -1.561   7.053  0.00  0.00    +0.150 C 
ATOM     32  H   UNL     1      -1.687  -3.350   3.787  0.00  0.00    +0.156 HD
ATOM     33  H   UNL     1      -1.259  -2.987   7.963  0.00  0.00    +0.151 HD
BRANCH  25  34
ATOM     34  C   UNL     1      -4.285  -0.116   5.647  0.00  0.00    +0.338 C 
ATOM     35  O   UNL     1      -3.928   1.046   5.670  0.00  0.00    -0.245 OA
BRANCH  34  36
ATOM     36  O   UNL     1      -5.597  -0.417   5.547  0.00  0.00    -0.462 OA
BRANCH  36  38
ATOM     37  C   UNL     1      -7.940   0.146   5.364  0.00  0.00    +0.048 C 
ATOM     38  C   UNL     1      -6.510   0.680   5.472  0.00  0.00    +0.229 C 
ENDBRANCH  36  38
ENDBRANCH  34  36
ENDBRANCH  25  34
ENDBRANCH  24  26
ENDBRANCH  23  24
ENDBRANCH   1  23
TORSDOF 8
