REMARK  Name = ZINC04331383
REMARK  7 active torsions:
REMARK  status: ('A' for Active; 'I' for Inactive)
REMARK    1  A    between atoms: C_1  and  C_2
REMARK    2  A    between atoms: C_2  and  C_29
REMARK    3  A    between atoms: C_6  and  C_18
REMARK    4  A    between atoms: C_11  and  S_15
REMARK    5  A    between atoms: S_15  and  C_16
REMARK    6  A    between atoms: C_21  and  O_24
REMARK    7  A    between atoms: O_24  and  C_25
REMARK                            x       y       z     vdW  Elec       q    Type
REMARK                         _______ _______ _______ _____ _____    ______ ____
ROOT
ATOM      1  C   UNL     1       2.968  -3.640  -3.133  0.00  0.00    +0.011 C 
ATOM      2  C   UNL     1       3.204  -4.506  -1.894  0.00  0.00    -0.023 C 
ATOM      3  C   UNL     1       2.166  -4.167  -0.822  0.00  0.00    +0.058 C 
ATOM      4  C   UNL     1       2.308  -2.719  -0.420  0.00  0.00    +0.017 C 
ATOM      5  C   UNL     1       3.510  -2.105  -0.448  0.00  0.00    +0.024 C 
ATOM      6  C   UNL     1       3.666  -0.665  -0.026  0.00  0.00    +0.090 C 
ATOM      7  C   UNL     1       2.347   0.047  -0.017  0.00  0.00    +0.044 A 
ATOM      8  C   UNL     1       2.292   1.438  -0.011  0.00  0.00    +0.126 A 
ATOM      9  N   UNL     1       1.101   2.034   0.003  0.00  0.00    -0.207 NA
ATOM     10  C   UNL     1      -0.016   1.321   0.009  0.00  0.00    +0.191 A 
ATOM     11  N   UNL     1       0.002  -0.004   0.002  0.00  0.00    -0.206 NA
ATOM     12  C   UNL     1       1.156  -0.665  -0.011  0.00  0.00    +0.133 A 
ATOM     13  N   UNL     1       1.184  -2.049  -0.022  0.00  0.00    -0.302 N 
ATOM     14  N   UNL     1       3.456   2.190  -0.019  0.00  0.00    -0.343 N 
ATOM     15  C   UNL     1       4.661  -2.789  -0.875  0.00  0.00    +0.162 C 
ATOM     16  O   UNL     1       5.730  -2.210  -0.882  0.00  0.00    -0.292 OA
ATOM     17  C   UNL     1       4.598  -4.223  -1.325  0.00  0.00    +0.086 C 
ATOM     18  C   UNL     1       3.093  -5.985  -2.270  0.00  0.00    +0.011 C 
ATOM     19  H   UNL     1       0.399  -2.548   0.256  0.00  0.00    +0.153 HD
ATOM     20  H   UNL     1       4.319   1.748  -0.029  0.00  0.00    +0.144 HD
ATOM     21  H   UNL     1       3.408   3.159  -0.015  0.00  0.00    +0.144 HD
ENDROOT
BRANCH   6  22
ATOM     22  C   UNL     1       4.259  -0.619   1.358  0.00  0.00    -0.035 A 
ATOM     23  C   UNL     1       3.591  -1.208   2.416  0.00  0.00    +0.008 A 
ATOM     24  C   UNL     1       4.136  -1.172   3.685  0.00  0.00    +0.046 A 
ATOM     25  C   UNL     1       5.349  -0.533   3.900  0.00  0.00    +0.120 A 
ATOM     26  C   UNL     1       6.014   0.062   2.838  0.00  0.00    +0.046 A 
ATOM     27  C   UNL     1       5.468   0.018   1.570  0.00  0.00    +0.008 A 
BRANCH  25  28
ATOM     28  O   UNL     1       5.884  -0.492   5.148  0.00  0.00    -0.495 OA
ATOM     29  C   UNL     1       5.144  -1.126   6.193  0.00  0.00    +0.277 C 
ENDBRANCH  25  28
ENDBRANCH   6  22
BRANCH  10  30
ATOM     30  S   UNL     1      -1.567   2.158   0.021  0.00  0.00    -0.089 S 
ATOM     31  C   UNL     1      -0.997   3.876   0.028  0.00  0.00    +0.093 C 
ENDBRANCH  10  30
TORSDOF 3
