REMARK  Name = ZINC19297737
REMARK  10 active torsions:
REMARK  status: ('A' for Active; 'I' for Inactive)
REMARK    1  A    between atoms: C_1  and  C_2
REMARK    2  A    between atoms: C_2  and  C_3
REMARK    3  A    between atoms: C_2  and  C_4
REMARK    4  A    between atoms: C_2  and  C_5
REMARK    5  A    between atoms: C_12  and  C_14
REMARK    6  A    between atoms: C_17  and  S_22
REMARK    7  A    between atoms: N_18  and  C_19
REMARK    8  A    between atoms: C_19  and  C_20
REMARK    9  A    between atoms: S_22  and  C_23
REMARK   10  A    between atoms: C_23  and  C_24
REMARK                            x       y       z     vdW  Elec       q    Type
REMARK                         _______ _______ _______ _____ _____    ______ ____
ROOT
ATOM      1  C   UNL     1      -1.126   2.278   0.019  0.00  0.00    +0.172 A 
ATOM      2  N   UNL     1      -0.689   3.518   0.026  0.00  0.00    -0.128 NA
ATOM      3  N   UNL     1       0.596   3.531   0.015  0.00  0.00    -0.122 NA
ATOM      4  C   UNL     1       1.060   2.302   0.004  0.00  0.00    +0.193 A 
ATOM      5  N   UNL     1      -0.018   1.461   0.010  0.00  0.00    -0.298 N 
ENDROOT
BRANCH   1  12
ATOM      6  C   UNL     1      -7.372   1.903  -0.042  0.00  0.00    -0.001 C 
ATOM      7  C   UNL     1      -7.316   0.452   0.444  0.00  0.00    +0.009 C 
ATOM      8  C   UNL     1      -6.121  -0.246  -0.224  0.00  0.00    +0.043 C 
ATOM      9  C   UNL     1      -4.926   0.641  -0.093  0.00  0.00    -0.006 A 
ATOM     10  C   UNL     1      -4.905   1.961   0.250  0.00  0.00    -0.036 A 
ATOM     11  C   UNL     1      -3.659   2.572   0.307  0.00  0.00    +0.023 A 
ATOM     12  C   UNL     1      -2.533   1.846   0.023  0.00  0.00    +0.057 A 
ATOM     13  S   UNL     1      -3.218   0.238  -0.348  0.00  0.00    -0.090 S 
ATOM     14  C   UNL     1      -6.207   2.698   0.550  0.00  0.00    +0.040 C 
BRANCH   6  16
ATOM     15  C   UNL     1      -8.792   2.503   1.924  0.00  0.00    +0.011 C 
ATOM     16  C   UNL     1      -8.694   2.535   0.398  0.00  0.00    -0.035 C 
ATOM     17  C   UNL     1      -8.752   3.985  -0.086  0.00  0.00    +0.011 C 
ATOM     18  C   UNL     1      -9.860   1.749  -0.205  0.00  0.00    +0.011 C 
ENDBRANCH   6  16
ENDBRANCH   1  12
BRANCH   5  19
ATOM     19  C   UNL     1       0.002  -0.004   0.002  0.00  0.00    +0.152 C 
BRANCH  19  20
ATOM     20  C   UNL     1       0.022  -0.514   1.420  0.00  0.00    -0.013 C 
ATOM     21  C   UNL     1      -0.892  -1.361   1.824  0.00  0.00    +0.005 C 
ENDBRANCH  19  20
ENDBRANCH   5  19
BRANCH   4  22
ATOM     22  S   UNL     1       2.757   1.826  -0.013  0.00  0.00    -0.078 S 
BRANCH  22  23
ATOM     23  C   UNL     1       3.541   3.458  -0.013  0.00  0.00    +0.153 C 
BRANCH  23  24
ATOM     24  C   UNL     1       5.039   3.295  -0.027  0.00  0.00    +0.146 A 
ATOM     25  N   UNL     1       5.705   3.224   1.113  0.00  0.00    -0.199 NA
ATOM     26  C   UNL     1       7.027   3.076   1.104  0.00  0.00    +0.217 A 
ATOM     27  N   UNL     1       7.679   3.010  -0.052  0.00  0.00    -0.181 NA
ATOM     28  C   UNL     1       7.007   3.086  -1.195  0.00  0.00    +0.217 A 
ATOM     29  N   UNL     1       5.684   3.229  -1.178  0.00  0.00    -0.199 NA
ATOM     30  N   UNL     1       7.679   3.018  -2.398  0.00  0.00    -0.327 N 
ATOM     31  N   UNL     1       7.721   2.997   2.294  0.00  0.00    -0.327 N 
ATOM     32  H   UNL     1       7.122   3.082  -3.344  0.00  0.00    +0.145 HD
ATOM     33  H   UNL     1       8.773   2.900  -2.411  0.00  0.00    +0.145 HD
ATOM     34  H   UNL     1       8.814   2.875   2.287  0.00  0.00    +0.145 HD
ATOM     35  H   UNL     1       7.181   3.056   3.251  0.00  0.00    +0.145 HD
ENDBRANCH  23  24
ENDBRANCH  22  23
ENDBRANCH   4  22
TORSDOF 7
