REMARK  Name = ZINC13151174
REMARK  15 active torsions:
REMARK  status: ('A' for Active; 'I' for Inactive)
REMARK    1  A    between atoms: C_1  and  C_2
REMARK    2  A    between atoms: C_2  and  O_3
REMARK    3  A    between atoms: O_3  and  C_4
REMARK    4  A    between atoms: C_4  and  C_6
REMARK    5  A    between atoms: C_6  and  N_7
REMARK    6  A    between atoms: C_8  and  C_12
REMARK    7  A    between atoms: C_12  and  C_14
REMARK    8  A    between atoms: C_12  and  N_17
REMARK    9  A    between atoms: C_14  and  C_15
REMARK   10  A    between atoms: C_14  and  C_16
REMARK   11  A    between atoms: N_17  and  C_18
REMARK   12  A    between atoms: N_17  and  C_24
REMARK   13  A    between atoms: C_18  and  C_19
REMARK   14  A    between atoms: C_24  and  C_25
REMARK   15  A    between atoms: C_29  and  C_37
REMARK                            x       y       z     vdW  Elec       q    Type
REMARK                         _______ _______ _______ _____ _____    ______ ____
ROOT
ATOM      1  N   UNL     1      -1.450  -4.969  -3.642  0.00  0.00    +0.392 N 
ATOM      2  H   UNL     1      -1.847  -5.896  -3.619  0.00  0.00    -0.080 HD
ENDROOT
BRANCH   1   3
ATOM      3  C   UNL     1      -2.470  -3.990  -3.245  0.00  0.00    +0.006 C 
BRANCH   3   5
ATOM      4  N   UNL     1      -3.237  -3.451  -0.873  0.00  0.00    -0.220 N 
ATOM      5  C   UNL     1      -2.976  -4.323  -1.865  0.00  0.00    +0.139 A 
ATOM      6  N   UNL     1      -3.247  -5.517  -1.397  0.00  0.00    -0.115 NA
ATOM      7  N   UNL     1      -3.653  -5.386  -0.182  0.00  0.00    -0.023 NA
ATOM      8  N   UNL     1      -3.643  -4.140   0.140  0.00  0.00    -0.043 NA
BRANCH   4   9
ATOM      9  C   UNL     1      -3.083  -1.996  -0.930  0.00  0.00    +0.267 C 
BRANCH   9  10
ATOM     10  C   UNL     1      -1.653  -1.629  -0.626  0.00  0.00    +0.329 C 
ATOM     11  O   UNL     1      -0.867  -2.486  -0.297  0.00  0.00    -0.249 OA
BRANCH  10  12
ATOM     12  O   UNL     1      -1.253  -0.352  -0.721  0.00  0.00    -0.464 OA
BRANCH  12  14
ATOM     13  C   UNL     1       0.383   1.421  -0.580  0.00  0.00    +0.048 C 
ATOM     14  C   UNL     1       0.116  -0.076  -0.418  0.00  0.00    +0.229 C 
ENDBRANCH  12  14
ENDBRANCH  10  12
ENDBRANCH   9  10
ENDBRANCH   4   9
ENDBRANCH   3   5
BRANCH   3  15
ATOM     15  C   UNL     1      -3.633  -4.034  -4.238  0.00  0.00    -0.024 C 
ATOM     16  C   UNL     1      -4.245  -5.436  -4.245  0.00  0.00    +0.006 C 
ATOM     17  C   UNL     1      -4.697  -3.015  -3.823  0.00  0.00    +0.006 C 
ENDBRANCH   3  15
ENDBRANCH   1   3
BRANCH   1  18
ATOM     18  C   UNL     1      -0.316  -4.899  -2.711  0.00  0.00    -0.034 C 
BRANCH  18  19
ATOM     19  C   UNL     1      -0.581  -5.794  -1.528  0.00  0.00    -0.027 A 
ATOM     20  C   UNL     1      -0.393  -7.131  -1.410  0.00  0.00    +0.009 A 
ATOM     21  C   UNL     1      -0.709  -7.750  -0.215  0.00  0.00    +0.008 A 
ATOM     22  C   UNL     1      -1.198  -7.001   0.804  0.00  0.00    +0.045 A 
ATOM     23  S   UNL     1      -1.218  -5.367   0.084  0.00  0.00    -0.103 S 
ENDBRANCH  18  19
ENDBRANCH   1  18
BRANCH   1  24
ATOM     24  C   UNL     1      -0.986  -4.668  -5.003  0.00  0.00    -0.036 C 
BRANCH  24  25
ATOM     25  C   UNL     1      -0.008  -5.726  -5.446  0.00  0.00    +0.001 A 
ATOM     26  C   UNL     1      -0.440  -6.780  -6.180  0.00  0.00    +0.017 A 
ATOM     27  C   UNL     1       0.535  -7.790  -6.595  0.00  0.00    -0.001 A 
ATOM     28  C   UNL     1       0.149  -8.900  -7.353  0.00  0.00    +0.013 A 
ATOM     29  C   UNL     1       1.083  -9.825  -7.725  0.00  0.00    -0.050 A 
ATOM     30  C   UNL     1       2.413  -9.673  -7.356  0.00  0.00    +0.005 A 
ATOM     31  C   UNL     1       2.816  -8.588  -6.608  0.00  0.00    +0.026 A 
ATOM     32  C   UNL     1       1.882  -7.633  -6.219  0.00  0.00    +0.049 A 
ATOM     33  N   UNL     1       2.258  -6.537  -5.471  0.00  0.00    -0.322 N 
ATOM     34  H   UNL     1       3.187  -6.430  -5.213  0.00  0.00    +0.169 HD
ATOM     35  C   UNL     1       1.356  -5.612  -5.100  0.00  0.00    +0.251 A 
ATOM     36  O   UNL     1       1.724  -4.653  -4.444  0.00  0.00    -0.268 OA
ATOM     37  C   UNL     1       0.667 -11.021  -8.542  0.00  0.00    +0.044 C 
ENDBRANCH  24  25
ENDBRANCH   1  24
TORSDOF 11
