REMARK  Name = ZINC32883982
REMARK  13 active torsions:
REMARK  status: ('A' for Active; 'I' for Inactive)
REMARK    1  A    between atoms: C_1  and  C_2
REMARK    2  A    between atoms: C_2  and  O_3
REMARK    3  A    between atoms: O_3  and  C_4
REMARK    4  A    between atoms: C_4  and  C_6
REMARK    5  A    between atoms: C_10  and  N_11
REMARK    6  A    between atoms: C_12  and  C_14
REMARK    7  A    between atoms: C_14  and  S_15
REMARK    8  A    between atoms: S_15  and  C_16
REMARK    9  A    between atoms: C_19  and  C_22
REMARK   10  A    between atoms: C_22  and  C_23
REMARK   11  A    between atoms: C_22  and  C_24
REMARK   12  A    between atoms: C_22  and  C_25
REMARK   13  A    between atoms: C_27  and  C_31
REMARK                            x       y       z     vdW  Elec       q    Type
REMARK                         _______ _______ _______ _____ _____    ______ ____
ROOT
ATOM      1  N   UNL     1      -8.942  -1.500   1.340  0.00  0.00    -0.279 N 
ATOM      2  C   UNL     1      -7.657  -1.854   1.534  0.00  0.00    +0.228 C 
ATOM      3  O   UNL     1      -7.381  -2.996   1.837  0.00  0.00    -0.275 OA
ATOM      4  H   UNL     1      -9.192  -0.464   1.066  0.00  0.00    +0.155 HD
ENDROOT
BRANCH   1   9
ATOM      5  C   UNL     1     -11.320  -2.268   1.337  0.00  0.00    +0.091 A 
ATOM      6  C   UNL     1     -12.169  -3.429   1.546  0.00  0.00    -0.021 A 
ATOM      7  C   UNL     1     -11.519  -4.564   1.878  0.00  0.00    -0.004 A 
ATOM      8  S   UNL     1      -9.807  -4.114   1.910  0.00  0.00    -0.077 S 
ATOM      9  C   UNL     1      -9.950  -2.440   1.487  0.00  0.00    +0.086 A 
ATOM     10  C   UNL     1     -12.127  -5.905   2.155  0.00  0.00    +0.046 C 
ATOM     11  C   UNL     1     -13.574  -5.896   1.641  0.00  0.00    -0.009 C 
ATOM     12  C   UNL     1     -14.265  -4.622   2.136  0.00  0.00    +0.008 C 
ATOM     13  C   UNL     1     -13.687  -3.403   1.414  0.00  0.00    +0.037 C 
ATOM     14  C   UNL     1     -14.316  -7.122   2.175  0.00  0.00    +0.008 C 
BRANCH   5  15
ATOM     15  C   UNL     1     -11.887  -0.966   0.978  0.00  0.00    +0.342 C 
ATOM     16  O   UNL     1     -12.042  -0.672  -0.192  0.00  0.00    -0.245 OA
BRANCH  15  17
ATOM     17  O   UNL     1     -12.237  -0.093   1.945  0.00  0.00    -0.461 OA
BRANCH  17  19
ATOM     18  C   UNL     1     -13.127   2.028   2.744  0.00  0.00    +0.048 C 
ATOM     19  C   UNL     1     -12.793   1.178   1.516  0.00  0.00    +0.229 C 
ENDBRANCH  17  19
ENDBRANCH  15  17
ENDBRANCH   5  15
ENDBRANCH   1   9
BRANCH   2  20
ATOM     20  C   UNL     1      -6.561  -0.832   1.374  0.00  0.00    +0.173 C 
BRANCH  20  21
ATOM     21  S   UNL     1      -4.959  -1.609   1.698  0.00  0.00    -0.077 S 
BRANCH  21  22
ATOM     22  C   UNL     1      -3.893  -0.229   1.448  0.00  0.00    +0.185 A 
ATOM     23  N   UNL     1      -2.532  -0.223   1.560  0.00  0.00    -0.205 NA
ATOM     24  H   UNL     1      -5.258   1.403   0.930  0.00  0.00    +0.191 HD
ATOM     25  C   UNL     1      -2.143   1.058   1.278  0.00  0.00    +0.157 A 
ATOM     26  N   UNL     1      -3.221   1.744   1.026  0.00  0.00    -0.156 NA
ATOM     27  N   UNL     1      -4.257   0.989   1.119  0.00  0.00    -0.254 N 
BRANCH  25  28
ATOM     28  C   UNL     1      -0.728   1.578   1.261  0.00  0.00    +0.024 C 
ATOM     29  C   UNL     1      -0.016   1.078   0.002  0.00  0.00    +0.019 C 
ATOM     30  C   UNL     1       0.014   1.075   2.501  0.00  0.00    +0.019 C 
ATOM     31  C   UNL     1      -0.748   3.108   1.263  0.00  0.00    +0.019 C 
ENDBRANCH  25  28
ENDBRANCH  21  22
ENDBRANCH  20  21
ENDBRANCH   2  20
TORSDOF 8
