REMARK  Name = ZINC05474882
REMARK  6 active torsions:
REMARK  status: ('A' for Active; 'I' for Inactive)
REMARK    1  A    between atoms: C_1  and  C_2
REMARK    2  A    between atoms: C_2  and  O_3
REMARK    3  A    between atoms: O_3  and  C_4
REMARK    4  A    between atoms: C_7  and  N_8
REMARK    5  A    between atoms: N_8  and  C_9
REMARK    6  A    between atoms: C_20  and  C_25
REMARK                            x       y       z     vdW  Elec       q    Type
REMARK                         _______ _______ _______ _____ _____    ______ ____
ROOT
ATOM      1  C   UNL     1       0.746  -1.888  -1.280  0.00  0.00    +0.345 C 
ATOM      2  C   UNL     1       1.349  -2.258  -2.612  0.00  0.00    +0.081 C 
ATOM      3  C   UNL     1       0.559  -2.509  -3.679  0.00  0.00    +0.085 C 
ATOM      4  C   UNL     1       2.763  -2.337  -2.724  0.00  0.00    +0.200 C 
ATOM      5  O   UNL     1       3.304  -2.526  -3.799  0.00  0.00    -0.287 OA
ATOM      6  C   UNL     1       3.552  -2.180  -1.482  0.00  0.00    +0.064 A 
ATOM      7  C   UNL     1       4.935  -2.019  -1.524  0.00  0.00    +0.018 A 
ATOM      8  C   UNL     1       5.638  -1.858  -0.348  0.00  0.00    -0.050 A 
ATOM      9  C   UNL     1       4.973  -1.855   0.868  0.00  0.00    +0.007 A 
ATOM     10  C   UNL     1       3.603  -2.020   0.920  0.00  0.00    +0.047 A 
ATOM     11  C   UNL     1       2.881  -2.192  -0.251  0.00  0.00    +0.135 A 
ATOM     12  O   UNL     1       1.547  -2.399  -0.217  0.00  0.00    -0.459 OA
ATOM     13  C   UNL     1       7.134  -1.685  -0.385  0.00  0.00    +0.044 C 
ENDROOT
BRANCH   3  14
ATOM     14  N   UNL     1      -0.800  -2.429  -3.558  0.00  0.00    -0.320 N 
ATOM     15  H   UNL     1      -1.197  -2.192  -2.705  0.00  0.00    +0.152 HD
BRANCH  14  16
ATOM     16  C   UNL     1      -1.617  -2.689  -4.662  0.00  0.00    +0.031 A 
ATOM     17  C   UNL     1      -1.050  -3.035  -5.882  0.00  0.00    +0.024 A 
ATOM     18  C   UNL     1      -1.859  -3.291  -6.970  0.00  0.00    +0.022 A 
ATOM     19  C   UNL     1      -3.235  -3.204  -6.847  0.00  0.00    +0.041 A 
ATOM     20  C   UNL     1      -3.803  -2.860  -5.633  0.00  0.00    +0.022 A 
ATOM     21  C   UNL     1      -2.999  -2.608  -4.539  0.00  0.00    +0.024 A 
ATOM     22 CL   UNL     1      -4.250  -3.527  -8.218  0.00  0.00    -0.084 Cl
ENDBRANCH  14  16
ENDBRANCH   3  14
BRANCH   1  23
ATOM     23  O   UNL     1       0.671  -0.465  -1.174  0.00  0.00    -0.338 OA
BRANCH  23  25
ATOM     24  C   UNL     1      -0.019   1.526   0.010  0.00  0.00    +0.034 C 
ATOM     25  C   UNL     1       0.002  -0.004   0.002  0.00  0.00    +0.161 C 
ENDBRANCH  23  25
ENDBRANCH   1  23
TORSDOF 4
