REMARK  Name = ZINC15003063
REMARK  11 active torsions:
REMARK  status: ('A' for Active; 'I' for Inactive)
REMARK    1  A    between atoms: C_1  and  N_75
REMARK    2  A    between atoms: C_5  and  C_8
REMARK    3  A    between atoms: C_13  and  C_16
REMARK    4  A    between atoms: C_16  and  C_27
REMARK    5  A    between atoms: N_19  and  C_23
REMARK    6  A    between atoms: C_23  and  C_24
REMARK    7  A    between atoms: C_24  and  N_77
REMARK    8  A    between atoms: C_25  and  N_77
REMARK    9  A    between atoms: C_26  and  N_77
REMARK   10  A    between atoms: C_27  and  C_28
REMARK   11  A    between atoms: C_28  and  C_29
REMARK                            x       y       z     vdW  Elec       q    Type
REMARK                         _______ _______ _______ _____ _____    ______ ____
ROOT
ATOM      1  C   UNL     1      -1.679  -3.678   4.499  0.00  0.00    +0.116 C 
ATOM      2  C   UNL     1      -2.835  -2.902   5.099  0.00  0.00    +0.247 C 
ATOM      3  O   UNL     1      -3.660  -2.241   4.505  0.00  0.00    -0.273 OA
ATOM      4  N   UNL     1      -2.757  -3.102   6.429  0.00  0.00    -0.226 N 
ATOM      5  C   UNL     1      -1.722  -3.887   6.750  0.00  0.00    +0.309 C 
ATOM      6  O   UNL     1      -1.447  -4.210   7.889  0.00  0.00    -0.252 OA
ATOM      7  N   UNL     1      -1.022  -4.281   5.671  0.00  0.00    -0.285 N 
ATOM      8  H   UNL     1      -0.237  -4.851   5.666  0.00  0.00    +0.151 HD
ENDROOT
BRANCH   1  14
ATOM      9  C   UNL     1       0.012   1.098   2.488  0.00  0.00    +0.217 C 
ATOM     10  O   UNL     1       0.537   1.898   3.234  0.00  0.00    -0.275 OA
ATOM     11  N   UNL     1       0.086  -0.221   2.755  0.00  0.00    -0.301 N 
ATOM     12  C   UNL     1      -0.460  -1.207   1.813  0.00  0.00    +0.108 C 
ATOM     13  C   UNL     1      -1.429  -2.124   2.559  0.00  0.00    +0.025 C 
ATOM     14  C   UNL     1      -0.720  -2.736   3.769  0.00  0.00    +0.024 C 
ATOM     15  C   UNL     1      -0.277  -1.621   4.721  0.00  0.00    +0.025 C 
ATOM     16  C   UNL     1       0.709  -0.700   3.997  0.00  0.00    +0.108 C 
BRANCH   9  21
ATOM     17  C   UNL     1      -0.319   4.667  -0.852  0.00  0.00    -0.096 C 
ATOM     18  C   UNL     1      -2.335   3.599  -0.043  0.00  0.00    -0.079 C 
ATOM     19  C   UNL     1      -2.946   2.252   0.351  0.00  0.00    -0.018 C 
ATOM     20  C   UNL     1      -2.215   1.706   1.581  0.00  0.00    +0.009 C 
ATOM     21  C   UNL     1      -0.723   1.579   1.264  0.00  0.00    +0.059 C 
ATOM     22  C   UNL     1      -0.177   2.945   0.844  0.00  0.00    -0.067 C 
ATOM     23  N   UNL     1      -0.904   3.403  -0.359  0.00  0.00    +0.378 N 
ATOM     24  H   UNL     1      -0.820   2.689  -1.092  0.00  0.00    -0.082 HD
ENDBRANCH   9  21
ENDBRANCH   1  14
BRANCH   4  25
ATOM     25  C   UNL     1      -3.689  -2.530   7.404  0.00  0.00    +0.099 C 
BRANCH  25  26
ATOM     26  C   UNL     1      -4.857  -3.494   7.619  0.00  0.00    -0.060 C 
BRANCH  26  29
ATOM     27  C   UNL     1      -7.037  -3.698   8.652  0.00  0.00    -0.097 C 
ATOM     28  C   UNL     1      -5.172  -2.822   9.923  0.00  0.00    -0.097 C 
ATOM     29  N   UNL     1      -5.799  -2.893   8.587  0.00  0.00    +0.377 N 
ATOM     30  H   UNL     1      -6.035  -1.943   8.278  0.00  0.00    -0.083 HD
ENDBRANCH  26  29
ENDBRANCH  25  26
ENDBRANCH   4  25
BRANCH   1  31
ATOM     31  C   UNL     1      -2.193  -4.762   3.549  0.00  0.00    +0.040 C 
BRANCH  31  32
ATOM     32  C   UNL     1      -3.149  -5.689   4.303  0.00  0.00    +0.038 C 
BRANCH  32  33
ATOM     33  C   UNL     1      -3.655  -6.756   3.368  0.00  0.00    -0.047 A 
ATOM     34  C   UNL     1      -4.811  -6.546   2.639  0.00  0.00    +0.003 A 
ATOM     35  C   UNL     1      -5.273  -7.524   1.778  0.00  0.00    +0.000 A 
ATOM     36  C   UNL     1      -4.584  -8.715   1.652  0.00  0.00    +0.000 A 
ATOM     37  C   UNL     1      -3.431  -8.928   2.384  0.00  0.00    +0.000 A 
ATOM     38  C   UNL     1      -2.966  -7.949   3.242  0.00  0.00    +0.003 A 
ENDBRANCH  32  33
ENDBRANCH  31  32
ENDBRANCH   1  31
TORSDOF 8
