REMARK  Name = ZINC09272461
REMARK  7 active torsions:
REMARK  status: ('A' for Active; 'I' for Inactive)
REMARK    1  A    between atoms: C_1  and  C_2
REMARK    2  A    between atoms: C_9  and  N_31
REMARK    3  A    between atoms: C_10  and  C_29
REMARK    4  A    between atoms: C_11  and  C_13
REMARK    5  A    between atoms: C_17  and  O_19
REMARK    6  A    between atoms: O_19  and  C_20
REMARK    7  A    between atoms: C_20  and  C_21
REMARK                            x       y       z     vdW  Elec       q    Type
REMARK                         _______ _______ _______ _____ _____    ______ ____
ROOT
ATOM      1  C   UNL     1      -0.018   1.503   0.010  0.00  0.00    +0.065 C 
ATOM      2  C   UNL     1       0.002  -0.004   0.002  0.00  0.00    +0.041 A 
ATOM      3  C   UNL     1       0.008  -0.790  -1.085  0.00  0.00    +0.049 A 
ATOM      4  C   UNL     1       0.030  -2.135  -0.654  0.00  0.00    +0.245 A 
ATOM      5  N   UNL     1       0.036  -2.141   0.647  0.00  0.00    -0.135 NA
ATOM      6  N   UNL     1       0.024  -0.809   1.090  0.00  0.00    -0.278 N 
ATOM      7  H   UNL     1       0.028  -0.516   2.015  0.00  0.00    +0.189 HD
ATOM      8  O   UNL     1       0.045  -3.173  -1.533  0.00  0.00    -0.421 OA
ATOM      9  C   UNL     1       0.309  -2.890  -2.824  0.00  0.00    +0.201 C 
ATOM     10  C   UNL     1       0.305  -1.648  -3.351  0.00  0.00    +0.098 C 
ATOM     11  C   UNL     1      -0.006  -0.413  -2.545  0.00  0.00    +0.101 C 
ENDROOT
BRANCH  11  12
ATOM     12  C   UNL     1      -1.368   0.111  -2.922  0.00  0.00    -0.031 A 
ATOM     13  C   UNL     1      -2.483  -0.693  -2.772  0.00  0.00    +0.005 A 
ATOM     14  C   UNL     1      -3.734  -0.215  -3.117  0.00  0.00    +0.004 A 
ATOM     15  C   UNL     1      -3.872   1.067  -3.613  0.00  0.00    +0.045 A 
ATOM     16  C   UNL     1      -2.755   1.876  -3.764  0.00  0.00    +0.121 A 
ATOM     17  C   UNL     1      -1.501   1.396  -3.411  0.00  0.00    +0.050 A 
BRANCH  16  18
ATOM     18  O   UNL     1      -2.888   3.137  -4.251  0.00  0.00    -0.487 OA
BRANCH  18  19
ATOM     19  C   UNL     1      -4.209   3.567  -4.588  0.00  0.00    +0.266 C 
BRANCH  19  20
ATOM     20  C   UNL     1      -4.160   4.980  -5.107  0.00  0.00    +0.008 A 
ATOM     21  C   UNL     1      -2.950   5.642  -5.197  0.00  0.00    +0.010 A 
ATOM     22  C   UNL     1      -2.905   6.939  -5.673  0.00  0.00    +0.020 A 
ATOM     23  C   UNL     1      -4.071   7.575  -6.061  0.00  0.00    +0.042 A 
ATOM     24  C   UNL     1      -5.282   6.913  -5.971  0.00  0.00    +0.040 A 
ATOM     25  C   UNL     1      -5.326   5.613  -5.499  0.00  0.00    +0.049 A 
ATOM     26 CL   UNL     1      -6.845   4.779  -5.391  0.00  0.00    -0.083 Cl
ATOM     27 CL   UNL     1      -4.015   9.204  -6.658  0.00  0.00    -0.083 Cl
ENDBRANCH  19  20
ENDBRANCH  18  19
ENDBRANCH  16  18
ENDBRANCH  11  12
BRANCH   9  28
ATOM     28  N   UNL     1       0.604  -3.938  -3.660  0.00  0.00    -0.328 N 
ATOM     29  H   UNL     1       0.617  -4.845  -3.315  0.00  0.00    +0.145 HD
ATOM     30  H   UNL     1       0.800  -3.772  -4.595  0.00  0.00    +0.145 HD
ENDBRANCH   9  28
BRANCH  10  31
ATOM     31  C   UNL     1       0.611  -1.496  -4.742  0.00  0.00    +0.101 C 
ATOM     32  N   UNL     1       0.853  -1.376  -5.846  0.00  0.00    -0.191 NA
ENDBRANCH  10  31
TORSDOF 6
