REMARK  Name = ZINC23236989
REMARK  5 active torsions:
REMARK  status: ('A' for Active; 'I' for Inactive)
REMARK    1  A    between atoms: C_1  and  S_2
REMARK    2  A    between atoms: S_2  and  C_5
REMARK    3  A    between atoms: C_8  and  N_11
REMARK    4  A    between atoms: C_14  and  C_17
REMARK    5  A    between atoms: C_17  and  C_18
REMARK                            x       y       z     vdW  Elec       q    Type
REMARK                         _______ _______ _______ _____ _____    ______ ____
ROOT
ATOM      1  N   UNL     1      -4.011   1.616  -2.776  0.00  0.00    -0.294 N 
ATOM      2  C   UNL     1      -2.667   1.751  -2.460  0.00  0.00    +0.163 A 
ATOM      3  N   UNL     1      -1.976   1.153  -1.508  0.00  0.00    -0.229 NA
ATOM      4  C   UNL     1      -0.690   1.398  -1.342  0.00  0.00    +0.059 A 
ATOM      5  C   UNL     1      -0.089   2.286  -2.170  0.00  0.00    +0.072 A 
ATOM      6  S   UNL     1      -1.463   2.750  -3.214  0.00  0.00    -0.060 S 
ATOM      7  H   UNL     1      -4.669   1.013  -2.134  0.00  0.00    +0.154 HD
ENDROOT
BRANCH   1  11
ATOM      8  C   UNL     1      -5.552   3.495  -6.158  0.00  0.00    +0.088 A 
ATOM      9  C   UNL     1      -4.253   3.020  -6.165  0.00  0.00    +0.029 A 
ATOM     10  C   UNL     1      -3.739   2.396  -5.045  0.00  0.00    +0.025 A 
ATOM     11  C   UNL     1      -4.528   2.247  -3.911  0.00  0.00    +0.033 A 
ATOM     12  C   UNL     1      -5.834   2.721  -3.910  0.00  0.00    +0.025 A 
ATOM     13  C   UNL     1      -6.340   3.348  -5.031  0.00  0.00    +0.029 A 
BRANCH   8  15
ATOM     14  C   UNL     1      -6.945   2.956  -8.568  0.00  0.00    +0.200 C 
ATOM     15  S   UNL     1      -6.203   4.291  -7.589  0.00  0.00    -0.006 S 
ATOM     16  O   UNL     1      -7.216   5.155  -7.093  0.00  0.00    -0.170 OA
ATOM     17  O   UNL     1      -5.067   4.817  -8.261  0.00  0.00    -0.170 OA
ENDBRANCH   8  15
ENDBRANCH   1  11
BRANCH   4  18
ATOM     18  C   UNL     1       0.091   0.711  -0.252  0.00  0.00    +0.152 C 
BRANCH  18  19
ATOM     19  C   UNL     1      -0.582   0.950   1.075  0.00  0.00    +0.224 C 
ATOM     20  O   UNL     1      -1.595   1.613   1.131  0.00  0.00    -0.275 OA
ATOM     21  N   UNL     1      -0.057   0.427   2.201  0.00  0.00    -0.264 N 
ATOM     22  C   UNL     1      -0.675   0.647   3.421  0.00  0.00    +0.165 A 
ATOM     23  N   UNL     1      -0.320   0.226   4.612  0.00  0.00    -0.225 NA
ATOM     24  C   UNL     1      -1.024   0.520   5.727  0.00  0.00    +0.080 A 
ATOM     25  C   UNL     1      -0.752   0.132   7.059  0.00  0.00    +0.030 A 
ATOM     26  C   UNL     1      -1.575   0.519   8.084  0.00  0.00    +0.022 A 
ATOM     27  C   UNL     1      -2.700   1.301   7.854  0.00  0.00    +0.042 A 
ATOM     28  C   UNL     1      -2.996   1.698   6.563  0.00  0.00    +0.037 A 
ATOM     29  C   UNL     1      -2.176   1.315   5.531  0.00  0.00    +0.042 A 
ATOM     30  S   UNL     1      -2.156   1.583   3.775  0.00  0.00    -0.052 S 
ATOM     31 CL   UNL     1      -3.723   1.775   9.175  0.00  0.00    -0.084 Cl
ATOM     32  H   UNL     1       0.863  -0.175   2.151  0.00  0.00    +0.157 HD
ENDBRANCH  18  19
ENDBRANCH   4  18
TORSDOF 4
