REMARK  Name = ZINC12378749
REMARK  6 active torsions:
REMARK  status: ('A' for Active; 'I' for Inactive)
REMARK    1  A    between atoms: C_1  and  C_2
REMARK    2  A    between atoms: C_2  and  C_5
REMARK    3  A    between atoms: N_3  and  N_4
REMARK    4  A    between atoms: C_11  and  C_29
REMARK    5  A    between atoms: N_23  and  N_24
REMARK    6  A    between atoms: C_27  and  C_28
REMARK                            x       y       z     vdW  Elec       q    Type
REMARK                         _______ _______ _______ _____ _____    ______ ____
ROOT
ATOM      1  C   UNL     1      -0.149   1.573   2.550  0.00  0.00    +0.041 C 
ATOM      2  C   UNL     1       0.250   0.316   3.347  0.00  0.00    +0.010 C 
ATOM      3  C   UNL     1      -0.245   0.538   4.796  0.00  0.00    +0.005 C 
ATOM      4  C   UNL     1      -1.374   1.574   4.635  0.00  0.00    -0.001 C 
ATOM      5  C   UNL     1      -0.832   2.532   3.562  0.00  0.00    -0.021 C 
ATOM      6  C   UNL     1       0.275   3.417   4.141  0.00  0.00    +0.008 C 
ATOM      7  C   UNL     1      -0.221   4.149   5.385  0.00  0.00    +0.005 C 
ATOM      8  C   UNL     1      -0.580   3.114   6.458  0.00  0.00    +0.002 C 
ATOM      9  C   UNL     1      -1.727   2.251   5.939  0.00  0.00    -0.003 C 
ATOM     10  C   UNL     1      -2.090   1.196   6.988  0.00  0.00    +0.008 C 
ATOM     11  C   UNL     1      -2.621   1.892   8.243  0.00  0.00    +0.031 C 
ATOM     12  C   UNL     1      -1.582   2.892   8.718  0.00  0.00    -0.062 C 
ATOM     13  C   UNL     1      -1.241   2.869  10.002  0.00  0.00    +0.024 C 
ATOM     14  C   UNL     1      -0.265   3.841  10.522  0.00  0.00    +0.059 C 
ATOM     15  N   UNL     1       0.391   3.629  11.623  0.00  0.00    -0.194 NA
ATOM     16  C   UNL     1      -0.065   5.101   9.704  0.00  0.00    +0.058 C 
ATOM     17  C   UNL     1       0.152   4.674   8.253  0.00  0.00    +0.017 C 
ATOM     18  C   UNL     1      -1.016   3.860   7.726  0.00  0.00    -0.007 C 
ATOM     19  C   UNL     1      -2.122   4.842   7.338  0.00  0.00    +0.016 C 
ATOM     20  C   UNL     1      -1.940   3.361   2.908  0.00  0.00    +0.012 C 
ENDROOT
BRANCH   1  22
ATOM     21  C   UNL     1      -0.638   0.402   0.270  0.00  0.00    +0.062 C 
ATOM     22  C   UNL     1      -1.113   1.205   1.452  0.00  0.00    +0.037 C 
ATOM     23  N   UNL     1      -2.336   1.576   1.524  0.00  0.00    -0.199 NA
BRANCH  23  24
ATOM     24  N   UNL     1      -3.233   1.234   0.504  0.00  0.00    -0.283 N 
ATOM     25  H   UNL     1      -2.927   0.717  -0.258  0.00  0.00    +0.164 HD
ATOM     26  H   UNL     1      -4.160   1.515   0.558  0.00  0.00    +0.164 HD
ENDBRANCH  23  24
ENDBRANCH   1  22
BRANCH  15  27
ATOM     27  N   UNL     1       0.178   2.450  12.350  0.00  0.00    -0.282 N 
ATOM     28  H   UNL     1      -0.459   1.792  12.031  0.00  0.00    +0.164 HD
ATOM     29  H   UNL     1       0.668   2.292  13.172  0.00  0.00    +0.164 HD
ENDBRANCH  15  27
TORSDOF 3
