REMARK  Name = ZINC41001328
REMARK  15 active torsions:
REMARK  status: ('A' for Active; 'I' for Inactive)
REMARK    1  A    between atoms: C_1  and  C_2
REMARK    2  A    between atoms: C_2  and  C_3
REMARK    3  A    between atoms: C_3  and  C_4
REMARK    4  A    between atoms: C_4  and  S_5
REMARK    5  A    between atoms: S_5  and  C_6
REMARK    6  A    between atoms: C_11  and  C_21
REMARK    7  A    between atoms: C_13  and  C_17
REMARK    8  A    between atoms: C_14  and  C_16
REMARK    9  A    between atoms: C_17  and  O_19
REMARK   10  A    between atoms: O_19  and  C_20
REMARK   11  A    between atoms: C_23  and  O_30
REMARK   12  A    between atoms: C_24  and  O_28
REMARK   13  A    between atoms: O_28  and  C_29
REMARK   14  A    between atoms: O_30  and  C_31
REMARK   15  A    between atoms: C_31  and  C_32
REMARK                            x       y       z     vdW  Elec       q    Type
REMARK                         _______ _______ _______ _____ _____    ______ ____
ROOT
ATOM      1  C   UNL     1      -2.708  -4.451   0.432  0.00  0.00    +0.210 A 
ATOM      2  N   UNL     1      -1.585  -5.178   0.350  0.00  0.00    -0.187 NA
ATOM      3  C   UNL     1      -1.891  -6.434   0.167  0.00  0.00    +0.219 A 
ATOM      4  N   UNL     1      -3.242  -6.537   0.132  0.00  0.00    -0.220 N 
ATOM      5  N   UNL     1      -3.746  -5.249   0.306  0.00  0.00    -0.141 NA
ATOM      6  C   UNL     1      -3.952  -7.801  -0.049  0.00  0.00    +0.179 C 
ATOM      7  C   UNL     1      -2.977  -8.866  -0.478  0.00  0.00    +0.082 C 
ATOM      8  C   UNL     1      -1.646  -8.704  -0.425  0.00  0.00    +0.020 C 
ATOM      9  N   UNL     1      -1.068  -7.542   0.019  0.00  0.00    -0.287 N 
ATOM     10  C   UNL     1      -0.757  -9.838  -0.867  0.00  0.00    +0.061 C 
ATOM     11  H   UNL     1      -0.120  -7.496   0.222  0.00  0.00    +0.155 HD
ENDROOT
BRANCH   6  12
ATOM     12  C   UNL     1      -4.597  -8.206   1.251  0.00  0.00    -0.014 A 
ATOM     13  C   UNL     1      -5.968  -8.370   1.319  0.00  0.00    +0.055 A 
ATOM     14  C   UNL     1      -6.564  -8.741   2.513  0.00  0.00    +0.163 A 
ATOM     15  C   UNL     1      -5.779  -8.950   3.643  0.00  0.00    +0.175 A 
ATOM     16  C   UNL     1      -4.405  -8.784   3.569  0.00  0.00    +0.063 A 
ATOM     17  C   UNL     1      -3.817  -8.417   2.372  0.00  0.00    +0.025 A 
ATOM     18 BR   UNL     1      -3.334  -9.065   5.102  0.00  0.00    -0.046 Br
BRANCH  15  19
ATOM     19  O   UNL     1      -6.359  -9.314   4.818  0.00  0.00    -0.490 OA
ATOM     20  C   UNL     1      -6.506 -10.714   5.063  0.00  0.00    +0.277 C 
ENDBRANCH  15  19
BRANCH  14  21
ATOM     21  O   UNL     1      -7.913  -8.902   2.581  0.00  0.00    -0.489 OA
BRANCH  21  22
ATOM     22  C   UNL     1      -8.655  -8.671   1.382  0.00  0.00    +0.226 C 
ATOM     23  C   UNL     1     -10.143  -8.899   1.652  0.00  0.00    +0.048 C 
ENDBRANCH  21  22
ENDBRANCH  14  21
ENDBRANCH   6  12
BRANCH   7  24
ATOM     24  C   UNL     1      -3.488 -10.092  -0.959  0.00  0.00    +0.339 C 
ATOM     25  O   UNL     1      -3.871 -10.181  -2.111  0.00  0.00    -0.245 OA
BRANCH  24  26
ATOM     26  O   UNL     1      -3.552 -11.164  -0.142  0.00  0.00    -0.465 OA
ATOM     27  C   UNL     1      -4.080 -12.371  -0.695  0.00  0.00    +0.280 C 
ENDBRANCH  24  26
ENDBRANCH   7  24
BRANCH   1  28
ATOM     28  S   UNL     1      -2.783  -2.707   0.676  0.00  0.00    -0.084 S 
BRANCH  28  29
ATOM     29  C   UNL     1      -1.043  -2.203   0.770  0.00  0.00    +0.077 C 
BRANCH  29  30
ATOM     30  C   UNL     1      -0.961  -0.690   0.984  0.00  0.00    +0.011 C 
BRANCH  30  32
ATOM     31  C   UNL     1       0.588   1.248   1.276  0.00  0.00    +0.004 C 
ATOM     32  C   UNL     1       0.506  -0.264   1.063  0.00  0.00    -0.003 C 
ENDBRANCH  30  32
ENDBRANCH  29  30
ENDBRANCH  28  29
ENDBRANCH   1  28
TORSDOF 10
