REMARK  Name = ZINC36500526
REMARK  13 active torsions:
REMARK  status: ('A' for Active; 'I' for Inactive)
REMARK    1  A    between atoms: C_1  and  C_2
REMARK    2  A    between atoms: C_2  and  C_3
REMARK    3  A    between atoms: C_3  and  C_4
REMARK    4  A    between atoms: C_4  and  N_5
REMARK    5  A    between atoms: C_6  and  C_8
REMARK    6  A    between atoms: C_8  and  C_10
REMARK    7  A    between atoms: C_8  and  N_17
REMARK    8  A    between atoms: C_15  and  O_16
REMARK    9  A    between atoms: N_17  and  C_18
REMARK   10  A    between atoms: C_18  and  C_19
REMARK   11  A    between atoms: C_24  and  C_26
REMARK   12  A    between atoms: C_27  and  O_33
REMARK   13  A    between atoms: C_31  and  O_32
REMARK                            x       y       z     vdW  Elec       q    Type
REMARK                         _______ _______ _______ _____ _____    ______ ____
ROOT
ATOM      1  N   UNL     1       2.588  -5.899   3.830  0.00  0.00    -0.274 N 
ATOM      2  C   UNL     1       1.478  -6.661   3.765  0.00  0.00    +0.255 C 
ATOM      3  O   UNL     1       0.383  -6.155   3.921  0.00  0.00    -0.270 OA
ENDROOT
BRANCH   2   4
ATOM      4  C   UNL     1       1.592  -8.106   3.505  0.00  0.00    +0.119 A 
ATOM      5  C   UNL     1       1.714  -9.008   4.571  0.00  0.00    +0.133 A 
ATOM      6  C   UNL     1       1.819 -10.366   4.315  0.00  0.00    +0.046 A 
ATOM      7  C   UNL     1       1.804 -10.832   3.013  0.00  0.00    +0.007 A 
ATOM      8  C   UNL     1       1.685  -9.951   1.954  0.00  0.00    +0.046 A 
ATOM      9  C   UNL     1       1.572  -8.590   2.188  0.00  0.00    +0.133 A 
BRANCH   9  10
ATOM     10  O   UNL     1       1.449  -7.728   1.148  0.00  0.00    -0.506 OA
ATOM     11  H   UNL     1       2.292  -7.402   0.805  0.00  0.00    +0.292 HD
ENDBRANCH   9  10
BRANCH   5  12
ATOM     12  O   UNL     1       1.729  -8.554   5.849  0.00  0.00    -0.506 OA
ATOM     13  H   UNL     1       0.854  -8.497   6.257  0.00  0.00    +0.292 HD
ENDBRANCH   5  12
ENDBRANCH   2   4
BRANCH   1  14
ATOM     14  C   UNL     1       2.475  -4.462   4.089  0.00  0.00    +0.196 C 
BRANCH  14  15
ATOM     15  C   UNL     1       1.641  -4.237   5.324  0.00  0.00    +0.023 A 
ATOM     16  C   UNL     1       0.321  -3.848   5.205  0.00  0.00    +0.009 A 
ATOM     17  C   UNL     1      -0.445  -3.642   6.337  0.00  0.00    +0.001 A 
ATOM     18  C   UNL     1       0.108  -3.825   7.591  0.00  0.00    +0.004 A 
ATOM     19  C   UNL     1       1.427  -4.215   7.716  0.00  0.00    +0.046 A 
ATOM     20  C   UNL     1       2.196  -4.428   6.580  0.00  0.00    +0.122 A 
BRANCH  20  21
ATOM     21  O   UNL     1       3.493  -4.817   6.700  0.00  0.00    -0.506 OA
ATOM     22  H   UNL     1       4.112  -4.087   6.831  0.00  0.00    +0.292 HD
ENDBRANCH  20  21
ENDBRANCH  14  15
BRANCH  14  24
ATOM     23  N   UNL     1       1.869  -2.447   2.787  0.00  0.00    -0.313 N 
ATOM     24  C   UNL     1       1.820  -3.789   2.911  0.00  0.00    +0.238 C 
ATOM     25  O   UNL     1       1.247  -4.454   2.074  0.00  0.00    -0.273 OA
ATOM     26  H   UNL     1       2.263  -1.910   3.492  0.00  0.00    +0.149 HD
BRANCH  23  27
ATOM     27  C   UNL     1       1.329  -1.802   1.588  0.00  0.00    +0.104 C 
BRANCH  27  28
ATOM     28  C   UNL     1       1.510  -0.287   1.699  0.00  0.00    +0.018 C 
BRANCH  28  30
ATOM     29  C   UNL     1       1.126   1.903   0.558  0.00  0.00    +0.004 C 
ATOM     30  C   UNL     1       0.946   0.388   0.447  0.00  0.00    -0.002 C 
ENDBRANCH  28  30
ENDBRANCH  27  28
ENDBRANCH  23  27
ENDBRANCH  14  24
ENDBRANCH   1  14
BRANCH   1  31
ATOM     31  C   UNL     1       3.907  -6.508   3.641  0.00  0.00    +0.183 C 
BRANCH  31  32
ATOM     32  C   UNL     1       4.516  -6.813   4.985  0.00  0.00    +0.122 A 
ATOM     33  C   UNL     1       4.452  -7.992   5.629  0.00  0.00    +0.046 A 
ATOM     34  C   UNL     1       5.153  -7.834   6.846  0.00  0.00    +0.041 A 
ATOM     35  C   UNL     1       5.605  -6.567   6.874  0.00  0.00    +0.195 A 
ATOM     36  O   UNL     1       5.221  -5.955   5.741  0.00  0.00    -0.466 OA
ENDBRANCH  31  32
ENDBRANCH   1  31
TORSDOF 12
