REMARK  Name = ZINC01511930
REMARK  3 active torsions:
REMARK  status: ('A' for Active; 'I' for Inactive)
REMARK    1  A    between atoms: C_1  and  N_2
REMARK    2  A    between atoms: N_2  and  C_3
REMARK    3  A    between atoms: N_6  and  C_7
REMARK                            x       y       z     vdW  Elec       q    Type
REMARK                         _______ _______ _______ _____ _____    ______ ____
ROOT
ATOM      1  C   UNL     1       0.194  -0.500  -1.434  0.00  0.00    +0.037 C 
ATOM      2  C   UNL     1       0.002  -0.004   0.002  0.00  0.00    +0.029 C 
ATOM      3  C   UNL     1      -0.018   1.504   0.010  0.00  0.00    -0.009 C 
ATOM      4  C   UNL     1       1.329   2.155   0.001  0.00  0.00    +0.004 C 
ATOM      5  C   UNL     1       1.865   2.463  -1.361  0.00  0.00    +0.004 C 
ATOM      6  C   UNL     1       1.524   1.461  -2.428  0.00  0.00    -0.009 C 
ATOM      7  C   UNL     1       1.492   0.023  -2.006  0.00  0.00    +0.029 C 
ATOM      8  C   UNL     1       0.252   1.891  -3.156  0.00  0.00    +0.007 C 
ATOM      9  C   UNL     1      -0.973   1.476  -2.350  0.00  0.00    -0.008 C 
ATOM     10  C   UNL     1      -1.008   2.101  -0.967  0.00  0.00    +0.007 C 
ATOM     11  C   UNL     1      -1.012  -0.051  -2.262  0.00  0.00    +0.029 C 
ENDROOT
BRANCH   1  17
ATOM     12  C   UNL     1       2.296  -4.639   0.045  0.00  0.00    +0.133 C 
ATOM     13  N   UNL     1       1.255  -3.947  -0.719  0.00  0.00    -0.292 N 
ATOM     14  C   UNL     1       0.268  -4.720  -1.478  0.00  0.00    +0.133 C 
ATOM     15  C   UNL     1       1.206  -2.600  -0.725  0.00  0.00    +0.302 C 
ATOM     16  O   UNL     1       2.025  -1.959  -0.096  0.00  0.00    -0.253 OA
ATOM     17  N   UNL     1       0.248  -1.964  -1.428  0.00  0.00    -0.294 N 
ATOM     18  H   UNL     1      -0.493  -2.544  -1.998  0.00  0.00    +0.151 HD
ENDBRANCH   1  17
TORSDOF 1
