REMARK  Name = ZINC45696017
REMARK  8 active torsions:
REMARK  status: ('A' for Active; 'I' for Inactive)
REMARK    1  A    between atoms: C_4  and  S_7
REMARK    2  A    between atoms: S_7  and  C_8
REMARK    3  A    between atoms: C_8  and  C_9
REMARK    4  A    between atoms: C_9  and  N_10
REMARK    5  A    between atoms: N_13  and  C_14
REMARK    6  A    between atoms: C_19  and  S_20
REMARK    7  A    between atoms: S_20  and  C_21
REMARK    8  A    between atoms: C_21  and  C_22
REMARK                            x       y       z     vdW  Elec       q    Type
REMARK                         _______ _______ _______ _____ _____    ______ ____
ROOT
ATOM      1  N   UNL     1       4.343  -4.861  -0.050  0.00  0.00    -0.298 N 
ATOM      2  C   UNL     1       5.293  -5.816  -0.075  0.00  0.00    +0.304 C 
ATOM      3  O   UNL     1       6.468  -5.505  -0.089  0.00  0.00    -0.253 OA
ATOM      4  N   UNL     1       4.940  -7.117  -0.085  0.00  0.00    -0.268 N 
ATOM      5  H   UNL     1       3.405  -5.109  -0.039  0.00  0.00    +0.150 HD
ATOM      6  H   UNL     1       4.006  -7.367  -0.009  0.00  0.00    +0.156 HD
ENDROOT
BRANCH   4   7
ATOM      7  C   UNL     1       5.923  -8.109  -0.206  0.00  0.00    +0.048 A 
ATOM      8  C   UNL     1       7.170  -7.926   0.372  0.00  0.00    +0.024 A 
ATOM      9  C   UNL     1       8.139  -8.906   0.251  0.00  0.00    +0.002 A 
ATOM     10  C   UNL     1       7.869 -10.069  -0.446  0.00  0.00    +0.001 A 
ATOM     11  C   UNL     1       6.628 -10.260  -1.026  0.00  0.00    +0.016 A 
ATOM     12  C   UNL     1       5.648  -9.285  -0.904  0.00  0.00    +0.030 A 
BRANCH  12  13
ATOM     13  S   UNL     1       4.064  -9.529  -1.636  0.00  0.00    -0.114 S 
BRANCH  13  14
ATOM     14  C   UNL     1       4.186 -11.164  -2.412  0.00  0.00    +0.169 C 
BRANCH  14  15
ATOM     15  C   UNL     1       2.879 -11.499  -3.083  0.00  0.00    +0.221 C 
ATOM     16  O   UNL     1       1.956 -10.713  -3.042  0.00  0.00    -0.275 OA
ATOM     17  N   UNL     1       2.735 -12.673  -3.730  0.00  0.00    -0.329 N 
ATOM     18  H   UNL     1       3.473 -13.302  -3.763  0.00  0.00    +0.145 HD
ATOM     19  H   UNL     1       1.894 -12.890  -4.162  0.00  0.00    +0.145 HD
ENDBRANCH  14  15
ENDBRANCH  13  14
ENDBRANCH  12  13
ENDBRANCH   4   7
BRANCH   1  20
ATOM     20  C   UNL     1       4.726  -3.447  -0.039  0.00  0.00    +0.116 C 
BRANCH  20  21
ATOM     21  C   UNL     1       3.467  -2.577  -0.010  0.00  0.00    +0.093 C 
BRANCH  21  22
ATOM     22  S   UNL     1       3.942  -0.827   0.003  0.00  0.00    -0.124 S 
BRANCH  22  26
ATOM     23  C   UNL     1      -0.012   1.380   0.087  0.00  0.00    +0.000 A 
ATOM     24  C   UNL     1       1.174   2.091   0.079  0.00  0.00    +0.001 A 
ATOM     25  C   UNL     1       2.382   1.421   0.053  0.00  0.00    +0.015 A 
ATOM     26  C   UNL     1       2.404   0.032   0.036  0.00  0.00    +0.008 A 
ATOM     27  C   UNL     1       1.210  -0.679   0.046  0.00  0.00    +0.015 A 
ATOM     28  C   UNL     1       0.006  -0.003   0.071  0.00  0.00    +0.001 A 
ENDBRANCH  22  26
ENDBRANCH  21  22
ENDBRANCH  20  21
ENDBRANCH   1  20
TORSDOF 8
