REMARK  Name = ZINC55416893
REMARK  6 active torsions:
REMARK  status: ('A' for Active; 'I' for Inactive)
REMARK    1  A    between atoms: C_1  and  C_2
REMARK    2  A    between atoms: C_2  and  N_3
REMARK    3  A    between atoms: N_5  and  N_6
REMARK    4  A    between atoms: C_7  and  C_8
REMARK    5  A    between atoms: C_11  and  O_16
REMARK    6  A    between atoms: C_13  and  O_14
REMARK                            x       y       z     vdW  Elec       q    Type
REMARK                         _______ _______ _______ _____ _____    ______ ____
ROOT
ATOM      1  C   UNL     1       2.934  -3.136   4.688  0.00  0.00    +0.039 A 
ATOM      2  C   UNL     1       2.615  -1.779   4.599  0.00  0.00    +0.032 A 
ATOM      3  C   UNL     1       3.139  -0.887   5.510  0.00  0.00    +0.061 A 
ATOM      4  C   UNL     1       3.985  -1.334   6.519  0.00  0.00    +0.148 A 
ATOM      5  C   UNL     1       4.307  -2.680   6.615  0.00  0.00    +0.102 A 
ATOM      6  C   UNL     1       3.782  -3.586   5.709  0.00  0.00    +0.143 A 
ATOM      7 BR   UNL     1       5.459  -3.280   7.990  0.00  0.00    -0.043 Br
ATOM      8 BR   UNL     1       2.706   0.949   5.388  0.00  0.00    -0.046 Br
ENDROOT
BRANCH   1  10
ATOM      9  N   UNL     1       2.026  -3.686   2.533  0.00  0.00    -0.180 NA
ATOM     10  C   UNL     1       2.375  -4.092   3.716  0.00  0.00    +0.144 C 
BRANCH   9  13
ATOM     11  N   UNL     1       2.300  -0.692   0.465  0.00  0.00    -0.324 N 
ATOM     12  C   UNL     1       1.937  -1.938   0.895  0.00  0.00    +0.159 C 
ATOM     13  N   UNL     1       2.398  -2.410   2.093  0.00  0.00    -0.258 N 
ATOM     14  S   UNL     1       0.936  -2.879  -0.037  0.00  0.00    -0.015 SA
ATOM     15  H   UNL     1       2.885  -0.142   1.010  0.00  0.00    +0.148 HD
ATOM     16  H   UNL     1       2.984  -1.860   2.637  0.00  0.00    +0.191 HD
BRANCH  11  18
ATOM     17  C   UNL     1       2.357   1.220  -1.059  0.00  0.00    +0.024 C 
ATOM     18  C   UNL     1       1.806  -0.186  -0.818  0.00  0.00    +0.100 C 
ENDBRANCH  11  18
ENDBRANCH   9  13
ENDBRANCH   1  10
BRANCH   6  19
ATOM     19  O   UNL     1       4.092  -4.905   5.806  0.00  0.00    -0.505 OA
ATOM     20  H   UNL     1       4.835  -5.176   5.249  0.00  0.00    +0.292 HD
ENDBRANCH   6  19
BRANCH   4  21
ATOM     21  O   UNL     1       4.497  -0.450   7.414  0.00  0.00    -0.504 OA
ATOM     22  H   UNL     1       3.949  -0.323   8.200  0.00  0.00    +0.292 HD
ENDBRANCH   4  21
TORSDOF 5
