REMARK  Name = ZINC09118582
REMARK  10 active torsions:
REMARK  status: ('A' for Active; 'I' for Inactive)
REMARK    1  A    between atoms: C_1  and  C_2
REMARK    2  A    between atoms: C_2  and  C_3
REMARK    3  A    between atoms: C_2  and  N_4
REMARK    4  A    between atoms: N_4  and  S_5
REMARK    5  A    between atoms: S_5  and  C_8
REMARK    6  A    between atoms: C_11  and  N_17
REMARK    7  A    between atoms: C_12  and  N_14
REMARK    8  A    between atoms: C_22  and  C_24
REMARK    9  A    between atoms: C_22  and  C_25
REMARK   10  A    between atoms: C_22  and  N_60
REMARK                            x       y       z     vdW  Elec       q    Type
REMARK                         _______ _______ _______ _____ _____    ______ ____
ROOT
ATOM      1  N   UNL     1      -1.710   4.846  -4.987  0.00  0.00    -0.332 N 
ATOM      2  C   UNL     1      -0.413   5.082  -5.637  0.00  0.00    +0.086 C 
ATOM      3  C   UNL     1      -0.640   5.744  -6.998  0.00  0.00    -0.059 C 
ATOM      4  C   UNL     1      -2.666   6.771  -6.161  0.00  0.00    -0.059 C 
ATOM      5  C   UNL     1      -2.439   6.108  -4.800  0.00  0.00    +0.086 C 
ATOM      6  N   UNL     1      -1.353   7.022  -6.793  0.00  0.00    +0.387 N 
ATOM      7  H   UNL     1      -0.794   7.621  -6.174  0.00  0.00    -0.081 HD
ENDROOT
BRANCH   1  11
ATOM      8  C   UNL     1      -1.226   2.851  -1.365  0.00  0.00    +0.108 A 
ATOM      9  C   UNL     1      -0.704   4.121  -1.528  0.00  0.00    +0.030 A 
ATOM     10  C   UNL     1      -0.858   4.783  -2.730  0.00  0.00    +0.027 A 
ATOM     11  C   UNL     1      -1.548   4.176  -3.772  0.00  0.00    +0.060 A 
ATOM     12  C   UNL     1      -2.075   2.903  -3.603  0.00  0.00    +0.149 A 
ATOM     13  C   UNL     1      -1.913   2.244  -2.401  0.00  0.00    +0.063 A 
BRANCH   8  14
ATOM     14  S   UNL     1      -1.022   2.006   0.168  0.00  0.00    +0.059 S 
ATOM     15  O   UNL     1      -2.076   1.058   0.253  0.00  0.00    -0.153 OA
ATOM     16  O   UNL     1      -0.815   3.005   1.157  0.00  0.00    -0.153 OA
BRANCH  14  17
ATOM     17  N   UNL     1       0.386   1.141   0.067  0.00  0.00    -0.187 NA
ATOM     18  H   UNL     1       0.363   0.172   0.090  0.00  0.00    +0.148 HD
BRANCH  17  20
ATOM     19  C   UNL     1       2.303   2.005   1.316  0.00  0.00    +0.025 C 
ATOM     20  C   UNL     1       1.667   1.840  -0.065  0.00  0.00    +0.070 C 
ATOM     21  C   UNL     1       2.602   1.026  -0.963  0.00  0.00    +0.025 C 
ENDBRANCH  17  20
ENDBRANCH  14  17
ENDBRANCH   8  14
BRANCH  12  22
ATOM     22  N   UNL     1      -2.811   2.253  -4.711  0.00  0.00    +0.058 N 
ATOM     23  O   UNL     1      -3.273   1.136  -4.562  0.00  0.00    -0.126 OA
ATOM     24  O   UNL     1      -2.954   2.834  -5.772  0.00  0.00    -0.126 OA
ENDBRANCH  12  22
ENDBRANCH   1  11
BRANCH   6  25
ATOM     25  C   UNL     1      -1.540   7.710  -8.088  0.00  0.00    -0.015 C 
ATOM     26  C   UNL     1      -0.175   7.898  -8.754  0.00  0.00    -0.006 C 
BRANCH  25  27
ATOM     27  C   UNL     1      -2.167   9.058  -7.839  0.00  0.00    +0.066 A 
ATOM     28  N   UNL     1      -1.847   9.944  -6.938  0.00  0.00    -0.246 NA
ATOM     29  C   UNL     1      -2.490  11.124  -6.822  0.00  0.00    +0.078 A 
ATOM     30  C   UNL     1      -2.261  12.178  -5.909  0.00  0.00    +0.029 A 
ATOM     31  C   UNL     1      -3.025  13.303  -5.941  0.00  0.00    +0.002 A 
ATOM     32  C   UNL     1      -4.051  13.461  -6.862  0.00  0.00    +0.001 A 
ATOM     33  C   UNL     1      -4.307  12.453  -7.772  0.00  0.00    +0.017 A 
ATOM     34  C   UNL     1      -3.542  11.312  -7.748  0.00  0.00    +0.039 A 
ATOM     35  S   UNL     1      -3.492   9.802  -8.679  0.00  0.00    -0.074 S 
ENDBRANCH  25  27
ENDBRANCH   6  25
TORSDOF 7
