REMARK  Name = ZINC59105069
REMARK  12 active torsions:
REMARK  status: ('A' for Active; 'I' for Inactive)
REMARK    1  A    between atoms: C_1  and  C_2
REMARK    2  A    between atoms: C_4  and  C_19
REMARK    3  A    between atoms: C_5  and  C_18
REMARK    4  A    between atoms: N_6  and  C_7
REMARK    5  A    between atoms: C_9  and  C_14
REMARK    6  A    between atoms: C_14  and  O_16
REMARK    7  A    between atoms: O_16  and  C_17
REMARK    8  A    between atoms: C_20  and  C_21
REMARK    9  A    between atoms: C_20  and  C_23
REMARK   10  A    between atoms: N_25  and  C_26
REMARK   11  A    between atoms: C_26  and  C_27
REMARK   12  A    between atoms: C_27  and  C_28
REMARK                            x       y       z     vdW  Elec       q    Type
REMARK                         _______ _______ _______ _____ _____    ______ ____
ROOT
ATOM      1  C   UNL     1       0.241  -3.291  -1.568  0.00  0.00    +0.033 C 
ATOM      2  C   UNL     1      -0.648  -3.368  -2.622  0.00  0.00    +0.114 C 
ENDROOT
BRANCH   1   6
ATOM      3  C   UNL     1       2.106   1.404  -1.556  0.00  0.00    +0.064 C 
ATOM      4  C   UNL     1       1.549   0.067  -1.139  0.00  0.00    +0.022 A 
ATOM      5  C   UNL     1       1.205  -0.927  -1.975  0.00  0.00    +0.031 A 
ATOM      6  C   UNL     1       0.716  -2.028  -1.132  0.00  0.00    -0.003 A 
ATOM      7  C   UNL     1       0.815  -1.578   0.174  0.00  0.00    +0.028 A 
ATOM      8  N   UNL     1       1.319  -0.329   0.150  0.00  0.00    -0.316 N 
ATOM      9  C   UNL     1       0.432  -2.354   1.409  0.00  0.00    +0.064 C 
BRANCH   8  10
ATOM     10  C   UNL     1       1.568   0.456   1.284  0.00  0.00    +0.066 A 
ATOM     11  C   UNL     1       0.577   1.283   1.786  0.00  0.00    +0.042 A 
ATOM     12  C   UNL     1       0.830   2.063   2.916  0.00  0.00    +0.061 A 
ATOM     13  C   UNL     1       2.081   2.004   3.534  0.00  0.00    +0.016 A 
ATOM     14  C   UNL     1       3.062   1.177   3.027  0.00  0.00    +0.023 A 
ATOM     15  C   UNL     1       2.809   0.401   1.909  0.00  0.00    +0.065 A 
ATOM     16 CL   UNL     1       4.048  -0.642   1.282  0.00  0.00    -0.081 Cl
BRANCH  12  17
ATOM     17  C   UNL     1      -0.222   2.947   3.456  0.00  0.00    +0.339 C 
ATOM     18  O   UNL     1      -1.310   2.997   2.917  0.00  0.00    -0.245 OA
BRANCH  17  19
ATOM     19  O   UNL     1       0.024   3.698   4.547  0.00  0.00    -0.464 OA
ATOM     20  C   UNL     1      -1.039   4.531   5.015  0.00  0.00    +0.280 C 
ENDBRANCH  17  19
ENDBRANCH  12  17
ENDBRANCH   8  10
ENDBRANCH   1   6
BRANCH   2  21
ATOM     21  C   UNL     1      -1.306  -2.152  -3.119  0.00  0.00    +0.254 C 
ATOM     22  O   UNL     1      -1.165  -1.099  -2.526  0.00  0.00    -0.269 OA
ATOM     23  N   UNL     1      -2.063  -2.203  -4.232  0.00  0.00    -0.310 N 
ATOM     24  H   UNL     1      -2.175  -3.042  -4.705  0.00  0.00    +0.149 HD
BRANCH  23  25
ATOM     25  C   UNL     1      -2.719  -0.990  -4.729  0.00  0.00    +0.109 C 
BRANCH  25  26
ATOM     26  C   UNL     1      -3.511  -1.320  -5.995  0.00  0.00    +0.056 C 
BRANCH  26  27
ATOM     27  C   UNL     1      -4.185  -0.072  -6.505  0.00  0.00    -0.021 A 
ATOM     28  C   UNL     1      -5.441   0.321  -6.244  0.00  0.00    +0.087 A 
ATOM     29  N   UNL     1      -5.703   1.503  -6.880  0.00  0.00    -0.360 N 
ATOM     30  H   UNL     1      -6.545   1.983  -6.841  0.00  0.00    +0.165 HD
ATOM     31  C   UNL     1      -4.593   1.911  -7.585  0.00  0.00    +0.047 A 
ATOM     32  C   UNL     1      -3.591   0.945  -7.376  0.00  0.00    +0.003 A 
ATOM     33  C   UNL     1      -2.338   1.101  -7.972  0.00  0.00    +0.010 A 
ATOM     34  C   UNL     1      -2.090   2.194  -8.753  0.00  0.00    +0.001 A 
ATOM     35  C   UNL     1      -3.073   3.152  -8.959  0.00  0.00    +0.002 A 
ATOM     36  C   UNL     1      -4.319   3.013  -8.388  0.00  0.00    +0.026 A 
ENDBRANCH  26  27
ENDBRANCH  25  26
ENDBRANCH  23  25
ENDBRANCH   2  21
BRANCH   2  37
ATOM     37  C   UNL     1      -0.930  -4.634  -3.230  0.00  0.00    +0.104 C 
ATOM     38  N   UNL     1      -1.153  -5.638  -3.712  0.00  0.00    -0.191 NA
ENDBRANCH   2  37
TORSDOF 9
