REMARK  Name = ZINC13040771
REMARK  6 active torsions:
REMARK  status: ('A' for Active; 'I' for Inactive)
REMARK    1  A    between atoms: C_3  and  N_18
REMARK    2  A    between atoms: C_5  and  S_7
REMARK    3  A    between atoms: S_7  and  N_10
REMARK    4  A    between atoms: C_19  and  C_21
REMARK    5  A    between atoms: C_21  and  N_22
REMARK    6  A    between atoms: C_26  and  C_28
REMARK                            x       y       z     vdW  Elec       q    Type
REMARK                         _______ _______ _______ _____ _____    ______ ____
ROOT
ATOM      1  C   UNL     1      -0.013   1.375  -0.179  0.00  0.00    +0.004 A 
ATOM      2  C   UNL     1       1.175   2.081  -0.182  0.00  0.00    +0.023 A 
ATOM      3  C   UNL     1       2.380   1.411  -0.018  0.00  0.00    +0.035 A 
ATOM      4  C   UNL     1       2.387   0.032   0.148  0.00  0.00    +0.052 A 
ATOM      5  C   UNL     1       1.197  -0.668   0.150  0.00  0.00    +0.114 A 
ATOM      6  C   UNL     1      -0.002   0.002  -0.014  0.00  0.00    +0.029 A 
ENDROOT
BRANCH   3   7
ATOM      7  N   UNL     1       3.584   2.123  -0.021  0.00  0.00    -0.287 N 
ATOM      8  C   UNL     1       3.628   3.375   0.478  0.00  0.00    +0.201 C 
ATOM      9  O   UNL     1       2.649   3.848   1.016  0.00  0.00    -0.278 OA
ATOM     10  H   UNL     1       4.387   1.717  -0.382  0.00  0.00    +0.155 HD
BRANCH   8  11
ATOM     11  C   UNL     1       4.893   4.186   0.368  0.00  0.00    +0.020 C 
BRANCH  11  12
ATOM     12  N   UNL     1       4.685   5.503   0.983  0.00  0.00    +0.390 N 
ATOM     13  C   UNL     1       4.472   5.346   2.437  0.00  0.00    -0.077 C 
ATOM     14  C   UNL     1       5.867   5.576   3.069  0.00  0.00    -0.020 C 
ATOM     15  C   UNL     1       6.439   6.699   2.165  0.00  0.00    -0.012 C 
ATOM     16  C   UNL     1       5.879   6.343   0.772  0.00  0.00    -0.030 C 
ATOM     17  H   UNL     1       3.880   5.949   0.569  0.00  0.00    -0.080 HD
BRANCH  16  18
ATOM     18  C   UNL     1       5.496   7.602   0.036  0.00  0.00    -0.024 A 
ATOM     19  C   UNL     1       6.160   8.246  -0.955  0.00  0.00    +0.009 A 
ATOM     20  C   UNL     1       5.613   9.399  -1.488  0.00  0.00    +0.008 A 
ATOM     21  C   UNL     1       4.430   9.850  -1.004  0.00  0.00    +0.045 A 
ATOM     22  S   UNL     1       4.049   8.627   0.239  0.00  0.00    -0.103 S 
ENDBRANCH  16  18
ENDBRANCH  11  12
ENDBRANCH   8  11
ENDBRANCH   3   7
BRANCH   5  23
ATOM     23  S   UNL     1       1.206  -2.417   0.360  0.00  0.00    +0.100 S 
ATOM     24  O   UNL     1       0.003  -2.902  -0.221  0.00  0.00    -0.146 OA
ATOM     25  O   UNL     1       2.487  -2.870  -0.054  0.00  0.00    -0.146 OA
BRANCH  23  26
ATOM     26  N   UNL     1       1.100  -2.716   1.985  0.00  0.00    -0.118 NA
ATOM     27  C   UNL     1       1.087  -3.934   2.420  0.00  0.00    +0.117 C 
ATOM     28  C   UNL     1       1.174  -5.098   1.436  0.00  0.00    +0.073 C 
ATOM     29  C   UNL     1       2.527  -5.749   1.629  0.00  0.00    +0.008 C 
ATOM     30  C   UNL     1       2.531  -6.840   2.702  0.00  0.00    +0.002 C 
ATOM     31  C   UNL     1       1.748  -6.450   3.956  0.00  0.00    +0.019 C 
ATOM     32  C   UNL     1       1.999  -5.024   4.397  0.00  0.00    +0.102 C 
ATOM     33  N   UNL     1       1.002  -4.174   3.713  0.00  0.00    -0.331 N 
ATOM     34  H   UNL     1       0.275  -3.788   4.226  0.00  0.00    +0.147 HD
ENDBRANCH  23  26
ENDBRANCH   5  23
TORSDOF 6
