REMARK  Name = ZINC16676066
REMARK  6 active torsions:
REMARK  status: ('A' for Active; 'I' for Inactive)
REMARK    1  A    between atoms: N_8  and  S_9
REMARK    2  A    between atoms: S_9  and  C_12
REMARK    3  A    between atoms: C_21  and  O_29
REMARK    4  A    between atoms: N_25  and  C_26
REMARK    5  A    between atoms: C_26  and  C_27
REMARK    6  A    between atoms: C_27  and  O_28
REMARK                            x       y       z     vdW  Elec       q    Type
REMARK                         _______ _______ _______ _____ _____    ______ ____
ROOT
ATOM      1  C   UNL     1       0.007   1.344   0.236  0.00  0.00    +0.001 A 
ATOM      2  C   UNL     1       1.155   2.089   0.034  0.00  0.00    +0.000 A 
ATOM      3  C   UNL     1       2.364   1.466  -0.234  0.00  0.00    +0.010 A 
ATOM      4  C   UNL     1       2.426   0.096  -0.297  0.00  0.00    +0.026 A 
ATOM      5  C   UNL     1       1.263  -0.661  -0.077  0.00  0.00    +0.011 A 
ATOM      6  C   UNL     1       0.057  -0.038   0.180  0.00  0.00    +0.010 A 
ATOM      7  C   UNL     1       1.424  -2.144  -0.115  0.00  0.00    +0.095 C 
ATOM      8  N   UNL     1       0.516  -2.941  -0.620  0.00  0.00    -0.128 NA
ATOM      9  C   UNL     1       2.695  -2.642   0.466  0.00  0.00    +0.054 C 
ATOM     10  C   UNL     1       3.801  -1.888   0.233  0.00  0.00    +0.073 C 
ATOM     11  C   UNL     1       3.688  -0.652  -0.606  0.00  0.00    +0.235 C 
ATOM     12  O   UNL     1       4.831   0.153  -0.635  0.00  0.00    -0.339 OA
ATOM     13  C   UNL     1       5.849  -0.028   0.327  0.00  0.00    +0.183 C 
ATOM     14  C   UNL     1       6.206  -1.499   0.504  0.00  0.00    +0.133 C 
ATOM     15  N   UNL     1       4.995  -2.270   0.784  0.00  0.00    -0.324 N 
ENDROOT
BRANCH   8  16
ATOM     16  S   UNL     1      -0.793  -2.308  -1.412  0.00  0.00    +0.099 S 
ATOM     17  O   UNL     1      -1.829  -2.180  -0.448  0.00  0.00    -0.146 OA
ATOM     18  O   UNL     1      -0.316  -1.204  -2.169  0.00  0.00    -0.146 OA
BRANCH  16  19
ATOM     19  C   UNL     1      -1.334  -3.518  -2.573  0.00  0.00    +0.113 A 
ATOM     20  C   UNL     1      -0.815  -3.527  -3.854  0.00  0.00    +0.030 A 
ATOM     21  C   UNL     1      -1.238  -4.476  -4.765  0.00  0.00    +0.022 A 
ATOM     22  C   UNL     1      -2.183  -5.417  -4.395  0.00  0.00    +0.041 A 
ATOM     23  C   UNL     1      -2.703  -5.408  -3.113  0.00  0.00    +0.022 A 
ATOM     24  C   UNL     1      -2.274  -4.462  -2.201  0.00  0.00    +0.030 A 
ATOM     25 CL   UNL     1      -2.716  -6.609  -5.539  0.00  0.00    -0.084 Cl
ENDBRANCH  16  19
ENDBRANCH   8  16
BRANCH  11  26
ATOM     26  O   UNL     1       3.533  -1.117  -1.948  0.00  0.00    -0.356 OA
ATOM     27  H   UNL     1       3.411  -0.411  -2.598  0.00  0.00    +0.213 HD
ENDBRANCH  11  26
BRANCH  15  28
ATOM     28  C   UNL     1       5.060  -3.448   1.652  0.00  0.00    +0.133 C 
BRANCH  28  29
ATOM     29  C   UNL     1       5.346  -4.690   0.805  0.00  0.00    +0.174 C 
BRANCH  29  30
ATOM     30  O   UNL     1       6.646  -4.579   0.221  0.00  0.00    -0.393 OA
ATOM     31  H   UNL     1       6.895  -5.333  -0.331  0.00  0.00    +0.209 HD
ENDBRANCH  29  30
ENDBRANCH  28  29
ENDBRANCH  15  28
TORSDOF 6
