REMARK  Name = ZINC17296094
REMARK  8 active torsions:
REMARK  status: ('A' for Active; 'I' for Inactive)
REMARK    1  A    between atoms: C_1  and  C_2
REMARK    2  A    between atoms: C_5  and  C_8
REMARK    3  A    between atoms: N_14  and  C_15
REMARK    4  A    between atoms: C_15  and  C_16
REMARK    5  A    between atoms: C_16  and  C_17
REMARK    6  A    between atoms: N_19  and  C_20
REMARK    7  A    between atoms: C_20  and  C_21
REMARK    8  A    between atoms: C_21  and  C_22
REMARK                            x       y       z     vdW  Elec       q    Type
REMARK                         _______ _______ _______ _____ _____    ______ ____
ROOT
ATOM      1  C   UNL     1       4.095   3.320   1.910  0.00  0.00    +0.117 C 
ENDROOT
BRANCH   1   2
ATOM      2  C   UNL     1       4.365   4.782   2.157  0.00  0.00    +0.215 C 
ATOM      3  O   UNL     1       4.459   5.548   1.221  0.00  0.00    -0.276 OA
ATOM      4  N   UNL     1       4.501   5.238   3.418  0.00  0.00    -0.315 N 
ATOM      5  H   UNL     1       4.426   4.626   4.166  0.00  0.00    +0.149 HD
BRANCH   4   6
ATOM      6  C   UNL     1       4.763   6.660   3.658  0.00  0.00    +0.109 C 
BRANCH   6   7
ATOM      7  C   UNL     1       4.874   6.910   5.163  0.00  0.00    +0.056 C 
BRANCH   7   8
ATOM      8  C   UNL     1       5.144   8.372   5.410  0.00  0.00    -0.021 A 
ATOM      9  C   UNL     1       6.345   8.943   5.593  0.00  0.00    +0.087 A 
ATOM     10  N   UNL     1       6.198  10.290   5.786  0.00  0.00    -0.360 N 
ATOM     11  H   UNL     1       6.925  10.914   5.938  0.00  0.00    +0.165 HD
ATOM     12  C   UNL     1       4.863  10.626   5.740  0.00  0.00    +0.047 A 
ATOM     13  C   UNL     1       4.144   9.440   5.502  0.00  0.00    +0.003 A 
ATOM     14  C   UNL     1       2.752   9.476   5.404  0.00  0.00    +0.010 A 
ATOM     15  C   UNL     1       2.094  10.666   5.541  0.00  0.00    +0.001 A 
ATOM     16  C   UNL     1       2.798  11.838   5.776  0.00  0.00    +0.002 A 
ATOM     17  C   UNL     1       4.172  11.825   5.876  0.00  0.00    +0.026 A 
ENDBRANCH   7   8
ENDBRANCH   6   7
ENDBRANCH   4   6
ENDBRANCH   1   2
BRANCH   1  18
ATOM     18  C   UNL     1       3.984   3.069   0.405  0.00  0.00    +0.135 C 
BRANCH  18  25
ATOM     19  C   UNL     1       2.479   1.072  -0.009  0.00  0.00    +0.163 A 
ATOM     20  N   UNL     1       2.637  -0.207  -0.204  0.00  0.00    -0.153 NA
ATOM     21  N   UNL     1       4.010  -0.486  -0.154  0.00  0.00    -0.254 N 
ATOM     22  H   UNL     1       4.422  -1.357  -0.266  0.00  0.00    +0.191 HD
ATOM     23  C   UNL     1       4.653   0.676   0.078  0.00  0.00    +0.176 A 
ATOM     24  S   UNL     1       6.346   0.883   0.228  0.00  0.00    -0.011 S 
ATOM     25  N   UNL     1       3.722   1.648   0.165  0.00  0.00    -0.303 N 
BRANCH  19  30
ATOM     26  C   UNL     1      -2.557   3.858   0.091  0.00  0.00    +0.044 C 
ATOM     27  C   UNL     1      -1.239   3.128   0.065  0.00  0.00    -0.050 A 
ATOM     28  C   UNL     1      -0.129   3.691   0.669  0.00  0.00    +0.004 A 
ATOM     29  C   UNL     1       1.083   3.031   0.644  0.00  0.00    +0.012 A 
ATOM     30  C   UNL     1       1.184   1.789   0.017  0.00  0.00    +0.019 A 
ATOM     31  C   UNL     1       0.059   1.224  -0.586  0.00  0.00    +0.012 A 
ATOM     32  C   UNL     1      -1.145   1.897  -0.559  0.00  0.00    +0.004 A 
ENDBRANCH  19  30
ENDBRANCH  18  25
ENDBRANCH   1  18
TORSDOF 7
