REMARK  Name = ZINC66253083
REMARK  5 active torsions:
REMARK  status: ('A' for Active; 'I' for Inactive)
REMARK    1  A    between atoms: C_1  and  C_2
REMARK    2  A    between atoms: C_2  and  C_3
REMARK    3  A    between atoms: N_12  and  S_13
REMARK    4  A    between atoms: S_13  and  C_16
REMARK    5  A    between atoms: C_19  and  C_22
REMARK                            x       y       z     vdW  Elec       q    Type
REMARK                         _______ _______ _______ _____ _____    ______ ____
ROOT
ATOM      1  S   UNL     1      -7.715  -3.704  -1.692  0.00  0.00    +0.101 S 
ATOM      2  O   UNL     1      -6.933  -4.836  -2.048  0.00  0.00    -0.146 OA
ATOM      3  O   UNL     1      -7.992  -3.365  -0.340  0.00  0.00    -0.146 OA
ENDROOT
BRANCH   1  12
ATOM      4  C   UNL     1      -1.433  -0.534   0.013  0.00  0.00    -0.006 C 
ATOM      5  C   UNL     1      -1.417  -2.062   0.121  0.00  0.00    +0.010 C 
ATOM      6  C   UNL     1      -2.834  -2.579   0.368  0.00  0.00    +0.054 C 
ATOM      7  C   UNL     1      -3.765  -2.010  -0.700  0.00  0.00    +0.028 A 
ATOM      8  C   UNL     1      -3.404  -0.931  -1.405  0.00  0.00    +0.013 A 
ATOM      9  S   UNL     1      -4.773  -0.650  -2.497  0.00  0.00    -0.053 S 
ATOM     10  C   UNL     1      -5.790  -2.015  -1.953  0.00  0.00    +0.192 A 
ATOM     11  N   UNL     1      -4.993  -2.570  -0.980  0.00  0.00    -0.336 N 
ATOM     12  N   UNL     1      -6.975  -2.386  -2.368  0.00  0.00    -0.103 NA
ATOM     13  C   UNL     1      -2.138  -0.140  -1.293  0.00  0.00    +0.047 C 
ATOM     14  H   UNL     1      -5.294  -3.353  -0.493  0.00  0.00    +0.168 HD
BRANCH   4  16
ATOM     15  C   UNL     1      -0.019   1.526   0.010  0.00  0.00    +0.004 C 
ATOM     16  C   UNL     1       0.002  -0.004   0.002  0.00  0.00    +0.000 C 
ENDBRANCH   4  16
ENDBRANCH   1  12
BRANCH   1  17
ATOM     17  C   UNL     1      -9.273  -3.896  -2.493  0.00  0.00    +0.113 A 
ATOM     18  C   UNL     1     -10.391  -3.258  -1.986  0.00  0.00    +0.030 A 
ATOM     19  C   UNL     1     -11.613  -3.404  -2.608  0.00  0.00    +0.015 A 
ATOM     20  C   UNL     1     -11.721  -4.197  -3.751  0.00  0.00    +0.037 A 
ATOM     21  C   UNL     1     -10.589  -4.839  -4.257  0.00  0.00    +0.015 A 
ATOM     22  C   UNL     1      -9.371  -4.680  -3.628  0.00  0.00    +0.030 A 
BRANCH  20  23
ATOM     23  C   UNL     1     -13.028  -4.359  -4.423  0.00  0.00    +0.242 C 
ATOM     24  O   UNL     1     -14.012  -3.800  -3.980  0.00  0.00    -0.270 OA
ATOM     25  N   UNL     1     -13.128  -5.126  -5.527  0.00  0.00    -0.325 N 
ATOM     26  H   UNL     1     -12.343  -5.572  -5.880  0.00  0.00    +0.145 HD
ATOM     27  H   UNL     1     -13.986  -5.232  -5.967  0.00  0.00    +0.145 HD
ENDBRANCH  20  23
ENDBRANCH   1  17
TORSDOF 4
