REMARK  Name = ZINC57531392
REMARK  8 active torsions:
REMARK  status: ('A' for Active; 'I' for Inactive)
REMARK    1  A    between atoms: C_1  and  O_2
REMARK    2  A    between atoms: O_2  and  C_3
REMARK    3  A    between atoms: C_5  and  C_10
REMARK    4  A    between atoms: C_8  and  O_9
REMARK    5  A    between atoms: C_12  and  C_24
REMARK    6  A    between atoms: C_14  and  C_19
REMARK    7  A    between atoms: C_14  and  O_23
REMARK    8  A    between atoms: C_24  and  C_26
REMARK                            x       y       z     vdW  Elec       q    Type
REMARK                         _______ _______ _______ _____ _____    ______ ____
ROOT
ATOM      1  C   UNL     1      -4.849   0.258   0.029  0.00  0.00    +0.118 C 
ATOM      2  C   UNL     1      -5.384   0.423  -1.397  0.00  0.00    +0.144 C 
ATOM      3  C   UNL     1      -6.741   1.131  -1.331  0.00  0.00    +0.241 C 
ATOM      4  N   UNL     1      -7.634   0.377  -0.449  0.00  0.00    -0.291 N 
ATOM      5  C   UNL     1      -7.155  -0.353   0.569  0.00  0.00    +0.133 C 
ATOM      6  S   UNL     1      -8.261  -1.198   1.567  0.00  0.00    -0.019 S 
ATOM      7  N   UNL     1      -5.844  -0.448   0.838  0.00  0.00    -0.319 N 
ATOM      8  H   UNL     1      -8.591   0.405  -0.605  0.00  0.00    +0.151 HD
ATOM      9  H   UNL     1      -5.549  -0.996   1.582  0.00  0.00    +0.148 HD
ENDROOT
BRANCH   1  12
ATOM     10  C   UNL     1      -1.180  -0.617  -0.189  0.00  0.00    +0.162 A 
ATOM     11  C   UNL     1      -2.358   0.112  -0.160  0.00  0.00    +0.055 A 
ATOM     12  C   UNL     1      -3.569  -0.536  -0.002  0.00  0.00    -0.023 A 
ATOM     13  C   UNL     1      -3.607  -1.912   0.130  0.00  0.00    +0.009 A 
ATOM     14  C   UNL     1      -2.436  -2.645   0.102  0.00  0.00    +0.049 A 
ATOM     15  C   UNL     1      -1.219  -2.002  -0.063  0.00  0.00    +0.158 A 
BRANCH  10  17
ATOM     16  C   UNL     1      -0.024   1.443  -0.468  0.00  0.00    +0.277 C 
ATOM     17  O   UNL     1       0.012   0.020  -0.345  0.00  0.00    -0.491 OA
ENDBRANCH  10  17
BRANCH  15  18
ATOM     18  O   UNL     1      -0.066  -2.722  -0.096  0.00  0.00    -0.503 OA
ATOM     19  H   UNL     1       0.341  -2.853   0.772  0.00  0.00    +0.292 HD
ENDBRANCH  15  18
ENDBRANCH   1  12
BRANCH   3  20
ATOM     20  C   UNL     1      -6.553   2.546  -0.779  0.00  0.00    +0.436 C 
ATOM     21  F   UNL     1      -5.694   3.263  -1.618  0.00  0.00    -0.166 F 
ATOM     22  F   UNL     1      -7.793   3.191  -0.718  0.00  0.00    -0.166 F 
ATOM     23  F   UNL     1      -6.001   2.476   0.505  0.00  0.00    -0.166 F 
ENDBRANCH   3  20
BRANCH   3  24
ATOM     24  O   UNL     1      -7.309   1.200  -2.640  0.00  0.00    -0.364 OA
ATOM     25  H   UNL     1      -8.171   1.637  -2.673  0.00  0.00    +0.212 HD
ENDBRANCH   3  24
BRANCH   2  26
ATOM     26  C   UNL     1      -5.546  -0.932  -2.036  0.00  0.00    +0.179 C 
ATOM     27  O   UNL     1      -5.908  -1.879  -1.368  0.00  0.00    -0.291 OA
BRANCH  26  28
ATOM     28  C   UNL     1      -5.279  -1.100  -3.413  0.00  0.00    +0.055 A 
ATOM     29  C   UNL     1      -5.370  -2.251  -4.190  0.00  0.00    +0.019 A 
ATOM     30  C   UNL     1      -5.041  -2.102  -5.514  0.00  0.00    +0.008 A 
ATOM     31  C   UNL     1      -4.659  -0.880  -5.966  0.00  0.00    +0.046 A 
ATOM     32  S   UNL     1      -4.742   0.107  -4.609  0.00  0.00    -0.094 S 
ENDBRANCH  26  28
ENDBRANCH   2  26
TORSDOF 7
