REMARK  Name = ZINC26947840
REMARK  7 active torsions:
REMARK  status: ('A' for Active; 'I' for Inactive)
REMARK    1  A    between atoms: C_1  and  C_2
REMARK    2  A    between atoms: C_4  and  N_16
REMARK    3  A    between atoms: N_8  and  C_9
REMARK    4  A    between atoms: C_9  and  C_11
REMARK    5  A    between atoms: C_9  and  O_15
REMARK    6  A    between atoms: N_16  and  N_17
REMARK    7  A    between atoms: C_20  and  C_25
REMARK                            x       y       z     vdW  Elec       q    Type
REMARK                         _______ _______ _______ _____ _____    ______ ____
ROOT
ATOM      1  C   UNL     1      -2.482  -2.730   0.010  0.00  0.00    +0.066 C 
ATOM      2  C   UNL     1      -1.168  -1.990   0.002  0.00  0.00    +0.045 A 
ATOM      3  C   UNL     1       0.025  -2.687  -0.013  0.00  0.00    +0.068 A 
ATOM      4  C   UNL     1       1.218  -1.962  -0.021  0.00  0.00    +0.141 A 
ATOM      5  N   UNL     1       1.167  -0.634  -0.018  0.00  0.00    -0.198 NA
ATOM      6  C   UNL     1       0.002  -0.004   0.002  0.00  0.00    +0.219 A 
ATOM      7  N   UNL     1      -1.146  -0.666   0.009  0.00  0.00    -0.220 NA
ATOM      8  N   UNL     1      -0.017   1.380   0.010  0.00  0.00    -0.285 N 
ATOM      9  H   UNL     1       0.928   1.943   0.008  0.00  0.00    +0.151 HD
ENDROOT
BRANCH   4  10
ATOM     10  N   UNL     1       2.438  -2.618  -0.036  0.00  0.00    -0.241 N 
ATOM     11  H   UNL     1       2.472  -3.718  -0.043  0.00  0.00    +0.172 HD
BRANCH  10  12
ATOM     12  N   UNL     1       3.630  -1.881  -0.044  0.00  0.00    -0.193 N 
ATOM     13  C   UNL     1       4.334  -1.800  -1.194  0.00  0.00    +0.126 C 
ATOM     14  N   UNL     1       3.949  -2.375  -2.285  0.00  0.00    -0.287 NA
ATOM     15  C   UNL     1       5.610  -0.976  -1.110  0.00  0.00    +0.132 C 
ATOM     16  S   UNL     1       5.556  -0.475   0.656  0.00  0.00    -0.089 S 
ATOM     17  C   UNL     1       4.029  -1.289   1.096  0.00  0.00    +0.132 C 
ATOM     18  S   UNL     1       3.250  -1.310   2.621  0.00  0.00    -0.026 S 
ATOM     19  H   UNL     1       3.017  -2.959  -2.300  0.00  0.00    +0.188 HD
BRANCH  15  20
ATOM     20  C   UNL     1       6.841  -1.835  -1.406  0.00  0.00    +0.130 C 
ATOM     21 CL   UNL     1       8.334  -0.881  -1.071  0.00  0.00    -0.124 Cl
ENDBRANCH  15  20
ENDBRANCH  10  12
ENDBRANCH   4  10
BRANCH   8  22
ATOM     22  C   UNL     1      -1.295   2.095   0.020  0.00  0.00    +0.254 C 
BRANCH  22  23
ATOM     23  C   UNL     1      -1.205   3.313  -0.901  0.00  0.00    +0.232 C 
ATOM     24 CL   UNL     1       0.102   4.411  -0.320  0.00  0.00    -0.079 Cl
ATOM     25 CL   UNL     1      -0.833   2.771  -2.580  0.00  0.00    -0.079 Cl
ATOM     26 CL   UNL     1      -2.779   4.194  -0.889  0.00  0.00    -0.079 Cl
ENDBRANCH  22  23
BRANCH  22  27
ATOM     27  O   UNL     1      -1.590   2.524   1.350  0.00  0.00    -0.370 OA
ATOM     28  H   UNL     1      -2.516   3.082   1.556  0.00  0.00    +0.212 HD
ENDBRANCH  22  27
ENDBRANCH   8  22
TORSDOF 6
