REMARK  Name = ZINC17830755
REMARK  7 active torsions:
REMARK  status: ('A' for Active; 'I' for Inactive)
REMARK    1  A    between atoms: C_1  and  C_2
REMARK    2  A    between atoms: C_3  and  C_12
REMARK    3  A    between atoms: C_5  and  C_7
REMARK    4  A    between atoms: C_12  and  O_14
REMARK    5  A    between atoms: O_14  and  C_15
REMARK    6  A    between atoms: C_15  and  C_16
REMARK    7  A    between atoms: C_16  and  C_18
REMARK                            x       y       z     vdW  Elec       q    Type
REMARK                         _______ _______ _______ _____ _____    ______ ____
ROOT
ATOM      1  C   UNL     1      -7.235   3.790   0.062  0.00  0.00    +0.311 C 
ENDROOT
BRANCH   1   2
ATOM      2  C   UNL     1      -8.256   2.682   0.061  0.00  0.00    +0.200 C 
ATOM      3  O   UNL     1      -7.894   1.524   0.052  0.00  0.00    -0.288 OA
BRANCH   2   4
ATOM      4  C   UNL     1      -9.689   3.003   0.071  0.00  0.00    +0.023 A 
ATOM      5  C   UNL     1     -10.109   4.338   0.087  0.00  0.00    +0.015 A 
ATOM      6  C   UNL     1     -11.453   4.640   0.090  0.00  0.00    +0.048 A 
ATOM      7  C   UNL     1     -12.395   3.620   0.089  0.00  0.00    +0.142 A 
ATOM      8  C   UNL     1     -11.983   2.284   0.079  0.00  0.00    +0.076 A 
ATOM      9  C   UNL     1     -10.639   1.973   0.070  0.00  0.00    +0.038 A 
ATOM     10  N   UNL     1     -12.952   1.270   0.080  0.00  0.00    -0.280 N 
ATOM     11  C   UNL     1     -14.229   1.584  -0.228  0.00  0.00    +0.255 C 
ATOM     12  O   UNL     1     -15.089   0.729  -0.205  0.00  0.00    -0.272 OA
ATOM     13  C   UNL     1     -14.581   3.002  -0.599  0.00  0.00    +0.325 C 
ATOM     14  O   UNL     1     -13.722   3.909   0.096  0.00  0.00    -0.481 OA
ATOM     15  H   UNL     1     -12.708   0.356   0.299  0.00  0.00    +0.155 HD
ENDBRANCH   2   4
ENDBRANCH   1   2
BRANCH   1  16
ATOM     16  O   UNL     1      -5.921   3.228   0.051  0.00  0.00    -0.453 OA
BRANCH  16  17
ATOM     17  C   UNL     1      -4.885   4.093   0.051  0.00  0.00    +0.348 C 
ATOM     18  O   UNL     1      -5.093   5.292   0.059  0.00  0.00    -0.244 OA
BRANCH  17  21
ATOM     19  C   UNL     1      -2.303   5.794   0.046  0.00  0.00    +0.067 C 
ATOM     20  C   UNL     1      -2.310   4.287   0.037  0.00  0.00    +0.060 A 
ATOM     21  C   UNL     1      -3.513   3.589   0.040  0.00  0.00    +0.119 A 
ATOM     22  S   UNL     1      -2.914   1.903   0.028  0.00  0.00    -0.060 S 
ATOM     23  C   UNL     1      -1.169   2.290   0.020  0.00  0.00    +0.116 A 
ATOM     24  N   UNL     1      -1.190   3.623   0.033  0.00  0.00    -0.243 NA
BRANCH  23  25
ATOM     25  C   UNL     1      -0.017   1.380   0.010  0.00  0.00    +0.044 A 
ATOM     26  C   UNL     1       0.002  -0.004   0.002  0.00  0.00    +0.018 A 
ATOM     27  C   UNL     1       1.220  -0.641  -0.013  0.00  0.00    +0.008 A 
ATOM     28  C   UNL     1       2.359   0.101  -0.020  0.00  0.00    +0.046 A 
ATOM     29  S   UNL     1       1.726   1.770  -0.005  0.00  0.00    -0.095 S 
ENDBRANCH  23  25
ENDBRANCH  17  21
ENDBRANCH  16  17
ENDBRANCH   1  16
TORSDOF 6
