REMARK  Name = ZINC08762992
REMARK  10 active torsions:
REMARK  status: ('A' for Active; 'I' for Inactive)
REMARK    1  A    between atoms: C_1  and  C_2
REMARK    2  A    between atoms: C_8  and  C_37
REMARK    3  A    between atoms: C_9  and  O_36
REMARK    4  A    between atoms: C_19  and  C_21
REMARK    5  A    between atoms: C_21  and  N_65
REMARK    6  A    between atoms: C_22  and  C_23
REMARK    7  A    between atoms: C_22  and  N_65
REMARK    8  A    between atoms: C_23  and  C_24
REMARK    9  A    between atoms: C_31  and  O_34
REMARK   10  A    between atoms: O_34  and  C_35
REMARK                            x       y       z     vdW  Elec       q    Type
REMARK                         _______ _______ _______ _____ _____    ______ ____
ROOT
ATOM      1  C   UNL     1       4.686   1.856  -1.779  0.00  0.00    +0.008 C 
ATOM      2  C   UNL     1       3.536   2.388  -0.936  0.00  0.00    -0.001 C 
ATOM      3  C   UNL     1       3.911   2.387   0.542  0.00  0.00    +0.008 C 
ATOM      4  C   UNL     1       2.803   3.129   1.304  0.00  0.00    +0.027 C 
ATOM      5  C   UNL     1       1.504   2.419   1.038  0.00  0.00    -0.027 C 
ATOM      6  C   UNL     1       1.273   1.761  -0.057  0.00  0.00    -0.061 C 
ATOM      7  C   UNL     1       2.249   1.624  -1.196  0.00  0.00    +0.018 C 
ATOM      8  C   UNL     1       2.481   0.144  -1.454  0.00  0.00    +0.132 C 
ATOM      9  C   UNL     1       1.252  -0.720  -1.452  0.00  0.00    +0.071 C 
ATOM     10  C   UNL     1       0.225  -0.451  -0.342  0.00  0.00    +0.187 C 
ATOM     11  C   UNL     1      -0.059   1.054  -0.217  0.00  0.00    +0.076 C 
ATOM     12  O   UNL     1      -1.007  -1.057  -0.864  0.00  0.00    -0.460 OA
ATOM     13  C   UNL     1      -0.959  -1.194  -2.198  0.00  0.00    +0.309 C 
ATOM     14  O   UNL     1      -1.849  -1.629  -2.895  0.00  0.00    -0.251 OA
ATOM     15  C   UNL     1       0.393  -0.716  -2.717  0.00  0.00    +0.090 C 
ATOM     16  C   UNL     1       1.623   2.269  -2.441  0.00  0.00    +0.018 C 
ENDROOT
BRANCH   8  17
ATOM     17  O   UNL     1       3.372  -0.384  -0.460  0.00  0.00    -0.391 OA
ATOM     18  H   UNL     1       3.641  -1.299  -0.618  0.00  0.00    +0.210 HD
ENDBRANCH   8  17
BRANCH  15  19
ATOM     19  C   UNL     1       0.936  -1.713  -3.748  0.00  0.00    -0.067 C 
BRANCH  19  20
ATOM     20  N   UNL     1       0.156  -1.594  -4.994  0.00  0.00    +0.380 N 
ATOM     21  H   UNL     1       0.241  -0.637  -5.356  0.00  0.00    -0.086 HD
ATOM     22  H   UNL     1      -0.830  -1.799  -4.798  0.00  0.00    -0.086 HD
BRANCH  20  23
ATOM     23  C   UNL     1       0.659  -2.543  -6.006  0.00  0.00    -0.078 C 
BRANCH  23  24
ATOM     24  C   UNL     1      -0.168  -2.396  -7.285  0.00  0.00    +0.018 C 
BRANCH  24  25
ATOM     25  C   UNL     1       0.339  -3.363  -8.324  0.00  0.00    -0.024 A 
ATOM     26  C   UNL     1       1.225  -3.098  -9.297  0.00  0.00    +0.087 A 
ATOM     27  N   UNL     1       1.445  -4.220 -10.047  0.00  0.00    -0.360 N 
ATOM     28  H   UNL     1       2.047  -4.275 -10.805  0.00  0.00    +0.165 HD
ATOM     29  C   UNL     1       0.679  -5.262  -9.567  0.00  0.00    +0.047 A 
ATOM     30  C   UNL     1      -0.047  -4.769  -8.467  0.00  0.00    +0.006 A 
ATOM     31  C   UNL     1      -0.918  -5.611  -7.772  0.00  0.00    +0.056 A 
ATOM     32  C   UNL     1      -1.060  -6.925  -8.172  0.00  0.00    +0.121 A 
ATOM     33  C   UNL     1      -0.341  -7.409  -9.261  0.00  0.00    +0.047 A 
ATOM     34  C   UNL     1       0.521  -6.588  -9.954  0.00  0.00    +0.030 A 
BRANCH  32  35
ATOM     35  O   UNL     1      -1.907  -7.749  -7.499  0.00  0.00    -0.495 OA
ATOM     36  C   UNL     1      -2.007  -9.097  -7.964  0.00  0.00    +0.277 C 
ENDBRANCH  32  35
ENDBRANCH  24  25
ENDBRANCH  23  24
ENDBRANCH  20  23
ENDBRANCH  19  20
ENDBRANCH  15  19
TORSDOF 7
