REMARK  Name = ZINC63116865
REMARK  4 active torsions:
REMARK  status: ('A' for Active; 'I' for Inactive)
REMARK    1  A    between atoms: C_1  and  C_2
REMARK    2  A    between atoms: C_2  and  C_3
REMARK    3  A    between atoms: C_9  and  C_14
REMARK    4  A    between atoms: C_12  and  N_13
REMARK                            x       y       z     vdW  Elec       q    Type
REMARK                         _______ _______ _______ _____ _____    ______ ____
ROOT
ATOM      1  C   UNL     1       0.707  -0.490  -1.238  0.00  0.00    -0.008 A 
ATOM      2  C   UNL     1       2.005  -0.899  -1.169  0.00  0.00    +0.017 A 
ATOM      3  C   UNL     1       2.629  -1.346  -2.351  0.00  0.00    +0.002 A 
ATOM      4  C   UNL     1       3.963  -1.781  -2.351  0.00  0.00    +0.025 A 
ATOM      5  C   UNL     1       4.533  -2.208  -3.514  0.00  0.00    +0.019 A 
ATOM      6  C   UNL     1       3.807  -2.217  -4.704  0.00  0.00    +0.020 A 
ATOM      7  C   UNL     1       2.512  -1.801  -4.738  0.00  0.00    -0.023 A 
ATOM      8  C   UNL     1       1.890  -1.355  -3.559  0.00  0.00    +0.076 A 
ATOM      9  N   UNL     1       0.617  -0.942  -3.566  0.00  0.00    -0.232 NA
ATOM     10  C   UNL     1       0.028  -0.528  -2.463  0.00  0.00    +0.120 A 
ATOM     11  C   UNL     1       1.746  -1.819  -6.037  0.00  0.00    +0.046 C 
ATOM     12 BR   UNL     1       6.331  -2.793  -3.512  0.00  0.00    -0.050 Br
ENDROOT
BRANCH  10  13
ATOM     13  N   UNL     1      -1.295  -0.114  -2.517  0.00  0.00    -0.343 N 
ATOM     14  H   UNL     1      -1.739   0.197  -1.713  0.00  0.00    +0.144 HD
ATOM     15  H   UNL     1      -1.776  -0.136  -3.359  0.00  0.00    +0.144 HD
ENDBRANCH  10  13
BRANCH   1  17
ATOM     16  C   UNL     1      -0.019   1.526   0.010  0.00  0.00    +0.009 C 
ATOM     17  C   UNL     1       0.002  -0.004   0.002  0.00  0.00    +0.035 C 
ENDBRANCH   1  17
TORSDOF 2
