REMARK  Name = ZINC49171696
REMARK  10 active torsions:
REMARK  status: ('A' for Active; 'I' for Inactive)
REMARK    1  A    between atoms: C_1  and  C_2
REMARK    2  A    between atoms: C_3  and  C_4
REMARK    3  A    between atoms: C_4  and  N_5
REMARK    4  A    between atoms: C_14  and  C_26
REMARK    5  A    between atoms: C_17  and  C_20
REMARK    6  A    between atoms: N_22  and  C_23
REMARK    7  A    between atoms: C_23  and  C_24
REMARK    8  A    between atoms: C_26  and  C_27
REMARK    9  A    between atoms: C_27  and  C_28
REMARK   10  A    between atoms: C_27  and  C_29
REMARK                            x       y       z     vdW  Elec       q    Type
REMARK                         _______ _______ _______ _____ _____    ______ ____
ROOT
ATOM      1  N   UNL     1      -1.336  -3.157  -0.002  0.00  0.00    -0.335 N 
ATOM      2  C   UNL     1      -2.034  -3.523   1.129  0.00  0.00    +0.091 A 
ATOM      3  C   UNL     1      -3.260  -3.904   0.801  0.00  0.00    -0.020 A 
ATOM      4  C   UNL     1      -3.375  -3.731  -0.656  0.00  0.00    +0.008 A 
ATOM      5  C   UNL     1      -2.120  -3.331  -1.119  0.00  0.00    +0.050 A 
ATOM      6  C   UNL     1      -1.957  -3.242  -2.498  0.00  0.00    +0.026 A 
ATOM      7  C   UNL     1      -3.028  -3.516  -3.325  0.00  0.00    +0.002 A 
ATOM      8  C   UNL     1      -4.285  -3.846  -2.826  0.00  0.00    +0.006 A 
ATOM      9  C   UNL     1      -4.470  -3.916  -1.476  0.00  0.00    -0.021 A 
ATOM     10  C   UNL     1      -5.858  -4.021  -0.873  0.00  0.00    +0.085 C 
ATOM     11  N   UNL     1      -5.971  -3.013   0.195  0.00  0.00    -0.299 NA
ATOM     12  C   UNL     1      -5.566  -3.438   1.542  0.00  0.00    +0.145 C 
ATOM     13  C   UNL     1      -4.426  -4.436   1.597  0.00  0.00    +0.065 C 
ATOM     14  H   UNL     1      -5.509  -2.155  -0.068  0.00  0.00    +0.123 HD
ENDROOT
BRANCH  12  15
ATOM     15  C   UNL     1      -5.156  -2.215   2.321  0.00  0.00    +0.231 C 
ATOM     16  O   UNL     1      -4.850  -1.197   1.735  0.00  0.00    -0.274 OA
ATOM     17  N   UNL     1      -5.128  -2.251   3.668  0.00  0.00    -0.310 N 
ATOM     18  H   UNL     1      -5.373  -3.064   4.136  0.00  0.00    +0.149 HD
BRANCH  17  19
ATOM     19  C   UNL     1      -4.730  -1.062   4.424  0.00  0.00    +0.131 C 
BRANCH  19  20
ATOM     20  C   UNL     1      -4.783  -1.364   5.900  0.00  0.00    -0.016 C 
ATOM     21  C   UNL     1      -3.724  -1.169   6.647  0.00  0.00    +0.005 C 
ENDBRANCH  19  20
ENDBRANCH  17  19
ENDBRANCH  12  15
BRANCH   1  22
ATOM     22  C   UNL     1       0.038  -2.650  -0.013  0.00  0.00    +0.210 C 
BRANCH  22  25
ATOM     23  C   UNL     1      -0.018   1.468   0.010  0.00  0.00    +0.106 C 
ATOM     24  C   UNL     1       0.002  -0.004   0.002  0.00  0.00    -0.104 C 
ATOM     25  C   UNL     1       0.018  -1.178  -0.004  0.00  0.00    -0.081 C 
ENDBRANCH  22  25
ENDBRANCH   1  22
BRANCH  10  26
ATOM     26  C   UNL     1      -6.911  -3.753  -1.951  0.00  0.00    +0.026 C 
BRANCH  26  27
ATOM     27  C   UNL     1      -8.307  -3.982  -1.369  0.00  0.00    -0.015 C 
ATOM     28  C   UNL     1      -8.578  -2.949  -0.273  0.00  0.00    +0.007 C 
ATOM     29  C   UNL     1      -9.352  -3.836  -2.477  0.00  0.00    +0.007 C 
ENDBRANCH  26  27
ENDBRANCH  10  26
TORSDOF 7
