REMARK  Name = ZINC63406163
REMARK  11 active torsions:
REMARK  status: ('A' for Active; 'I' for Inactive)
REMARK    1  A    between atoms: C_1  and  C_2
REMARK    2  A    between atoms: C_5  and  C_8
REMARK    3  A    between atoms: N_10  and  C_11
REMARK    4  A    between atoms: C_11  and  C_22
REMARK    5  A    between atoms: C_12  and  C_13
REMARK    6  A    between atoms: C_16  and  N_19
REMARK    7  A    between atoms: N_19  and  C_20
REMARK    8  A    between atoms: N_19  and  C_21
REMARK    9  A    between atoms: N_24  and  C_25
REMARK   10  A    between atoms: C_25  and  C_26
REMARK   11  A    between atoms: C_26  and  C_27
REMARK                            x       y       z     vdW  Elec       q    Type
REMARK                         _______ _______ _______ _____ _____    ______ ____
ROOT
ATOM      1  C   UNL     1       0.061  -6.278   1.139  0.00  0.00    +0.097 C 
ATOM      2  C   UNL     1       0.182  -6.940   2.314  0.00  0.00    +0.036 C 
ENDROOT
BRANCH   2   3
ATOM      3  C   UNL     1       0.531  -8.367   2.321  0.00  0.00    -0.023 A 
ATOM      4  C   UNL     1       1.344  -8.896   1.311  0.00  0.00    +0.010 A 
ATOM      5  C   UNL     1       1.668 -10.234   1.321  0.00  0.00    +0.023 A 
ATOM      6  C   UNL     1       1.188 -11.060   2.333  0.00  0.00    +0.029 A 
ATOM      7  C   UNL     1       0.380 -10.539   3.339  0.00  0.00    +0.023 A 
ATOM      8  C   UNL     1       0.056  -9.202   3.340  0.00  0.00    +0.010 A 
BRANCH   6   9
ATOM      9  N   UNL     1       1.518 -12.414   2.338  0.00  0.00    -0.336 N 
ATOM     10  C   UNL     1       2.369 -12.965   1.280  0.00  0.00    +0.129 C 
ATOM     11  C   UNL     1       1.015 -13.286   3.402  0.00  0.00    +0.129 C 
ENDBRANCH   6   9
ENDBRANCH   2   3
BRANCH   1  14
ATOM     12  C   UNL     1      -0.350  -4.247  -0.029  0.00  0.00    +0.248 C 
ATOM     13  O   UNL     1      -0.292  -4.853  -1.081  0.00  0.00    -0.270 OA
ATOM     14  N   UNL     1      -0.132  -4.892   1.134  0.00  0.00    -0.277 N 
ATOM     15  H   UNL     1      -0.108  -4.396   1.967  0.00  0.00    +0.155 HD
BRANCH  12  20
ATOM     16  C   UNL     1      -1.557   1.380  -0.015  0.00  0.00    +0.044 C 
ATOM     17  C   UNL     1      -1.241  -0.094  -0.018  0.00  0.00    -0.050 A 
ATOM     18  C   UNL     1      -1.175  -0.781  -1.218  0.00  0.00    +0.004 A 
ATOM     19  C   UNL     1      -0.886  -2.130  -1.228  0.00  0.00    +0.013 A 
ATOM     20  C   UNL     1      -0.660  -2.801  -0.025  0.00  0.00    +0.037 A 
ATOM     21  C   UNL     1      -0.727  -2.102   1.181  0.00  0.00    +0.013 A 
ATOM     22  C   UNL     1      -1.012  -0.752   1.177  0.00  0.00    +0.004 A 
ENDBRANCH  12  20
ENDBRANCH   1  14
BRANCH   1  23
ATOM     23  C   UNL     1       0.132  -7.014  -0.129  0.00  0.00    +0.258 C 
ATOM     24  O   UNL     1       1.088  -6.863  -0.867  0.00  0.00    -0.269 OA
ATOM     25  N   UNL     1      -0.861  -7.857  -0.475  0.00  0.00    -0.310 N 
ATOM     26  H   UNL     1      -1.655  -7.924   0.077  0.00  0.00    +0.149 HD
BRANCH  25  27
ATOM     27  C   UNL     1      -0.739  -8.674  -1.686  0.00  0.00    +0.109 C 
BRANCH  27  28
ATOM     28  C   UNL     1      -1.993  -9.536  -1.847  0.00  0.00    +0.052 C 
BRANCH  28  29
ATOM     29  C   UNL     1      -1.868 -10.376  -3.092  0.00  0.00    -0.040 C 
ATOM     30  C   UNL     1      -1.426 -11.652  -3.171  0.00  0.00    -0.001 A 
ATOM     31  C   UNL     1      -0.946 -12.603  -2.161  0.00  0.00    +0.010 A 
ATOM     32  C   UNL     1      -0.562 -13.838  -2.553  0.00  0.00    +0.001 A 
ATOM     33  C   UNL     1      -0.609 -14.233  -3.897  0.00  0.00    +0.002 A 
ATOM     34  C   UNL     1      -1.038 -13.416  -4.883  0.00  0.00    +0.026 A 
ATOM     35  C   UNL     1      -1.467 -12.093  -4.584  0.00  0.00    +0.043 A 
ATOM     36  N   UNL     1      -1.917 -11.128  -5.348  0.00  0.00    -0.380 N 
ATOM     37  C   UNL     1      -2.218  -9.965  -4.505  0.00  0.00    +0.144 C 
ATOM     38  H   UNL     1      -2.034 -11.175  -6.310  0.00  0.00    +0.160 HD
ENDBRANCH  28  29
ENDBRANCH  27  28
ENDBRANCH  25  27
ENDBRANCH   1  23
TORSDOF 8
