REMARK  Name = ZINC36197402
REMARK  8 active torsions:
REMARK  status: ('A' for Active; 'I' for Inactive)
REMARK    1  A    between atoms: C_1  and  C_2
REMARK    2  A    between atoms: C_2  and  N_3
REMARK    3  A    between atoms: N_3  and  C_4
REMARK    4  A    between atoms: N_3  and  C_12
REMARK    5  A    between atoms: C_4  and  C_5
REMARK    6  A    between atoms: C_10  and  C_11
REMARK    7  A    between atoms: C_15  and  C_19
REMARK    8  A    between atoms: C_17  and  N_18
REMARK                            x       y       z     vdW  Elec       q    Type
REMARK                         _______ _______ _______ _____ _____    ______ ____
ROOT
ATOM      1  C   UNL     1      -2.053  -0.860   1.161  0.00  0.00    +0.051 A 
ATOM      2  C   UNL     1      -2.929   0.046   1.746  0.00  0.00    +0.026 A 
ATOM      3  C   UNL     1      -3.495  -0.231   2.971  0.00  0.00    +0.015 A 
ATOM      4  C   UNL     1      -3.190  -1.425   3.629  0.00  0.00    +0.038 A 
ATOM      5  C   UNL     1      -2.309  -2.338   3.042  0.00  0.00    +0.037 A 
ATOM      6  C   UNL     1      -1.748  -2.059   1.810  0.00  0.00    +0.047 A 
ENDROOT
BRANCH   4   7
ATOM      7  C   UNL     1      -3.795  -1.721   4.941  0.00  0.00    +0.242 C 
ATOM      8  O   UNL     1      -3.529  -2.760   5.513  0.00  0.00    -0.270 OA
ATOM      9  N   UNL     1      -4.644  -0.839   5.506  0.00  0.00    -0.325 N 
ATOM     10  H   UNL     1      -4.856  -0.010   5.050  0.00  0.00    +0.145 HD
ATOM     11  H   UNL     1      -5.042  -1.034   6.369  0.00  0.00    +0.145 HD
ENDBRANCH   4   7
BRANCH   6  12
ATOM     12  N   UNL     1      -0.870  -2.975   1.217  0.00  0.00    -0.357 N 
ATOM     13  H   UNL     1      -0.474  -2.776   0.354  0.00  0.00    +0.142 HD
ATOM     14  H   UNL     1      -0.659  -3.807   1.668  0.00  0.00    +0.142 HD
ENDBRANCH   6  12
BRANCH   1  15
ATOM     15  N   UNL     1      -1.483  -0.576  -0.079  0.00  0.00    -0.324 N 
BRANCH  15  17
ATOM     16  C   UNL     1      -0.239   1.529  -0.134  0.00  0.00    +0.024 C 
ATOM     17  C   UNL     1      -0.139   0.002  -0.151  0.00  0.00    +0.102 C 
ENDBRANCH  15  17
BRANCH  15  18
ATOM     18  C   UNL     1      -2.228  -0.855  -1.309  0.00  0.00    +0.140 C 
BRANCH  18  19
ATOM     19  C   UNL     1      -1.940  -2.264  -1.762  0.00  0.00    -0.027 A 
ATOM     20  C   UNL     1      -0.635  -2.671  -1.967  0.00  0.00    +0.005 A 
ATOM     21  C   UNL     1      -0.371  -3.962  -2.382  0.00  0.00    +0.000 A 
ATOM     22  C   UNL     1      -1.412  -4.848  -2.591  0.00  0.00    +0.000 A 
ATOM     23  C   UNL     1      -2.717  -4.441  -2.385  0.00  0.00    +0.003 A 
ATOM     24  C   UNL     1      -2.981  -3.150  -1.966  0.00  0.00    -0.046 A 
ATOM     25  C   UNL     1      -4.403  -2.708  -1.735  0.00  0.00    +0.044 C 
ENDBRANCH  18  19
ENDBRANCH  15  18
ENDBRANCH   1  15
TORSDOF 6
