REMARK  Name = ZINC40014232
REMARK  8 active torsions:
REMARK  status: ('A' for Active; 'I' for Inactive)
REMARK    1  A    between atoms: C_1  and  C_2
REMARK    2  A    between atoms: C_2  and  N_26
REMARK    3  A    between atoms: C_3  and  C_4
REMARK    4  A    between atoms: C_3  and  C_6
REMARK    5  A    between atoms: C_6  and  C_8
REMARK    6  A    between atoms: C_8  and  S_9
REMARK    7  A    between atoms: S_9  and  C_10
REMARK    8  A    between atoms: C_15  and  C_20
REMARK                            x       y       z     vdW  Elec       q    Type
REMARK                         _______ _______ _______ _____ _____    ______ ____
ROOT
ATOM      1  C   UNL     1       0.624  -0.596   6.513  0.00  0.00    +0.182 C 
ATOM      2  N   UNL     1       0.829  -1.889   6.330  0.00  0.00    -0.151 NA
ATOM      3  C   UNL     1       1.067  -2.728   7.338  0.00  0.00    +0.272 C 
ATOM      4  O   UNL     1       1.252  -3.917   7.135  0.00  0.00    -0.268 OA
ATOM      5  C   UNL     1       1.101  -2.171   8.723  0.00  0.00    +0.075 C 
ATOM      6  C   UNL     1       1.327  -2.835   9.900  0.00  0.00    -0.015 C 
ATOM      7  C   UNL     1       1.306  -2.017  11.171  0.00  0.00    +0.112 C 
ATOM      8  S   UNL     1       0.957  -0.330  10.530  0.00  0.00    -0.100 S 
ATOM      9  C   UNL     1       0.860  -0.720   8.801  0.00  0.00    +0.112 C 
ATOM     10  N   UNL     1       0.644  -0.020   7.714  0.00  0.00    -0.217 NA
ENDROOT
BRANCH   6  11
ATOM     11  C   UNL     1       1.576  -4.278   9.927  0.00  0.00    -0.020 A 
ATOM     12  C   UNL     1       0.575  -5.174   9.526  0.00  0.00    +0.008 A 
ATOM     13  C   UNL     1       0.818  -6.530   9.553  0.00  0.00    +0.001 A 
ATOM     14  C   UNL     1       2.048  -7.008   9.975  0.00  0.00    +0.000 A 
ATOM     15  C   UNL     1       3.043  -6.131  10.373  0.00  0.00    +0.001 A 
ATOM     16  C   UNL     1       2.819  -4.772  10.347  0.00  0.00    +0.008 A 
ENDBRANCH   6  11
BRANCH   1  17
ATOM     17  S   UNL     1       0.319   0.414   5.101  0.00  0.00    -0.080 S 
BRANCH  17  18
ATOM     18  C   UNL     1       0.379  -0.748   3.709  0.00  0.00    +0.157 C 
BRANCH  18  19
ATOM     19  C   UNL     1       0.130  -0.004   2.423  0.00  0.00    +0.185 C 
ATOM     20  O   UNL     1      -0.069   1.194   2.443  0.00  0.00    -0.290 OA
BRANCH  19  23
ATOM     21  C   UNL     1      -0.786   1.354   0.089  0.00  0.00    +0.061 C 
ATOM     22  C   UNL     1      -0.230  -0.045   0.026  0.00  0.00    +0.019 C 
ATOM     23  C   UNL     1       0.127  -0.701   1.191  0.00  0.00    +0.111 C 
BRANCH  22  24
ATOM     24  N   UNL     1      -0.081  -0.659  -1.166  0.00  0.00    -0.360 N 
ATOM     25  H   UNL     1      -0.331  -0.200  -1.983  0.00  0.00    +0.142 HD
ATOM     26  H   UNL     1       0.277  -1.560  -1.207  0.00  0.00    +0.142 HD
ENDBRANCH  22  24
BRANCH  23  27
ATOM     27  C   UNL     1       0.495  -2.084   1.150  0.00  0.00    +0.104 C 
ATOM     28  N   UNL     1       0.786  -3.182   1.118  0.00  0.00    -0.191 NA
ENDBRANCH  23  27
ENDBRANCH  19  23
ENDBRANCH  18  19
ENDBRANCH  17  18
ENDBRANCH   1  17
TORSDOF 7
