REMARK  Name = ZINC20635480
REMARK  1 active torsions:
REMARK  status: ('A' for Active; 'I' for Inactive)
REMARK    1  A    between atoms: C_3  and  C_8
REMARK                            x       y       z     vdW  Elec       q    Type
REMARK                         _______ _______ _______ _____ _____    ______ ____
ROOT
ATOM      1  C   UNL     1       3.672   2.183  -0.022  0.00  0.00    +0.090 C 
ATOM      2  C   UNL     1       4.458   1.836   1.206  0.00  0.00    +0.044 A 
ATOM      3  C   UNL     1       4.121   2.379   2.443  0.00  0.00    +0.127 A 
ATOM      4  N   UNL     1       4.842   2.043   3.510  0.00  0.00    -0.199 NA
ATOM      5  C   UNL     1       5.864   1.207   3.404  0.00  0.00    +0.221 A 
ATOM      6  N   UNL     1       6.213   0.674   2.242  0.00  0.00    -0.199 NA
ATOM      7  C   UNL     1       5.537   0.967   1.135  0.00  0.00    +0.134 A 
ATOM      8  N   UNL     1       5.900   0.421  -0.085  0.00  0.00    -0.302 N 
ATOM      9  C   UNL     1       5.486   0.998  -1.255  0.00  0.00    +0.017 C 
ATOM     10  C   UNL     1       4.438   1.848  -1.277  0.00  0.00    +0.024 C 
ATOM     11  C   UNL     1       4.026   2.453  -2.477  0.00  0.00    +0.162 C 
ATOM     12  O   UNL     1       3.074   3.208  -2.466  0.00  0.00    -0.292 OA
ATOM     13  C   UNL     1       4.738   2.184  -3.774  0.00  0.00    +0.080 C 
ATOM     14  C   UNL     1       6.201   1.840  -3.477  0.00  0.00    +0.014 C 
ATOM     15  C   UNL     1       6.232   0.651  -2.520  0.00  0.00    +0.051 C 
ATOM     16  N   UNL     1       6.588   0.882   4.538  0.00  0.00    -0.300 N 
ATOM     17  C   UNL     1       7.732  -0.037   4.458  0.00  0.00    +0.108 C 
ATOM     18  C   UNL     1       8.955   0.642   5.083  0.00  0.00    +0.019 C 
ATOM     19  C   UNL     1       8.611   1.096   6.503  0.00  0.00    +0.003 C 
ATOM     20  C   UNL     1       7.467   2.111   6.454  0.00  0.00    +0.019 C 
ATOM     21  C   UNL     1       6.231   1.454   5.844  0.00  0.00    +0.108 C 
ATOM     22  N   UNL     1       3.053   3.254   2.561  0.00  0.00    -0.343 N 
ATOM     23  H   UNL     1       6.451  -0.376  -0.111  0.00  0.00    +0.153 HD
ATOM     24  H   UNL     1       2.533   3.493   1.777  0.00  0.00    +0.144 HD
ATOM     25  H   UNL     1       2.825   3.627   3.427  0.00  0.00    +0.144 HD
ENDROOT
BRANCH   1  28
ATOM     26  C   UNL     1      -0.017   1.378   0.010  0.00  0.00    +0.001 A 
ATOM     27  C   UNL     1       1.171   2.086   0.002  0.00  0.00    +0.004 A 
ATOM     28  C   UNL     1       2.378   1.411  -0.013  0.00  0.00    -0.034 A 
ATOM     29  C   UNL     1       2.397   0.029  -0.022  0.00  0.00    +0.019 A 
ATOM     30  C   UNL     1       1.210  -0.679  -0.014  0.00  0.00    +0.018 A 
ATOM     31  C   UNL     1       0.002  -0.004   0.002  0.00  0.00    +0.015 A 
ATOM     32 BR   UNL     1       1.236  -2.570  -0.025  0.00  0.00    -0.050 Br
ENDBRANCH   1  28
TORSDOF 1
