REMARK  Name = ZINC09588966
REMARK  7 active torsions:
REMARK  status: ('A' for Active; 'I' for Inactive)
REMARK    1  A    between atoms: C_1  and  C_2
REMARK    2  A    between atoms: C_3  and  N_11
REMARK    3  A    between atoms: C_7  and  N_8
REMARK    4  A    between atoms: C_12  and  C_14
REMARK    5  A    between atoms: C_14  and  N_15
REMARK    6  A    between atoms: C_18  and  C_22
REMARK    7  A    between atoms: C_18  and  C_28
REMARK                            x       y       z     vdW  Elec       q    Type
REMARK                         _______ _______ _______ _____ _____    ______ ____
ROOT
ATOM      1  N   UNL     1       0.751   2.657  -1.400  0.00  0.00    -0.215 N 
ATOM      2  C   UNL     1      -0.545   2.298  -1.309  0.00  0.00    +0.256 C 
ATOM      3  O   UNL     1      -1.009   1.187  -1.453  0.00  0.00    -0.272 OA
ATOM      4  C   UNL     1      -1.302   3.573  -0.997  0.00  0.00    +0.164 C 
ATOM      5  N   UNL     1      -0.245   4.597  -0.934  0.00  0.00    -0.278 N 
ATOM      6  C   UNL     1       0.916   3.967  -1.186  0.00  0.00    +0.310 C 
ATOM      7  O   UNL     1       1.995   4.526  -1.215  0.00  0.00    -0.252 OA
ATOM      8  H   UNL     1      -0.364   5.543  -0.752  0.00  0.00    +0.152 HD
ENDROOT
BRANCH   4   9
ATOM      9  C   UNL     1      -2.285   3.889  -2.095  0.00  0.00    -0.011 A 
ATOM     10  C   UNL     1      -3.078   2.886  -2.622  0.00  0.00    +0.006 A 
ATOM     11  C   UNL     1      -3.982   3.176  -3.626  0.00  0.00    +0.000 A 
ATOM     12  C   UNL     1      -4.089   4.467  -4.109  0.00  0.00    +0.000 A 
ATOM     13  C   UNL     1      -3.293   5.468  -3.585  0.00  0.00    +0.000 A 
ATOM     14  C   UNL     1      -2.391   5.179  -2.578  0.00  0.00    +0.006 A 
ENDBRANCH   4   9
BRANCH   4  15
ATOM     15  C   UNL     1      -2.007   3.460   0.331  0.00  0.00    -0.011 A 
ATOM     16  C   UNL     1      -3.002   2.517   0.507  0.00  0.00    +0.006 A 
ATOM     17  C   UNL     1      -3.645   2.410   1.726  0.00  0.00    +0.000 A 
ATOM     18  C   UNL     1      -3.299   3.252   2.766  0.00  0.00    +0.000 A 
ATOM     19  C   UNL     1      -2.307   4.199   2.588  0.00  0.00    +0.000 A 
ATOM     20  C   UNL     1      -1.661   4.303   1.371  0.00  0.00    +0.006 A 
ENDBRANCH   4  15
BRANCH   1  21
ATOM     21  C   UNL     1       1.843   1.728  -1.697  0.00  0.00    +0.214 C 
BRANCH  21  23
ATOM     22  N   UNL     1       3.011   0.860  -3.698  0.00  0.00    -0.284 N 
ATOM     23  C   UNL     1       2.052   1.658  -3.188  0.00  0.00    +0.235 C 
ATOM     24  O   UNL     1       1.356   2.319  -3.929  0.00  0.00    -0.274 OA
ATOM     25  H   UNL     1       3.616   0.388  -3.104  0.00  0.00    +0.155 HD
BRANCH  22  28
ATOM     26  C   UNL     1       5.556   0.141  -4.751  0.00  0.00    +0.048 C 
ATOM     27  C   UNL     1       4.359   0.363  -5.640  0.00  0.00    +0.001 A 
ATOM     28  C   UNL     1       3.135   0.713  -5.084  0.00  0.00    +0.039 A 
ATOM     29  C   UNL     1       2.037   0.922  -5.907  0.00  0.00    +0.024 A 
ATOM     30  C   UNL     1       2.163   0.776  -7.275  0.00  0.00    +0.004 A 
ATOM     31  C   UNL     1       3.381   0.422  -7.824  0.00  0.00    +0.033 A 
ATOM     32  C   UNL     1       4.477   0.213  -7.008  0.00  0.00    +0.131 A 
BRANCH  32  33
ATOM     33  N   UNL     1       5.779  -0.165  -7.600  0.00  0.00    +0.057 N 
ATOM     34  O   UNL     1       5.920  -0.167  -8.810  0.00  0.00    -0.126 OA
ATOM     35  O   UNL     1       6.710  -0.475  -6.878  0.00  0.00    -0.126 OA
ENDBRANCH  32  33
ENDBRANCH  22  28
ENDBRANCH  21  23
ENDBRANCH   1  21
TORSDOF 6
