REMARK  Name = ZINC35331793
REMARK  7 active torsions:
REMARK  status: ('A' for Active; 'I' for Inactive)
REMARK    1  A    between atoms: C_1  and  C_2
REMARK    2  A    between atoms: C_2  and  C_3
REMARK    3  A    between atoms: C_2  and  C_4
REMARK    4  A    between atoms: C_9  and  O_10
REMARK    5  A    between atoms: O_10  and  C_11
REMARK    6  A    between atoms: C_14  and  C_18
REMARK    7  A    between atoms: C_16  and  N_17
REMARK                            x       y       z     vdW  Elec       q    Type
REMARK                         _______ _______ _______ _____ _____    ______ ____
ROOT
ATOM      1  C   UNL     1      -1.485  -2.508  -2.997  0.00  0.00    +0.149 A 
ATOM      2  C   UNL     1      -1.269  -3.870  -2.838  0.00  0.00    +0.049 A 
ATOM      3  C   UNL     1      -1.723  -4.758  -3.788  0.00  0.00    +0.017 A 
ATOM      4  C   UNL     1      -2.403  -4.290  -4.915  0.00  0.00    +0.038 A 
ATOM      5  C   UNL     1      -2.622  -2.920  -5.077  0.00  0.00    +0.039 A 
ATOM      6  C   UNL     1      -2.169  -2.033  -4.117  0.00  0.00    +0.068 A 
ENDROOT
BRANCH   4   7
ATOM      7  C   UNL     1      -2.889  -5.242  -5.934  0.00  0.00    +0.242 C 
ATOM      8  O   UNL     1      -3.481  -4.833  -6.914  0.00  0.00    -0.270 OA
ATOM      9  N   UNL     1      -2.677  -6.563  -5.777  0.00  0.00    -0.325 N 
ATOM     10  H   UNL     1      -2.205  -6.889  -4.995  0.00  0.00    +0.145 HD
ATOM     11  H   UNL     1      -2.997  -7.189  -6.447  0.00  0.00    +0.145 HD
ENDBRANCH   4   7
BRANCH   6  12
ATOM     12  N   UNL     1      -2.391  -0.660  -4.271  0.00  0.00    -0.355 N 
ATOM     13  H   UNL     1      -2.070  -0.038  -3.600  0.00  0.00    +0.142 HD
ATOM     14  H   UNL     1      -2.867  -0.330  -5.050  0.00  0.00    +0.142 HD
ENDBRANCH   6  12
BRANCH   1  15
ATOM     15  O   UNL     1      -1.036  -1.636  -2.057  0.00  0.00    -0.454 OA
BRANCH  15  21
ATOM     16  C   UNL     1      -1.516  -0.290  -0.155  0.00  0.00    -0.003 A 
ATOM     17  C   UNL     1      -2.394   0.099   0.838  0.00  0.00    +0.007 A 
ATOM     18  C   UNL     1      -3.648  -0.478   0.918  0.00  0.00    +0.001 A 
ATOM     19  C   UNL     1      -4.026  -1.446   0.006  0.00  0.00    +0.004 A 
ATOM     20  C   UNL     1      -3.152  -1.838  -0.989  0.00  0.00    +0.046 A 
ATOM     21  C   UNL     1      -1.895  -1.256  -1.076  0.00  0.00    +0.132 A 
BRANCH  16  23
ATOM     22  C   UNL     1      -0.294   1.849  -0.442  0.00  0.00    +0.012 C 
ATOM     23  C   UNL     1      -0.149   0.339  -0.242  0.00  0.00    +0.016 C 
ATOM     24  C   UNL     1       0.621   0.067   1.051  0.00  0.00    +0.012 C 
ENDBRANCH  16  23
ENDBRANCH  15  21
ENDBRANCH   1  15
TORSDOF 5
