REMARK  Name = ZINC47137403
REMARK  7 active torsions:
REMARK  status: ('A' for Active; 'I' for Inactive)
REMARK    1  A    between atoms: C_3  and  C_6
REMARK    2  A    between atoms: C_6  and  N_7
REMARK    3  A    between atoms: C_11  and  C_12
REMARK    4  A    between atoms: C_17  and  O_18
REMARK    5  A    between atoms: N_22  and  N_23
REMARK    6  A    between atoms: C_24  and  C_25
REMARK    7  A    between atoms: C_28  and  O_31
REMARK                            x       y       z     vdW  Elec       q    Type
REMARK                         _______ _______ _______ _____ _____    ______ ____
ROOT
ATOM      1  N   UNL     1       3.819   0.133   1.060  0.00  0.00    -0.237 N 
ATOM      2  C   UNL     1       4.189   1.342   1.448  0.00  0.00    +0.259 C 
ATOM      3  O   UNL     1       4.047   2.312   0.727  0.00  0.00    -0.269 OA
ATOM      4  C   UNL     1       4.781   1.461   2.794  0.00  0.00    +0.078 C 
ATOM      5  C   UNL     1       5.241   2.564   3.438  0.00  0.00    +0.032 C 
ATOM      6  S   UNL     1       4.728  -0.237   3.349  0.00  0.00    -0.047 S 
ATOM      7  C   UNL     1       3.982  -0.952   1.893  0.00  0.00    +0.190 C 
ATOM      8  N   UNL     1       3.666  -2.212   1.668  0.00  0.00    -0.126 NA
ENDROOT
BRANCH   5   9
ATOM      9  C   UNL     1       5.615   2.484   4.856  0.00  0.00    +0.019 A 
ATOM     10  C   UNL     1       5.162   1.419   5.644  0.00  0.00    +0.026 A 
ATOM     11  C   UNL     1       5.518   1.351   6.974  0.00  0.00    +0.019 A 
ATOM     12  C   UNL     1       6.322   2.332   7.535  0.00  0.00    +0.019 A 
ATOM     13  C   UNL     1       6.776   3.388   6.767  0.00  0.00    +0.047 A 
ATOM     14  C   UNL     1       6.434   3.471   5.428  0.00  0.00    +0.124 A 
ATOM     15 BR   UNL     1       4.906  -0.087   8.039  0.00  0.00    -0.050 Br
BRANCH  14  16
ATOM     16  O   UNL     1       6.884   4.505   4.672  0.00  0.00    -0.506 OA
ATOM     17  H   UNL     1       6.298   5.274   4.669  0.00  0.00    +0.292 HD
ENDBRANCH  14  16
ENDBRANCH   5   9
BRANCH   8  18
ATOM     18  N   UNL     1       3.893  -3.105   2.572  0.00  0.00    -0.155 NA
ATOM     19  C   UNL     1       3.579  -4.354   2.349  0.00  0.00    +0.143 C 
BRANCH  19  20
ATOM     20  C   UNL     1       3.063  -4.759   1.033  0.00  0.00    -0.005 A 
ATOM     21  C   UNL     1       2.864  -6.114   0.745  0.00  0.00    +0.013 A 
ATOM     22  C   UNL     1       2.380  -6.488  -0.490  0.00  0.00    +0.046 A 
ATOM     23  C   UNL     1       2.090  -5.524  -1.447  0.00  0.00    +0.117 A 
ATOM     24  C   UNL     1       2.286  -4.178  -1.165  0.00  0.00    +0.046 A 
ATOM     25  C   UNL     1       2.765  -3.792   0.068  0.00  0.00    +0.013 A 
BRANCH  23  26
ATOM     26  O   UNL     1       1.614  -5.898  -2.663  0.00  0.00    -0.507 OA
ATOM     27  H   UNL     1       0.649  -5.951  -2.708  0.00  0.00    +0.292 HD
ENDBRANCH  23  26
ENDBRANCH  19  20
ENDBRANCH   8  18
BRANCH   1  28
ATOM     28  C   UNL     1       3.224  -0.053  -0.266  0.00  0.00    +0.190 C 
BRANCH  28  31
ATOM     29  C   UNL     1      -0.319   0.955  -0.156  0.00  0.00    +0.041 A 
ATOM     30  C   UNL     1       1.052   1.261  -0.321  0.00  0.00    +0.046 A 
ATOM     31  C   UNL     1       1.729   0.109  -0.173  0.00  0.00    +0.123 A 
ATOM     32  O   UNL     1       0.847  -0.874   0.071  0.00  0.00    -0.466 OA
ATOM     33  C   UNL     1      -0.397  -0.366   0.082  0.00  0.00    +0.195 A 
ENDBRANCH  28  31
ENDBRANCH   1  28
TORSDOF 7
