REMARK  Name = ZINC10065897
REMARK  8 active torsions:
REMARK  status: ('A' for Active; 'I' for Inactive)
REMARK    1  A    between atoms: C_1  and  N_60
REMARK    2  A    between atoms: C_2  and  N_60
REMARK    3  A    between atoms: C_3  and  C_4
REMARK    4  A    between atoms: C_3  and  N_60
REMARK    5  A    between atoms: C_4  and  N_5
REMARK    6  A    between atoms: C_16  and  C_18
REMARK    7  A    between atoms: C_21  and  S_24
REMARK    8  A    between atoms: S_24  and  N_27
REMARK                            x       y       z     vdW  Elec       q    Type
REMARK                         _______ _______ _______ _____ _____    ______ ____
ROOT
ATOM      1  N   UNL     1       0.224   1.365  -0.758  0.00  0.00    -0.248 N 
ATOM      2  C   UNL     1       1.337   2.144  -0.489  0.00  0.00    +0.168 A 
ATOM      3  N   UNL     1       1.504   3.433  -0.675  0.00  0.00    -0.223 NA
ATOM      4  C   UNL     1       2.653   4.069  -0.360  0.00  0.00    +0.099 A 
ATOM      5  C   UNL     1       3.677   3.254   0.174  0.00  0.00    +0.042 A 
ATOM      6  S   UNL     1       2.913   1.650   0.191  0.00  0.00    -0.052 S 
ATOM      7  C   UNL     1       4.904   3.750   0.539  0.00  0.00    +0.017 A 
ATOM      8  C   UNL     1       5.169   5.098   0.385  0.00  0.00    +0.003 A 
ATOM      9  C   UNL     1       4.188   5.929  -0.137  0.00  0.00    +0.022 A 
ATOM     10  C   UNL     1       2.959   5.443  -0.504  0.00  0.00    +0.067 A 
ATOM     11 CL   UNL     1       1.766   6.525  -1.152  0.00  0.00    -0.081 Cl
ATOM     12  C   UNL     1       0.250   0.043  -0.501  0.00  0.00    +0.252 C 
ATOM     13  O   UNL     1       1.268  -0.476  -0.086  0.00  0.00    -0.270 OA
ENDROOT
BRANCH  12  14
ATOM     14  C   UNL     1      -0.960  -0.777  -0.724  0.00  0.00    +0.037 A 
ATOM     15  C   UNL     1      -2.227  -0.200  -0.621  0.00  0.00    +0.015 A 
ATOM     16  C   UNL     1      -3.351  -0.969  -0.836  0.00  0.00    +0.029 A 
ATOM     17  C   UNL     1      -3.226  -2.313  -1.142  0.00  0.00    +0.106 A 
ATOM     18  C   UNL     1      -1.973  -2.893  -1.240  0.00  0.00    +0.029 A 
ATOM     19  C   UNL     1      -0.840  -2.133  -1.033  0.00  0.00    +0.015 A 
BRANCH  17  20
ATOM     20  S   UNL     1      -4.668  -3.290  -1.407  0.00  0.00    +0.061 S 
ATOM     21  O   UNL     1      -5.700  -2.394  -1.795  0.00  0.00    -0.153 OA
ATOM     22  O   UNL     1      -4.270  -4.390  -2.214  0.00  0.00    -0.153 OA
BRANCH  20  23
ATOM     23  N   UNL     1      -5.112  -3.916   0.060  0.00  0.00    -0.177 NA
ATOM     24  C   UNL     1      -4.591  -5.215   0.508  0.00  0.00    +0.109 C 
ATOM     25  C   UNL     1      -3.958  -5.035   1.896  0.00  0.00    +0.017 C 
ATOM     26  C   UNL     1      -4.986  -4.410   2.842  0.00  0.00    +0.003 C 
ATOM     27  C   UNL     1      -5.393  -3.032   2.317  0.00  0.00    +0.017 C 
ATOM     28  C   UNL     1      -6.038  -3.186   0.936  0.00  0.00    +0.109 C 
ENDBRANCH  20  23
ENDBRANCH  17  20
ENDBRANCH  12  14
BRANCH   1  29
ATOM     29  C   UNL     1      -0.979   1.978  -1.328  0.00  0.00    +0.097 C 
BRANCH  29  30
ATOM     30  C   UNL     1      -1.668   2.834  -0.264  0.00  0.00    -0.060 C 
BRANCH  30  33
ATOM     31  C   UNL     1      -3.911   2.607  -1.146  0.00  0.00    -0.097 C 
ATOM     32  C   UNL     1      -3.259   4.641  -0.007  0.00  0.00    -0.097 C 
ATOM     33  N   UNL     1      -2.801   3.548  -0.890  0.00  0.00    +0.377 N 
ATOM     34  H   UNL     1      -2.490   3.948  -1.783  0.00  0.00    -0.083 HD
ENDBRANCH  30  33
ENDBRANCH  29  30
ENDBRANCH   1  29
TORSDOF 6
