REMARK  Name = ZINC39024504
REMARK  9 active torsions:
REMARK  status: ('A' for Active; 'I' for Inactive)
REMARK    1  A    between atoms: C_1  and  O_2
REMARK    2  A    between atoms: O_2  and  C_3
REMARK    3  A    between atoms: C_6  and  C_18
REMARK    4  A    between atoms: C_8  and  C_9
REMARK    5  A    between atoms: C_9  and  N_10
REMARK    6  A    between atoms: C_12  and  N_15
REMARK    7  A    between atoms: C_25  and  O_30
REMARK    8  A    between atoms: O_30  and  C_31
REMARK    9  A    between atoms: C_31  and  C_32
REMARK                            x       y       z     vdW  Elec       q    Type
REMARK                         _______ _______ _______ _____ _____    ______ ____
ROOT
ATOM      1  C   UNL     1      -4.981  -2.629   0.034  0.00  0.00    +0.007 C 
ATOM      2  C   UNL     1      -5.559  -2.637  -1.361  0.00  0.00    +0.010 A 
ATOM      3  H   UNL     1      -3.953  -3.098  -2.606  0.00  0.00    +0.166 HD
ATOM      4  C   UNL     1      -6.862  -2.384  -1.619  0.00  0.00    -0.022 A 
ATOM      5  C   UNL     1      -7.043  -2.477  -3.050  0.00  0.00    +0.006 A 
ATOM      6  C   UNL     1      -8.158  -2.316  -3.879  0.00  0.00    +0.056 A 
ATOM      7  C   UNL     1      -7.953  -2.486  -5.241  0.00  0.00    +0.122 A 
ATOM      8  C   UNL     1      -6.704  -2.801  -5.760  0.00  0.00    +0.048 A 
ATOM      9  C   UNL     1      -5.591  -2.964  -4.955  0.00  0.00    +0.030 A 
ATOM     10  C   UNL     1      -5.768  -2.799  -3.583  0.00  0.00    +0.047 A 
ATOM     11  N   UNL     1      -4.897  -2.888  -2.532  0.00  0.00    -0.359 N 
ATOM     12  C   UNL     1      -7.872  -2.074  -0.542  0.00  0.00    +0.018 C 
ATOM     13  C   UNL     1      -7.260  -2.480   0.806  0.00  0.00    -0.076 C 
ATOM     14  N   UNL     1      -5.909  -1.917   0.926  0.00  0.00    +0.387 N 
ATOM     15  H   UNL     1      -5.590  -2.005   1.879  0.00  0.00    -0.084 HD
ATOM     16  H   UNL     1      -5.933  -0.940   0.672  0.00  0.00    -0.084 HD
ENDROOT
BRANCH   1  20
ATOM     17  C   UNL     1      -1.200  -0.637   0.010  0.00  0.00    +0.125 A 
ATOM     18  C   UNL     1      -2.375   0.101   0.019  0.00  0.00    +0.046 A 
ATOM     19  C   UNL     1      -3.596  -0.545   0.027  0.00  0.00    +0.006 A 
ATOM     20  C   UNL     1      -3.648  -1.927   0.026  0.00  0.00    -0.055 A 
ATOM     21  C   UNL     1      -2.479  -2.665   0.017  0.00  0.00    +0.011 A 
ATOM     22  C   UNL     1      -1.255  -2.023   0.003  0.00  0.00    +0.010 A 
BRANCH  17  24
ATOM     23  C   UNL     1      -0.017   1.425   0.010  0.00  0.00    +0.277 C 
ATOM     24  O   UNL     1       0.002  -0.004   0.002  0.00  0.00    -0.495 OA
ENDBRANCH  17  24
BRANCH  22  25
ATOM     25  C   UNL     1       0.018  -2.829  -0.013  0.00  0.00    +0.144 C 
BRANCH  25  26
ATOM     26  N   UNL     1       0.611  -2.780  -1.356  0.00  0.00    -0.219 NA
ATOM     27  C   UNL     1       1.830  -3.611  -1.427  0.00  0.00    +0.167 C 
ATOM     28  C   UNL     1       2.921  -2.640  -1.820  0.00  0.00    +0.134 C 
ATOM     29  C   UNL     1       2.353  -1.457  -1.940  0.00  0.00    +0.114 C 
ATOM     30  N   UNL     1       1.000  -1.510  -1.674  0.00  0.00    -0.282 N 
ATOM     31  H   UNL     1       0.403  -0.746  -1.708  0.00  0.00    +0.166 HD
BRANCH  28  32
ATOM     32  N   UNL     1       4.352  -2.957  -2.029  0.00  0.00    +0.055 N 
ATOM     33  O   UNL     1       5.126  -2.082  -2.344  0.00  0.00    -0.126 OA
ATOM     34  O   UNL     1       4.747  -4.090  -1.885  0.00  0.00    -0.126 OA
ENDBRANCH  28  32
ENDBRANCH  25  26
ENDBRANCH  22  25
ENDBRANCH   1  20
BRANCH   7  35
ATOM     35  O   UNL     1      -9.005  -2.340  -6.090  0.00  0.00    -0.487 OA
BRANCH  35  36
ATOM     36  C   UNL     1      -8.744  -2.525  -7.483  0.00  0.00    +0.264 C 
BRANCH  36  37
ATOM     37  C   UNL     1     -10.018  -2.326  -8.263  0.00  0.00    -0.010 A 
ATOM     38  C   UNL     1     -10.854  -3.399  -8.508  0.00  0.00    +0.007 A 
ATOM     39  C   UNL     1     -12.022  -3.216  -9.224  0.00  0.00    +0.000 A 
ATOM     40  C   UNL     1     -12.355  -1.960  -9.694  0.00  0.00    +0.000 A 
ATOM     41  C   UNL     1     -11.520  -0.886  -9.449  0.00  0.00    +0.000 A 
ATOM     42  C   UNL     1     -10.354  -1.068  -8.729  0.00  0.00    +0.007 A 
ENDBRANCH  36  37
ENDBRANCH  35  36
ENDBRANCH   7  35
TORSDOF 8
