REMARK  Name = ZINC09669683
REMARK  6 active torsions:
REMARK  status: ('A' for Active; 'I' for Inactive)
REMARK    1  A    between atoms: C_8  and  C_10
REMARK    2  A    between atoms: C_13  and  S_15
REMARK    3  A    between atoms: S_15  and  C_16
REMARK    4  A    between atoms: C_16  and  C_17
REMARK    5  A    between atoms: N_19  and  C_20
REMARK    6  A    between atoms: C_21  and  C_28
REMARK                            x       y       z     vdW  Elec       q    Type
REMARK                         _______ _______ _______ _____ _____    ______ ____
ROOT
ATOM      1  C   UNL     1      -3.551  11.730   0.105  0.00  0.00    +0.175 C 
ENDROOT
BRANCH   1   2
ATOM      2  C   UNL     1      -4.538  12.869   0.121  0.00  0.00    +0.228 C 
ATOM      3  O   UNL     1      -5.729  12.639   0.131  0.00  0.00    -0.275 OA
ATOM      4  N   UNL     1      -4.098  14.143   0.126  0.00  0.00    -0.279 N 
ATOM      5  H   UNL     1      -3.146  14.326   0.118  0.00  0.00    +0.155 HD
BRANCH   4   6
ATOM      6  C   UNL     1      -5.006  15.190   0.141  0.00  0.00    +0.084 A 
ATOM      7  C   UNL     1      -4.751  16.550   0.152  0.00  0.00    +0.068 A 
ATOM      8  C   UNL     1      -5.899  17.455   0.163  0.00  0.00    -0.023 A 
ATOM      9  C   UNL     1      -7.102  16.852   0.170  0.00  0.00    -0.004 A 
ATOM     10  S   UNL     1      -6.735  15.114   0.156  0.00  0.00    -0.077 S 
ATOM     11  C   UNL     1      -8.232  17.846   0.184  0.00  0.00    +0.043 C 
ATOM     12  C   UNL     1      -7.583  19.178  -0.252  0.00  0.00    +0.010 C 
ATOM     13  C   UNL     1      -6.117  18.969   0.177  0.00  0.00    +0.037 C 
BRANCH   7  14
ATOM     14  C   UNL     1      -3.378  17.065   0.150  0.00  0.00    +0.244 C 
ATOM     15  O   UNL     1      -2.814  17.290  -0.905  0.00  0.00    -0.270 OA
ATOM     16  N   UNL     1      -2.741  17.290   1.316  0.00  0.00    -0.325 N 
ATOM     17  H   UNL     1      -3.190  17.111   2.157  0.00  0.00    +0.145 HD
ATOM     18  H   UNL     1      -1.832  17.631   1.315  0.00  0.00    +0.145 HD
ENDBRANCH   7  14
ENDBRANCH   4   6
ENDBRANCH   1   2
BRANCH   1  19
ATOM     19  S   UNL     1      -4.445  10.156   0.103  0.00  0.00    -0.056 S 
BRANCH  19  23
ATOM     20  C   UNL     1      -1.892   7.234   0.061  0.00  0.00    +0.257 A 
ATOM     21  N   UNL     1      -1.102   8.283   0.065  0.00  0.00    -0.106 NA
ATOM     22  N   UNL     1      -1.814   9.354   0.074  0.00  0.00    -0.101 NA
ATOM     23  C   UNL     1      -3.087   9.033   0.084  0.00  0.00    +0.278 A 
ATOM     24  O   UNL     1      -3.166   7.689   0.076  0.00  0.00    -0.410 OA
BRANCH  20  32
ATOM     25  C   UNL     1       1.178   1.791   0.000  0.00  0.00    +0.001 A 
ATOM     26  C   UNL     1      -0.013   1.076   0.008  0.00  0.00    +0.001 A 
ATOM     27  C   UNL     1      -1.215   1.755   0.017  0.00  0.00    +0.016 A 
ATOM     28  C   UNL     1      -1.218   3.133   0.031  0.00  0.00    +0.021 A 
ATOM     29  C   UNL     1      -0.021   3.885   0.023  0.00  0.00    +0.008 A 
ATOM     30  C   UNL     1       1.190   3.150   0.008  0.00  0.00    +0.010 A 
ATOM     31  C   UNL     1      -0.207   5.325   0.033  0.00  0.00    +0.068 A 
ATOM     32  C   UNL     1      -1.470   5.826   0.048  0.00  0.00    +0.095 A 
ATOM     33  S   UNL     1      -2.493   4.366   0.050  0.00  0.00    -0.082 S 
ATOM     34 CL   UNL     1       1.163   6.391   0.026  0.00  0.00    -0.082 Cl
ENDBRANCH  20  32
ENDBRANCH  19  23
ENDBRANCH   1  19
TORSDOF 6
