REMARK  Name = ZINC64609785
REMARK  9 active torsions:
REMARK  status: ('A' for Active; 'I' for Inactive)
REMARK    1  A    between atoms: C_1  and  C_2
REMARK    2  A    between atoms: C_2  and  N_3
REMARK    3  A    between atoms: C_4  and  C_6
REMARK    4  A    between atoms: N_8  and  C_28
REMARK    5  A    between atoms: C_10  and  C_13
REMARK    6  A    between atoms: N_15  and  C_16
REMARK    7  A    between atoms: C_16  and  C_18
REMARK    8  A    between atoms: C_16  and  C_19
REMARK    9  A    between atoms: C_28  and  C_29
REMARK                            x       y       z     vdW  Elec       q    Type
REMARK                         _______ _______ _______ _____ _____    ______ ____
ROOT
ATOM      1  C   UNL     1       1.411  -2.275  -2.691  0.00  0.00    +0.100 A 
ATOM      2  C   UNL     1       1.476  -3.622  -2.977  0.00  0.00    +0.103 A 
ATOM      3  N   UNL     1       2.022  -4.069  -4.119  0.00  0.00    -0.347 N 
ATOM      4  C   UNL     1       2.538  -3.259  -5.058  0.00  0.00    +0.103 A 
ATOM      5  C   UNL     1       2.540  -1.890  -4.903  0.00  0.00    +0.100 A 
ATOM      6  C   UNL     1       1.952  -1.325  -3.677  0.00  0.00    +0.206 A 
ATOM      7  O   UNL     1       1.919  -0.121  -3.484  0.00  0.00    -0.286 OA
ENDROOT
BRANCH   1   9
ATOM      8  N   UNL     1       0.652  -0.477  -1.221  0.00  0.00    -0.311 N 
ATOM      9  C   UNL     1       0.809  -1.798  -1.434  0.00  0.00    +0.249 C 
ATOM     10  O   UNL     1       0.455  -2.597  -0.588  0.00  0.00    -0.270 OA
ATOM     11  H   UNL     1       1.002   0.163  -1.861  0.00  0.00    +0.149 HD
BRANCH   8  13
ATOM     12  C   UNL     1      -0.086   1.524  -0.023  0.00  0.00    +0.024 C 
ATOM     13  C   UNL     1      -0.046  -0.006  -0.022  0.00  0.00    +0.101 C 
ENDBRANCH   8  13
ENDBRANCH   1   9
BRANCH   5  14
ATOM     14  C   UNL     1       3.110  -1.014  -5.941  0.00  0.00    +0.250 C 
ATOM     15  O   UNL     1       3.494  -1.487  -6.993  0.00  0.00    -0.270 OA
ATOM     16  N   UNL     1       3.207   0.313  -5.723  0.00  0.00    -0.305 N 
ATOM     17  H   UNL     1       2.835   0.701  -4.916  0.00  0.00    +0.149 HD
BRANCH  16  18
ATOM     18  C   UNL     1       3.875   1.169  -6.707  0.00  0.00    +0.113 C 
ATOM     19  C   UNL     1       5.383   1.165  -6.446  0.00  0.00    +0.032 C 
BRANCH  18  20
ATOM     20  C   UNL     1       3.341   2.598  -6.585  0.00  0.00    +0.194 C 
ATOM     21  N   UNL     1       1.908   2.629  -6.904  0.00  0.00    -0.362 N 
ATOM     22  C   UNL     1       1.754   3.412  -7.932  0.00  0.00    +0.060 A 
ATOM     23  C   UNL     1       0.573   3.833  -8.699  0.00  0.00    +0.027 A 
ATOM     24  C   UNL     1       0.723   4.674  -9.742  0.00  0.00    +0.002 A 
ATOM     25  C   UNL     1       1.975   5.176 -10.138  0.00  0.00    +0.002 A 
ATOM     26  C   UNL     1       3.120   4.853  -9.504  0.00  0.00    +0.027 A 
ATOM     27  C   UNL     1       3.080   3.943  -8.351  0.00  0.00    +0.060 A 
ATOM     28  N   UNL     1       4.002   3.468  -7.566  0.00  0.00    -0.362 N 
ATOM     29  H   UNL     1       1.205   2.153  -6.435  0.00  0.00    +0.162 HD
ATOM     30  H   UNL     1       4.953   3.655  -7.618  0.00  0.00    +0.162 HD
ENDBRANCH  18  20
ENDBRANCH  16  18
ENDBRANCH   5  14
BRANCH   3  31
ATOM     31  C   UNL     1       2.056  -5.515  -4.353  0.00  0.00    +0.156 C 
BRANCH  31  32
ATOM     32  C   UNL     1       0.799  -5.938  -5.068  0.00  0.00    -0.028 A 
ATOM     33  C   UNL     1      -0.317  -6.311  -4.342  0.00  0.00    +0.005 A 
ATOM     34  C   UNL     1      -1.470  -6.699  -4.998  0.00  0.00    +0.000 A 
ATOM     35  C   UNL     1      -1.508  -6.715  -6.380  0.00  0.00    +0.000 A 
ATOM     36  C   UNL     1      -0.392  -6.342  -7.106  0.00  0.00    +0.000 A 
ATOM     37  C   UNL     1       0.760  -5.949  -6.450  0.00  0.00    +0.005 A 
ENDBRANCH  31  32
ENDBRANCH   3  31
TORSDOF 7
