REMARK  Name = ZINC41512903
REMARK  10 active torsions:
REMARK  status: ('A' for Active; 'I' for Inactive)
REMARK    1  A    between atoms: C_1  and  C_2
REMARK    2  A    between atoms: C_2  and  N_3
REMARK    3  A    between atoms: C_5  and  C_14
REMARK    4  A    between atoms: C_10  and  O_12
REMARK    5  A    between atoms: O_12  and  C_13
REMARK    6  A    between atoms: C_19  and  C_34
REMARK    7  A    between atoms: C_21  and  O_33
REMARK    8  A    between atoms: C_22  and  C_25
REMARK    9  A    between atoms: C_25  and  N_26
REMARK   10  A    between atoms: C_29  and  C_32
REMARK                            x       y       z     vdW  Elec       q    Type
REMARK                         _______ _______ _______ _____ _____    ______ ____
ROOT
ATOM      1  C   UNL     1      -4.364  -1.773   1.678  0.00  0.00    +0.060 C 
ATOM      2  C   UNL     1      -4.137  -1.820   3.021  0.00  0.00    +0.176 C 
ATOM      3  C   UNL     1      -5.062  -2.261   4.004  0.00  0.00    +0.232 C 
ATOM      4  O   UNL     1      -6.198  -2.668   3.823  0.00  0.00    -0.283 OA
ATOM      5  C   UNL     1      -4.354  -2.123   5.289  0.00  0.00    +0.071 A 
ATOM      6  C   UNL     1      -4.707  -2.385   6.613  0.00  0.00    -0.033 A 
ATOM      7  C   UNL     1      -3.810  -2.149   7.615  0.00  0.00    +0.050 A 
ATOM      8  C   UNL     1      -2.545  -1.647   7.320  0.00  0.00    +0.122 A 
ATOM      9  C   UNL     1      -2.181  -1.382   6.010  0.00  0.00    +0.020 A 
ATOM     10  C   UNL     1      -3.081  -1.618   4.980  0.00  0.00    +0.145 A 
ATOM     11  O   UNL     1      -2.990  -1.458   3.642  0.00  0.00    -0.451 OA
ATOM     12  C   UNL     1      -6.076  -2.927   6.936  0.00  0.00    +0.045 C 
ENDROOT
BRANCH   1  15
ATOM     13  N   UNL     1      -1.372  -0.511   0.012  0.00  0.00    -0.346 N 
ATOM     14  C   UNL     1      -2.055  -0.870   1.127  0.00  0.00    +0.094 A 
ATOM     15  C   UNL     1      -3.316  -1.300   0.776  0.00  0.00    +0.004 A 
ATOM     16  C   UNL     1      -3.398  -1.188  -0.693  0.00  0.00    +0.011 A 
ATOM     17  C   UNL     1      -2.156  -0.685  -1.112  0.00  0.00    +0.050 A 
ATOM     18  C   UNL     1      -1.930  -0.464  -2.467  0.00  0.00    +0.030 A 
ATOM     19  C   UNL     1      -2.922  -0.735  -3.385  0.00  0.00    +0.047 A 
ATOM     20  C   UNL     1      -4.154  -1.230  -2.970  0.00  0.00    +0.121 A 
ATOM     21  C   UNL     1      -4.392  -1.464  -1.628  0.00  0.00    +0.056 A 
BRANCH  13  23
ATOM     22  C   UNL     1      -0.019   1.526   0.010  0.00  0.00    +0.027 C 
ATOM     23  C   UNL     1       0.002  -0.004   0.002  0.00  0.00    +0.118 C 
ENDBRANCH  13  23
BRANCH  20  24
ATOM     24  O   UNL     1      -5.122  -1.493  -3.887  0.00  0.00    -0.495 OA
ATOM     25  C   UNL     1      -4.806  -1.237  -5.256  0.00  0.00    +0.277 C 
ENDBRANCH  20  24
ENDBRANCH   1  15
BRANCH   8  26
ATOM     26  O   UNL     1      -1.662  -1.415   8.325  0.00  0.00    -0.506 OA
ATOM     27  H   UNL     1      -1.098  -2.171   8.535  0.00  0.00    +0.292 HD
ENDBRANCH   8  26
BRANCH   9  28
ATOM     28  C   UNL     1      -0.809  -0.839   5.704  0.00  0.00    -0.036 C 
BRANCH  28  29
ATOM     29  N   UNL     1       0.120  -1.954   5.478  0.00  0.00    +0.383 N 
ATOM     30  C   UNL     1      -0.290  -2.695   4.279  0.00  0.00    -0.078 C 
ATOM     31  C   UNL     1       0.626  -3.905   4.085  0.00  0.00    -0.016 C 
ATOM     32  C   UNL     1       2.071  -3.424   3.920  0.00  0.00    -0.018 C 
ATOM     33  C   UNL     1       2.463  -2.590   5.143  0.00  0.00    -0.016 C 
ATOM     34  C   UNL     1       1.479  -1.428   5.298  0.00  0.00    -0.078 C 
ATOM     35  C   UNL     1       3.002  -4.632   3.805  0.00  0.00    +0.007 C 
ATOM     36  H   UNL     1       0.103  -2.572   6.275  0.00  0.00    -0.081 HD
ENDBRANCH  28  29
ENDBRANCH   9  28
TORSDOF 6
