REMARK  Name = ZINC08645722
REMARK  8 active torsions:
REMARK  status: ('A' for Active; 'I' for Inactive)
REMARK    1  A    between atoms: C_1  and  C_2
REMARK    2  A    between atoms: C_2  and  C_4
REMARK    3  A    between atoms: C_2  and  N_14
REMARK    4  A    between atoms: C_15  and  C_17
REMARK    5  A    between atoms: C_17  and  N_18
REMARK    6  A    between atoms: C_21  and  C_25
REMARK    7  A    between atoms: C_21  and  C_26
REMARK    8  A    between atoms: C_29  and  N_32
REMARK                            x       y       z     vdW  Elec       q    Type
REMARK                         _______ _______ _______ _____ _____    ______ ____
ROOT
ATOM      1  N   UNL     1       0.355   2.760  -1.860  0.00  0.00    -0.215 N 
ATOM      2  C   UNL     1      -0.619   2.035  -1.276  0.00  0.00    +0.251 C 
ATOM      3  O   UNL     1      -1.742   1.847  -1.692  0.00  0.00    -0.272 OA
ATOM      4  C   UNL     1      -0.018   1.503   0.010  0.00  0.00    +0.135 C 
ATOM      5  N   UNL     1       1.353   2.040   0.000  0.00  0.00    -0.281 N 
ATOM      6  C   UNL     1       1.476   2.759  -1.130  0.00  0.00    +0.310 C 
ATOM      7  O   UNL     1       2.492   3.344  -1.451  0.00  0.00    -0.252 OA
ATOM      8  C   UNL     1      -0.791   2.022   1.224  0.00  0.00    +0.047 C 
ATOM      9  H   UNL     1       2.035   1.901   0.676  0.00  0.00    +0.152 HD
ENDROOT
BRANCH   4  10
ATOM     10  C   UNL     1       0.002  -0.004   0.002  0.00  0.00    -0.015 A 
ATOM     11  C   UNL     1      -1.018  -0.706  -0.612  0.00  0.00    +0.008 A 
ATOM     12  C   UNL     1      -0.998  -2.088  -0.623  0.00  0.00    +0.033 A 
ATOM     13  C   UNL     1       0.039  -2.768  -0.013  0.00  0.00    +0.126 A 
ATOM     14  C   UNL     1       1.057  -2.067   0.606  0.00  0.00    +0.033 A 
ATOM     15  C   UNL     1       1.038  -0.685   0.613  0.00  0.00    +0.008 A 
BRANCH  13  16
ATOM     16  N   UNL     1       0.059  -4.248  -0.021  0.00  0.00    +0.056 N 
ATOM     17  O   UNL     1       0.973  -4.848   0.517  0.00  0.00    -0.126 OA
ATOM     18  O   UNL     1      -0.838  -4.867  -0.565  0.00  0.00    -0.126 OA
ENDBRANCH  13  16
ENDBRANCH   4  10
BRANCH   1  19
ATOM     19  C   UNL     1       0.206   3.461  -3.138  0.00  0.00    +0.213 C 
BRANCH  19  21
ATOM     20  N   UNL     1       0.546   2.975  -5.539  0.00  0.00    -0.307 N 
ATOM     21  C   UNL     1       0.603   2.542  -4.264  0.00  0.00    +0.231 C 
ATOM     22  O   UNL     1       0.975   1.413  -4.024  0.00  0.00    -0.274 OA
ATOM     23  H   UNL     1       0.249   3.878  -5.732  0.00  0.00    +0.149 HD
BRANCH  20  25
ATOM     24  C   UNL     1       2.447   2.147  -6.835  0.00  0.00    +0.033 C 
ATOM     25  C   UNL     1       0.932   2.082  -6.635  0.00  0.00    +0.100 C 
BRANCH  25  26
ATOM     26  C   UNL     1       0.239   2.512  -7.902  0.00  0.00    -0.027 A 
ATOM     27  C   UNL     1       0.112   3.870  -8.188  0.00  0.00    +0.006 A 
ATOM     28  C   UNL     1      -0.509   4.292  -9.323  0.00  0.00    +0.009 A 
ATOM     29  C   UNL     1      -1.031   3.346 -10.223  0.00  0.00    -0.018 A 
ATOM     30  C   UNL     1      -1.678   3.743 -11.405  0.00  0.00    +0.008 A 
ATOM     31  C   UNL     1      -2.171   2.800 -12.253  0.00  0.00    +0.001 A 
ATOM     32  C   UNL     1      -2.044   1.441 -11.966  0.00  0.00    +0.001 A 
ATOM     33  C   UNL     1      -1.423   1.020 -10.831  0.00  0.00    +0.008 A 
ATOM     34  C   UNL     1      -0.902   1.965  -9.932  0.00  0.00    -0.018 A 
ATOM     35  C   UNL     1      -0.250   1.568  -8.752  0.00  0.00    +0.014 A 
ENDBRANCH  25  26
ENDBRANCH  20  25
ENDBRANCH  19  21
ENDBRANCH   1  19
TORSDOF 6
