REMARK  Name = ZINC20102720
REMARK  6 active torsions:
REMARK  status: ('A' for Active; 'I' for Inactive)
REMARK    1  A    between atoms: C_3  and  N_20
REMARK    2  A    between atoms: C_5  and  N_7
REMARK    3  A    between atoms: C_8  and  C_10
REMARK    4  A    between atoms: C_21  and  C_23
REMARK    5  A    between atoms: C_23  and  S_24
REMARK    6  A    between atoms: S_24  and  C_25
REMARK                            x       y       z     vdW  Elec       q    Type
REMARK                         _______ _______ _______ _____ _____    ______ ____
ROOT
ATOM      1  C   UNL     1      -2.422   9.318  -2.015  0.00  0.00    +0.004 A 
ATOM      2  C   UNL     1      -2.418   9.959  -0.791  0.00  0.00    +0.023 A 
ATOM      3  C   UNL     1      -2.316   9.221   0.382  0.00  0.00    +0.035 A 
ATOM      4  C   UNL     1      -2.224   7.837   0.323  0.00  0.00    +0.046 A 
ATOM      5  C   UNL     1      -2.222   7.197  -0.908  0.00  0.00    +0.035 A 
ATOM      6  C   UNL     1      -2.325   7.941  -2.077  0.00  0.00    +0.023 A 
ENDROOT
BRANCH   5   7
ATOM      7  N   UNL     1      -2.123   5.803  -0.972  0.00  0.00    -0.285 N 
ATOM      8  C   UNL     1      -1.392   5.136  -0.056  0.00  0.00    +0.223 C 
ATOM      9  O   UNL     1      -0.746   5.750   0.767  0.00  0.00    -0.275 OA
ATOM     10  H   UNL     1      -2.641   5.250  -1.769  0.00  0.00    +0.155 HD
BRANCH   8  11
ATOM     11  C   UNL     1      -1.377   3.630  -0.055  0.00  0.00    +0.048 C 
ATOM     12  C   UNL     1      -0.840   3.124  -1.395  0.00  0.00    +0.019 C 
ATOM     13  C   UNL     1      -0.825   1.594  -1.394  0.00  0.00    -0.009 C 
ATOM     14  C   UNL     1       0.075   1.093  -0.263  0.00  0.00    +0.007 C 
ATOM     15  C   UNL     1      -0.462   1.599   1.078  0.00  0.00    -0.009 C 
ATOM     16  C   UNL     1      -0.477   3.129   1.077  0.00  0.00    +0.019 C 
ATOM     17  C   UNL     1      -1.884   1.075   1.288  0.00  0.00    +0.007 C 
ATOM     18  C   UNL     1      -2.784   1.576   0.156  0.00  0.00    -0.009 C 
ATOM     19  C   UNL     1      -2.247   1.070  -1.185  0.00  0.00    +0.007 C 
ATOM     20  C   UNL     1      -2.799   3.106   0.155  0.00  0.00    +0.019 C 
ENDBRANCH   8  11
ENDBRANCH   5   7
BRANCH   3  21
ATOM     21  N   UNL     1      -2.312   9.871   1.621  0.00  0.00    -0.285 N 
ATOM     22  C   UNL     1      -3.066  10.973   1.806  0.00  0.00    +0.227 C 
ATOM     23  O   UNL     1      -3.681  11.450   0.876  0.00  0.00    -0.275 OA
ATOM     24  H   UNL     1      -1.695   9.482   2.444  0.00  0.00    +0.155 HD
BRANCH  22  25
ATOM     25  C   UNL     1      -3.143  11.613   3.168  0.00  0.00    +0.172 C 
BRANCH  25  26
ATOM     26  S   UNL     1      -4.224  13.062   3.093  0.00  0.00    -0.090 S 
BRANCH  26  27
ATOM     27  C   UNL     1      -4.134  13.598   4.769  0.00  0.00    +0.126 C 
ATOM     28  N   UNL     1      -3.457  13.049   5.729  0.00  0.00    -0.270 NA
ATOM     29  C   UNL     1      -3.461  13.582   7.072  0.00  0.00    +0.154 C 
ATOM     30  C   UNL     1      -4.342  14.843   7.212  0.00  0.00    +0.099 C 
ATOM     31  S   UNL     1      -4.950  15.009   5.489  0.00  0.00    -0.098 S 
ENDBRANCH  26  27
ENDBRANCH  25  26
ENDBRANCH  22  25
ENDBRANCH   3  21
TORSDOF 6
