REMARK  Name = ZINC22297343
REMARK  7 active torsions:
REMARK  status: ('A' for Active; 'I' for Inactive)
REMARK    1  A    between atoms: C_1  and  C_2
REMARK    2  A    between atoms: C_12  and  C_14
REMARK    3  A    between atoms: C_14  and  C_16
REMARK    4  A    between atoms: C_14  and  S_17
REMARK    5  A    between atoms: S_17  and  C_18
REMARK    6  A    between atoms: C_21  and  C_24
REMARK    7  A    between atoms: N_22  and  N_23
REMARK                            x       y       z     vdW  Elec       q    Type
REMARK                         _______ _______ _______ _____ _____    ______ ____
ROOT
ATOM      1  S   UNL     1       1.286   3.031  -0.039  0.00  0.00    -0.072 S 
ENDROOT
BRANCH   1   2
ATOM      2  C   UNL     1       0.606   1.405  -0.064  0.00  0.00    +0.209 A 
ATOM      3  N   UNL     1      -0.668   1.094  -0.138  0.00  0.00    -0.121 NA
ATOM      4  N   UNL     1      -0.812  -0.183  -0.135  0.00  0.00    -0.127 NA
ATOM      5  C   UNL     1       0.362  -0.766  -0.058  0.00  0.00    +0.183 A 
ATOM      6  N   UNL     1       1.307   0.234  -0.010  0.00  0.00    -0.224 N 
BRANCH   5   7
ATOM      7  C   UNL     1       0.621  -2.221  -0.028  0.00  0.00    +0.035 A 
ATOM      8  C   UNL     1       1.930  -2.699   0.050  0.00  0.00    +0.013 A 
ATOM      9  C   UNL     1       2.164  -4.058   0.083  0.00  0.00    +0.001 A 
ATOM     10  C   UNL     1       1.106  -4.947   0.027  0.00  0.00    +0.001 A 
ATOM     11  C   UNL     1      -0.194  -4.481  -0.056  0.00  0.00    +0.016 A 
ATOM     12  C   UNL     1      -0.443  -3.124  -0.085  0.00  0.00    +0.029 A 
ATOM     13 BR   UNL     1      -2.220  -2.488  -0.200  0.00  0.00    -0.050 Br
ENDBRANCH   5   7
BRANCH   6  14
ATOM     14  N   UNL     1       2.662   0.085   0.073  0.00  0.00    -0.295 N 
ATOM     15  H   UNL     1       3.104  -0.921   0.110  0.00  0.00    +0.163 HD
ATOM     16  H   UNL     1       3.312   0.973   0.104  0.00  0.00    +0.163 HD
ENDBRANCH   6  14
ENDBRANCH   1   2
BRANCH   1  17
ATOM     17  C   UNL     1      -0.235   4.008  -0.140  0.00  0.00    +0.137 C 
ATOM     18  C   UNL     1      -0.913   3.757  -1.489  0.00  0.00    +0.029 C 
BRANCH  17  29
ATOM     19  C   UNL     1      -1.899   5.047   2.278  0.00  0.00    +0.029 C 
ATOM     20  C   UNL     1      -2.107   5.944   1.056  0.00  0.00    +0.083 C 
ATOM     21  C   UNL     1      -2.773   7.265   1.475  0.00  0.00    +0.059 C 
ATOM     22  C   UNL     1      -1.777   8.334   1.085  0.00  0.00    -0.024 A 
ATOM     23  C   UNL     1      -1.828   9.709   1.212  0.00  0.00    +0.005 A 
ATOM     24  C   UNL     1      -0.773  10.486   0.773  0.00  0.00    +0.000 A 
ATOM     25  C   UNL     1       0.336   9.884   0.207  0.00  0.00    +0.002 A 
ATOM     26  C   UNL     1       0.391   8.513   0.079  0.00  0.00    +0.024 A 
ATOM     27  C   UNL     1      -0.671   7.721   0.519  0.00  0.00    +0.040 A 
ATOM     28  N   UNL     1      -0.815   6.330   0.483  0.00  0.00    -0.267 N 
ATOM     29  C   UNL     1       0.099   5.472  -0.010  0.00  0.00    +0.233 C 
ATOM     30  O   UNL     1       1.191   5.877  -0.350  0.00  0.00    -0.274 OA
ENDBRANCH  17  29
ENDBRANCH   1  17
TORSDOF 5
