REMARK  Name = ZINC15033665
REMARK  5 active torsions:
REMARK  status: ('A' for Active; 'I' for Inactive)
REMARK    1  A    between atoms: C_4  and  C_7
REMARK    2  A    between atoms: C_16  and  C_17
REMARK    3  A    between atoms: C_16  and  N_49
REMARK    4  A    between atoms: N_22  and  C_23
REMARK    5  A    between atoms: C_23  and  C_24
REMARK                            x       y       z     vdW  Elec       q    Type
REMARK                         _______ _______ _______ _____ _____    ______ ____
ROOT
ATOM      1  C   UNL     1      -6.290  -4.304  -5.881  0.00  0.00    -0.005 C 
ATOM      2  C   UNL     1      -7.494  -5.240  -5.817  0.00  0.00    -0.047 A 
ATOM      3  C   UNL     1      -8.488  -5.294  -6.790  0.00  0.00    +0.010 A 
ATOM      4  C   UNL     1      -9.524  -6.155  -6.653  0.00  0.00    +0.045 A 
ATOM      5  S   UNL     1      -9.136  -6.954  -5.103  0.00  0.00    -0.101 S 
ATOM      6  C   UNL     1      -7.633  -6.086  -4.757  0.00  0.00    -0.010 A 
ATOM      7  C   UNL     1      -6.705  -6.218  -3.594  0.00  0.00    +0.024 C 
ATOM      8  C   UNL     1      -5.393  -5.502  -3.958  0.00  0.00    -0.072 C 
ATOM      9  N   UNL     1      -5.736  -4.171  -4.513  0.00  0.00    +0.393 N 
ATOM     10  H   UNL     1      -6.442  -3.733  -3.911  0.00  0.00    -0.080 HD
ENDROOT
BRANCH   1  14
ATOM     11  C   UNL     1      -7.541  -0.453  -7.239  0.00  0.00    +0.000 A 
ATOM     12  C   UNL     1      -6.929  -1.329  -8.115  0.00  0.00    +0.000 A 
ATOM     13  C   UNL     1      -6.525  -2.576  -7.676  0.00  0.00    +0.002 A 
ATOM     14  C   UNL     1      -6.731  -2.946  -6.360  0.00  0.00    -0.057 A 
ATOM     15  C   UNL     1      -7.347  -2.071  -5.485  0.00  0.00    +0.002 A 
ATOM     16  C   UNL     1      -7.748  -0.822  -5.923  0.00  0.00    +0.000 A 
ENDBRANCH   1  14
BRANCH   9  17
ATOM     17  C   UNL     1      -4.534  -3.314  -4.541  0.00  0.00    +0.020 C 
BRANCH  17  18
ATOM     18  C   UNL     1      -4.118  -3.022  -3.122  0.00  0.00    +0.204 C 
ATOM     19  O   UNL     1      -4.742  -3.497  -2.197  0.00  0.00    -0.277 OA
ATOM     20  N   UNL     1      -3.051  -2.234  -2.881  0.00  0.00    -0.242 N 
ATOM     21  C   UNL     1      -2.679  -1.974  -1.612  0.00  0.00    +0.306 C 
ATOM     22  O   UNL     1      -3.305  -2.449  -0.685  0.00  0.00    -0.252 OA
ATOM     23  N   UNL     1      -1.613  -1.185  -1.371  0.00  0.00    -0.292 N 
ATOM     24  H   UNL     1      -2.552  -1.855  -3.621  0.00  0.00    +0.159 HD
ATOM     25  H   UNL     1      -1.113  -0.806  -2.111  0.00  0.00    +0.151 HD
BRANCH  23  26
ATOM     26  C   UNL     1      -1.208  -0.902   0.008  0.00  0.00    +0.180 C 
BRANCH  26  27
ATOM     27  C   UNL     1       0.002  -0.004   0.002  0.00  0.00    +0.122 A 
ATOM     28  C   UNL     1      -0.016   1.341   0.009  0.00  0.00    +0.046 A 
ATOM     29  C   UNL     1       1.331   1.769  -0.001  0.00  0.00    +0.041 A 
ATOM     30  C   UNL     1       2.092   0.660  -0.014  0.00  0.00    +0.195 A 
ATOM     31  O   UNL     1       1.282  -0.411  -0.012  0.00  0.00    -0.466 OA
ENDBRANCH  26  27
ENDBRANCH  23  26
ENDBRANCH  17  18
ENDBRANCH   9  17
TORSDOF 5
