REMARK  Name = ZINC37906247
REMARK  3 active torsions:
REMARK  status: ('A' for Active; 'I' for Inactive)
REMARK    1  A    between atoms: C_3  and  C_9
REMARK    2  A    between atoms: C_9  and  N_10
REMARK    3  A    between atoms: C_19  and  N_20
REMARK                            x       y       z     vdW  Elec       q    Type
REMARK                         _______ _______ _______ _____ _____    ______ ____
ROOT
ATOM      1  N   UNL     1       4.343   2.027   1.269  0.00  0.00    -0.325 N 
ATOM      2  C   UNL     1       4.047   2.936   2.384  0.00  0.00    +0.106 C 
ATOM      3  C   UNL     1       5.381   3.339   3.027  0.00  0.00    +0.024 C 
ATOM      4  C   UNL     1       6.048   2.090   3.603  0.00  0.00    +0.040 C 
ATOM      5  C   UNL     1       6.112   1.001   2.565  0.00  0.00    -0.006 A 
ATOM      6  C   UNL     1       5.273   0.999   1.462  0.00  0.00    +0.035 A 
ATOM      7  C   UNL     1       5.351  -0.027   0.526  0.00  0.00    +0.023 A 
ATOM      8  C   UNL     1       6.263  -1.051   0.692  0.00  0.00    +0.004 A 
ATOM      9  C   UNL     1       7.101  -1.057   1.790  0.00  0.00    +0.023 A 
ATOM     10  C   UNL     1       7.034  -0.029   2.726  0.00  0.00    +0.030 A 
ENDROOT
BRANCH  10  11
ATOM     11  N   UNL     1       7.882  -0.037   3.836  0.00  0.00    -0.358 N 
ATOM     12  H   UNL     1       7.828   0.674   4.493  0.00  0.00    +0.142 HD
ATOM     13  H   UNL     1       8.525  -0.755   3.949  0.00  0.00    +0.142 HD
ENDBRANCH  10  11
BRANCH   1  14
ATOM     14  C   UNL     1       3.671   2.190  -0.023  0.00  0.00    +0.143 C 
BRANCH  14  17
ATOM     15  C   UNL     1       6.097   3.092  -2.772  0.00  0.00    +0.003 A 
ATOM     16  C   UNL     1       5.292   2.356  -1.922  0.00  0.00    +0.008 A 
ATOM     17  C   UNL     1       4.548   2.993  -0.948  0.00  0.00    +0.008 A 
ATOM     18  C   UNL     1       4.608   4.370  -0.822  0.00  0.00    +0.163 A 
ATOM     19  C   UNL     1       5.415   5.109  -1.674  0.00  0.00    +0.159 A 
ATOM     20  C   UNL     1       6.159   4.467  -2.649  0.00  0.00    +0.041 A 
ATOM     21  F   UNL     1       5.474   6.453  -1.553  0.00  0.00    -0.202 F 
ATOM     22  F   UNL     1       3.880   4.995   0.130  0.00  0.00    -0.202 F 
ENDBRANCH  14  17
ENDBRANCH   1  14
TORSDOF 3
