REMARK  Name = ZINC39652717
REMARK  12 active torsions:
REMARK  status: ('A' for Active; 'I' for Inactive)
REMARK    1  A    between atoms: C_1  and  C_2
REMARK    2  A    between atoms: C_2  and  O_3
REMARK    3  A    between atoms: O_3  and  C_4
REMARK    4  A    between atoms: C_9  and  C_10
REMARK    5  A    between atoms: C_10  and  C_11
REMARK    6  A    between atoms: C_11  and  N_12
REMARK    7  A    between atoms: C_13  and  C_15
REMARK    8  A    between atoms: C_26  and  C_28
REMARK    9  A    between atoms: C_32  and  O_35
REMARK   10  A    between atoms: C_33  and  C_34
REMARK   11  A    between atoms: O_35  and  C_36
REMARK   12  A    between atoms: C_36  and  C_38
REMARK                            x       y       z     vdW  Elec       q    Type
REMARK                         _______ _______ _______ _____ _____    ______ ____
ROOT
ATOM      1  C   UNL     1       6.204   1.661  -4.296  0.00  0.00    +0.100 C 
ATOM      2  C   UNL     1       5.223   2.799  -4.657  0.00  0.00    +0.121 C 
ATOM      3  N   UNL     1       5.600   3.917  -3.759  0.00  0.00    -0.296 N 
ATOM      4  C   UNL     1       7.082   3.872  -3.718  0.00  0.00    +0.115 C 
ATOM      5  C   UNL     1       7.424   2.369  -3.684  0.00  0.00    -0.004 C 
ATOM      6  C   UNL     1       8.670   2.092  -4.520  0.00  0.00    -0.010 C 
ATOM      7  C   UNL     1       9.880   2.758  -3.859  0.00  0.00    -0.082 C 
ATOM      8  N   UNL     1      10.050   2.230  -2.500  0.00  0.00    +0.379 N 
ATOM      9  C   UNL     1       8.887   2.583  -1.677  0.00  0.00    -0.082 C 
ATOM     10  C   UNL     1       7.635   1.909  -2.245  0.00  0.00    -0.010 C 
ATOM     11  C   UNL     1       4.782   4.778  -3.124  0.00  0.00    +0.247 C 
ATOM     12  O   UNL     1       5.248   5.706  -2.492  0.00  0.00    -0.270 OA
ATOM     13  H   UNL     1      10.141   1.226  -2.539  0.00  0.00    -0.086 HD
ATOM     14  H   UNL     1      10.883   2.625  -2.089  0.00  0.00    -0.086 HD
ENDROOT
BRANCH  11  15
ATOM     15  C   UNL     1       3.317   4.596  -3.195  0.00  0.00    +0.043 A 
ATOM     16  C   UNL     1       2.726   4.122  -4.368  0.00  0.00    +0.013 A 
ATOM     17  C   UNL     1       1.358   3.952  -4.431  0.00  0.00    +0.004 A 
ATOM     18  C   UNL     1       0.569   4.249  -3.336  0.00  0.00    +0.047 A 
ATOM     19  C   UNL     1       1.147   4.721  -2.165  0.00  0.00    +0.135 A 
ATOM     20  C   UNL     1       2.520   4.890  -2.089  0.00  0.00    +0.004 A 
ATOM     21  C   UNL     1       3.150   5.396  -0.817  0.00  0.00    +0.048 C 
BRANCH  19  22
ATOM     22  O   UNL     1       0.366   5.011  -1.091  0.00  0.00    -0.426 OA
BRANCH  22  23
ATOM     23  C   UNL     1      -0.054   6.278  -0.941  0.00  0.00    +0.309 C 
ATOM     24  O   UNL     1       0.185   7.098  -1.795  0.00  0.00    -0.251 OA
ATOM     25  C   UNL     1      -0.823   6.676   0.292  0.00  0.00    +0.136 C 
ENDBRANCH  22  23
ENDBRANCH  19  22
ENDBRANCH  11  15
BRANCH   1  27
ATOM     26  N   UNL     1       5.962  -0.562  -3.239  0.00  0.00    -0.315 N 
ATOM     27  C   UNL     1       5.579   0.729  -3.291  0.00  0.00    +0.218 C 
ATOM     28  O   UNL     1       4.731   1.140  -2.528  0.00  0.00    -0.275 OA
ATOM     29  H   UNL     1       6.640  -0.891  -3.849  0.00  0.00    +0.149 HD
BRANCH  26  30
ATOM     30  C   UNL     1       5.354  -1.468  -2.261  0.00  0.00    +0.109 C 
BRANCH  30  31
ATOM     31  C   UNL     1       5.962  -2.864  -2.413  0.00  0.00    +0.057 C 
BRANCH  31  37
ATOM     32  C   UNL     1       4.139  -4.431  -1.700  0.00  0.00    +0.124 A 
ATOM     33  C   UNL     1       3.569  -5.293  -0.774  0.00  0.00    +0.046 A 
ATOM     34  C   UNL     1       4.193  -5.512   0.439  0.00  0.00    +0.004 A 
ATOM     35  C   UNL     1       5.384  -4.874   0.731  0.00  0.00    +0.000 A 
ATOM     36  C   UNL     1       5.954  -4.014  -0.190  0.00  0.00    +0.007 A 
ATOM     37  C   UNL     1       5.337  -3.796  -1.407  0.00  0.00    -0.004 A 
BRANCH  32  38
ATOM     38  O   UNL     1       3.528  -4.215  -2.894  0.00  0.00    -0.492 OA
BRANCH  38  40
ATOM     39  C   UNL     1       1.763  -4.535  -4.513  0.00  0.00    +0.048 C 
ATOM     40  C   UNL     1       2.297  -4.902  -3.127  0.00  0.00    +0.225 C 
ENDBRANCH  38  40
ENDBRANCH  32  38
ENDBRANCH  31  37
ENDBRANCH  30  31
ENDBRANCH  26  30
ENDBRANCH   1  27
TORSDOF 9
