REMARK  Name = ZINC05266801
REMARK  4 active torsions:
REMARK  status: ('A' for Active; 'I' for Inactive)
REMARK    1  A    between atoms: C_9  and  S_12
REMARK    2  A    between atoms: S_12  and  C_13
REMARK    3  A    between atoms: C_13  and  C_14
REMARK    4  A    between atoms: N_19  and  C_20
REMARK                            x       y       z     vdW  Elec       q    Type
REMARK                         _______ _______ _______ _____ _____    ______ ____
ROOT
ATOM      1  C   UNL     1       8.152  -1.235  -0.082  0.00  0.00    +0.231 C 
ATOM      2  O   UNL     1       8.867  -0.256  -0.083  0.00  0.00    -0.274 OA
ATOM      3  N   UNL     1       8.698  -2.467  -0.093  0.00  0.00    -0.239 N 
ATOM      4  C   UNL     1      10.038  -2.611  -0.106  0.00  0.00    +0.306 C 
ATOM      5  O   UNL     1      10.754  -1.629  -0.108  0.00  0.00    -0.252 OA
ATOM      6  N   UNL     1      10.583  -3.843  -0.118  0.00  0.00    -0.294 N 
ATOM      7  H   UNL     1       8.126  -3.251  -0.092  0.00  0.00    +0.159 HD
ATOM      8  H   UNL     1      10.011  -4.627  -0.117  0.00  0.00    +0.151 HD
ENDROOT
BRANCH   6   9
ATOM      9  C   UNL     1      12.040  -3.999  -0.133  0.00  0.00    +0.037 C 
ATOM     10  C   UNL     1      12.612  -3.330  -1.383  0.00  0.00    +0.029 C 
ATOM     11  C   UNL     1      14.133  -3.493  -1.399  0.00  0.00    -0.008 C 
ATOM     12  C   UNL     1      14.487  -4.981  -1.410  0.00  0.00    +0.007 C 
ATOM     13  C   UNL     1      13.914  -5.651  -0.159  0.00  0.00    -0.008 C 
ATOM     14  C   UNL     1      12.393  -5.488  -0.144  0.00  0.00    +0.029 C 
ATOM     15  C   UNL     1      14.510  -4.995   1.088  0.00  0.00    +0.007 C 
ATOM     16  C   UNL     1      14.156  -3.507   1.100  0.00  0.00    -0.008 C 
ATOM     17  C   UNL     1      14.729  -2.837  -0.151  0.00  0.00    +0.007 C 
ATOM     18  C   UNL     1      12.635  -3.344   1.115  0.00  0.00    +0.029 C 
ENDBRANCH   6   9
BRANCH   1  19
ATOM     19  C   UNL     1       6.654  -1.074  -0.067  0.00  0.00    +0.173 C 
BRANCH  19  20
ATOM     20  S   UNL     1       6.235   0.691  -0.053  0.00  0.00    -0.079 S 
BRANCH  20  29
ATOM     21  C   UNL     1      -0.017   1.383   0.010  0.00  0.00    +0.022 A 
ATOM     22  C   UNL     1       1.164   2.098   0.002  0.00  0.00    +0.029 A 
ATOM     23  C   UNL     1       2.377   1.428  -0.013  0.00  0.00    +0.067 A 
ATOM     24  C   UNL     1       2.402   0.023  -0.021  0.00  0.00    +0.091 A 
ATOM     25  C   UNL     1       1.199  -0.687  -0.013  0.00  0.00    +0.050 A 
ATOM     26  C   UNL     1       0.002  -0.004   0.002  0.00  0.00    +0.043 A 
ATOM     27 CL   UNL     1      -1.493  -0.886   0.011  0.00  0.00    -0.083 Cl
ATOM     28  N   UNL     1       3.708  -0.353  -0.035  0.00  0.00    -0.222 NA
ATOM     29  C   UNL     1       4.473   0.711  -0.037  0.00  0.00    +0.168 A 
ATOM     30  N   UNL     1       3.701   1.838  -0.023  0.00  0.00    -0.333 N 
ATOM     31  H   UNL     1       4.019   2.754  -0.022  0.00  0.00    +0.168 HD
ENDBRANCH  20  29
ENDBRANCH  19  20
ENDBRANCH   1  19
TORSDOF 4
