REMARK  Name = ZINC40779668
REMARK  5 active torsions:
REMARK  status: ('A' for Active; 'I' for Inactive)
REMARK    1  A    between atoms: C_3  and  C_6
REMARK    2  A    between atoms: C_6  and  C_7
REMARK    3  A    between atoms: C_7  and  N_8
REMARK    4  A    between atoms: C_10  and  N_23
REMARK    5  A    between atoms: C_11  and  N_15
REMARK                            x       y       z     vdW  Elec       q    Type
REMARK                         _______ _______ _______ _____ _____    ______ ____
ROOT
ATOM      1  N   UNL     1       5.628   2.523   1.403  0.00  0.00    -0.327 N 
ATOM      2  C   UNL     1       6.295   2.747   2.601  0.00  0.00    +0.145 A 
ATOM      3  C   UNL     1       7.609   3.221   2.603  0.00  0.00    +0.105 A 
ATOM      4  C   UNL     1       8.232   3.429   3.835  0.00  0.00    +0.150 A 
ATOM      5  N   UNL     1       7.555   3.170   4.952  0.00  0.00    -0.219 NA
ATOM      6  C   UNL     1       6.317   2.723   4.905  0.00  0.00    +0.225 A 
ATOM      7  N   UNL     1       5.690   2.518   3.764  0.00  0.00    -0.219 NA
ATOM      8  H   UNL     1       6.076   2.692   0.559  0.00  0.00    +0.148 HD
ENDROOT
BRANCH   4   9
ATOM      9  N   UNL     1       9.539   3.900   3.894  0.00  0.00    -0.283 N 
ATOM     10  C   UNL     1      10.113   4.208   5.124  0.00  0.00    +0.124 A 
ATOM     11  C   UNL     1      11.380   4.779   5.170  0.00  0.00    +0.045 A 
ATOM     12  C   UNL     1      11.939   5.080   6.399  0.00  0.00    +0.025 A 
ATOM     13  C   UNL     1      11.208   4.798   7.546  0.00  0.00    +0.059 A 
ATOM     14  C   UNL     1       9.954   4.230   7.427  0.00  0.00    +0.132 A 
ATOM     15  N   UNL     1       9.445   3.958   6.240  0.00  0.00    -0.239 NA
ATOM     16 CL   UNL     1      11.863   5.156   9.114  0.00  0.00    -0.082 Cl
ATOM     17  H   UNL     1      10.051   4.014   3.078  0.00  0.00    +0.155 HD
ENDBRANCH   4   9
BRANCH   3  18
ATOM     18  N   UNL     1       8.284   3.481   1.400  0.00  0.00    -0.353 N 
ATOM     19  H   UNL     1       7.838   3.332   0.552  0.00  0.00    +0.143 HD
ATOM     20  H   UNL     1       9.196   3.811   1.417  0.00  0.00    +0.143 HD
ENDBRANCH   3  18
BRANCH   1  21
ATOM     21  C   UNL     1       4.248   2.031   1.413  0.00  0.00    +0.108 C 
BRANCH  21  22
ATOM     22  C   UNL     1       3.752   1.871  -0.025  0.00  0.00    +0.061 C 
BRANCH  22  25
ATOM     23  C   UNL     1      -0.026   1.387   0.010  0.00  0.00    +0.008 A 
ATOM     24  C   UNL     1       1.175   2.070   0.003  0.00  0.00    +0.011 A 
ATOM     25  C   UNL     1       2.333   1.365  -0.015  0.00  0.00    -0.009 A 
ATOM     26  S   UNL     1       1.740  -0.319  -0.022  0.00  0.00    -0.102 S 
ATOM     27  C   UNL     1      -0.011   0.031  -0.001  0.00  0.00    +0.045 A 
ENDBRANCH  22  25
ENDBRANCH  21  22
ENDBRANCH   1  21
TORSDOF 5
