REMARK  Name = ZINC63514305
REMARK  8 active torsions:
REMARK  status: ('A' for Active; 'I' for Inactive)
REMARK    1  A    between atoms: C_1  and  C_2
REMARK    2  A    between atoms: C_4  and  C_13
REMARK    3  A    between atoms: C_13  and  C_14
REMARK    4  A    between atoms: C_14  and  N_15
REMARK    5  A    between atoms: N_15  and  S_16
REMARK    6  A    between atoms: S_16  and  C_19
REMARK    7  A    between atoms: C_24  and  O_25
REMARK    8  A    between atoms: O_25  and  C_26
REMARK                            x       y       z     vdW  Elec       q    Type
REMARK                         _______ _______ _______ _____ _____    ______ ____
ROOT
ATOM      1  C   UNL     1      -3.624  -0.918  -0.825  0.00  0.00    +0.110 C 
ENDROOT
BRANCH   1   2
ATOM      2  N   UNL     1      -4.921  -0.788  -1.494  0.00  0.00    -0.190 NA
ATOM      3  H   UNL     1      -5.134  -1.353  -2.253  0.00  0.00    +0.148 HD
BRANCH   2   4
ATOM      4  S   UNL     1      -6.023   0.324  -0.955  0.00  0.00    +0.062 S 
ATOM      5  O   UNL     1      -7.156   0.218  -1.805  0.00  0.00    -0.153 OA
ATOM      6  O   UNL     1      -6.110   0.159   0.454  0.00  0.00    -0.153 OA
BRANCH   4   7
ATOM      7  C   UNL     1      -5.331   1.920  -1.233  0.00  0.00    +0.148 A 
ATOM      8  C   UNL     1      -5.876   2.752  -2.192  0.00  0.00    +0.052 A 
ATOM      9  C   UNL     1      -5.333   4.006  -2.411  0.00  0.00    +0.043 A 
ATOM     10  C   UNL     1      -4.244   4.429  -1.671  0.00  0.00    +0.024 A 
ATOM     11  C   UNL     1      -3.696   3.600  -0.711  0.00  0.00    +0.049 A 
ATOM     12  C   UNL     1      -4.242   2.345  -0.486  0.00  0.00    +0.146 A 
ATOM     13 CL   UNL     1      -6.020   5.049  -3.617  0.00  0.00    -0.083 Cl
BRANCH  12  14
ATOM     14  O   UNL     1      -3.708   1.530   0.462  0.00  0.00    -0.493 OA
ATOM     15  C   UNL     1      -2.644   2.065   1.252  0.00  0.00    +0.277 C 
ENDBRANCH  12  14
ENDBRANCH   4   7
ENDBRANCH   2   4
ENDBRANCH   1   2
BRANCH   1  16
ATOM     16  C   UNL     1      -2.578  -0.090  -1.574  0.00  0.00    +0.050 C 
BRANCH  16  19
ATOM     17  C   UNL     1       0.102   1.730  -1.458  0.00  0.00    +0.035 C 
ATOM     18  C   UNL     1       0.106   0.200  -1.468  0.00  0.00    +0.103 C 
ATOM     19  C   UNL     1      -1.220  -0.328  -0.966  0.00  0.00    -0.037 C 
ATOM     20  C   UNL     1      -0.939  -1.056   0.139  0.00  0.00    +0.000 A 
ATOM     21  C   UNL     1      -1.783  -1.815   1.069  0.00  0.00    +0.025 A 
ATOM     22  C   UNL     1      -1.200  -2.457   2.108  0.00  0.00    +0.019 A 
ATOM     23  C   UNL     1       0.186  -2.414   2.318  0.00  0.00    +0.017 A 
ATOM     24  C   UNL     1       1.025  -1.737   1.506  0.00  0.00    +0.027 A 
ATOM     25  C   UNL     1       0.521  -1.026   0.382  0.00  0.00    +0.043 A 
ATOM     26  N   UNL     1       1.121  -0.308  -0.538  0.00  0.00    -0.378 N 
ATOM     27 BR   UNL     1      -2.283  -3.437   3.310  0.00  0.00    -0.050 Br
ATOM     28  H   UNL     1       2.075  -0.141  -0.594  0.00  0.00    +0.160 HD
ENDBRANCH  16  19
ENDBRANCH   1  16
TORSDOF 6
