REMARK  Name = ZINC63240937
REMARK  6 active torsions:
REMARK  status: ('A' for Active; 'I' for Inactive)
REMARK    1  A    between atoms: C_4  and  N_7
REMARK    2  A    between atoms: C_8  and  C_24
REMARK    3  A    between atoms: C_11  and  S_12
REMARK    4  A    between atoms: S_12  and  C_13
REMARK    5  A    between atoms: C_13  and  C_14
REMARK    6  A    between atoms: N_16  and  C_17
REMARK                            x       y       z     vdW  Elec       q    Type
REMARK                         _______ _______ _______ _____ _____    ______ ____
ROOT
ATOM      1  N   UNL     1       3.601  -0.687  -0.017  0.00  0.00    -0.270 N 
ATOM      2  C   UNL     1       4.092  -1.499  -1.026  0.00  0.00    +0.168 A 
ATOM      3  N   UNL     1       5.277  -1.938  -0.626  0.00  0.00    -0.128 NA
ATOM      4  N   UNL     1       5.547  -1.462   0.537  0.00  0.00    -0.122 NA
ATOM      5  C   UNL     1       4.558  -0.686   0.954  0.00  0.00    +0.197 A 
ENDROOT
BRANCH   2   6
ATOM      6  C   UNL     1       3.456  -1.801  -2.240  0.00  0.00    +0.025 C 
ATOM      7  C   UNL     1       3.935  -2.621  -3.262  0.00  0.00    +0.006 A 
ATOM      8  C   UNL     1       5.126  -3.364  -3.409  0.00  0.00    +0.010 A 
ATOM      9  C   UNL     1       5.332  -4.090  -4.538  0.00  0.00    +0.001 A 
ATOM     10  C   UNL     1       4.389  -4.122  -5.569  0.00  0.00    +0.002 A 
ATOM     11  C   UNL     1       3.224  -3.433  -5.495  0.00  0.00    +0.026 A 
ATOM     12  C   UNL     1       2.938  -2.652  -4.345  0.00  0.00    +0.043 A 
ATOM     13  N   UNL     1       1.897  -1.905  -4.035  0.00  0.00    -0.380 N 
ATOM     14  C   UNL     1       2.105  -1.311  -2.711  0.00  0.00    +0.152 C 
ATOM     15  H   UNL     1       1.115  -1.772  -4.594  0.00  0.00    +0.160 HD
ENDBRANCH   2   6
BRANCH   1  19
ATOM     16  C   UNL     1      -0.037   1.346   0.031  0.00  0.00    +0.000 A 
ATOM     17  C   UNL     1       1.149   2.056   0.014  0.00  0.00    +0.002 A 
ATOM     18  C   UNL     1       2.357   1.385  -0.002  0.00  0.00    +0.026 A 
ATOM     19  C   UNL     1       2.378  -0.003  -0.000  0.00  0.00    +0.050 A 
ATOM     20  C   UNL     1       1.185  -0.713   0.017  0.00  0.00    +0.026 A 
ATOM     21  C   UNL     1      -0.019  -0.037   0.033  0.00  0.00    +0.002 A 
ENDBRANCH   1  19
BRANCH   5  22
ATOM     22  S   UNL     1       4.489   0.185   2.485  0.00  0.00    -0.076 S 
BRANCH  22  23
ATOM     23  C   UNL     1       6.055  -0.235   3.299  0.00  0.00    +0.173 C 
BRANCH  23  24
ATOM     24  C   UNL     1       6.126   0.454   4.637  0.00  0.00    +0.228 C 
ATOM     25  O   UNL     1       5.211   1.159   5.006  0.00  0.00    -0.275 OA
ATOM     26  N   UNL     1       7.207   0.287   5.425  0.00  0.00    -0.284 N 
ATOM     27  H   UNL     1       7.910  -0.327   5.160  0.00  0.00    +0.155 HD
BRANCH  26  28
ATOM     28  C   UNL     1       7.316   1.000   6.624  0.00  0.00    +0.052 A 
ATOM     29  C   UNL     1       6.181   1.279   7.373  0.00  0.00    +0.025 A 
ATOM     30  C   UNL     1       6.291   1.982   8.557  0.00  0.00    +0.002 A 
ATOM     31  C   UNL     1       7.531   2.408   8.997  0.00  0.00    +0.002 A 
ATOM     32  C   UNL     1       8.664   2.132   8.255  0.00  0.00    +0.022 A 
ATOM     33  C   UNL     1       8.561   1.424   7.072  0.00  0.00    +0.062 A 
ATOM     34 CL   UNL     1       9.985   1.072   6.143  0.00  0.00    -0.082 Cl
ENDBRANCH  26  28
ENDBRANCH  23  24
ENDBRANCH  22  23
ENDBRANCH   5  22
TORSDOF 6
