REMARK  Name = ZINC12883053
REMARK  7 active torsions:
REMARK  status: ('A' for Active; 'I' for Inactive)
REMARK    1  A    between atoms: C_1  and  C_2
REMARK    2  A    between atoms: C_4  and  C_35
REMARK    3  A    between atoms: C_13  and  C_15
REMARK    4  A    between atoms: C_15  and  C_16
REMARK    5  A    between atoms: N_21  and  C_24
REMARK    6  A    between atoms: C_24  and  C_25
REMARK    7  A    between atoms: C_25  and  C_26
REMARK                            x       y       z     vdW  Elec       q    Type
REMARK                         _______ _______ _______ _____ _____    ______ ____
ROOT
ATOM      1  C   UNL     1      -5.553   0.665   2.296  0.00  0.00    +0.044 C 
ATOM      2  C   UNL     1      -5.818   1.179   0.905  0.00  0.00    -0.050 A 
ATOM      3  C   UNL     1      -7.102   1.160   0.392  0.00  0.00    +0.008 A 
ATOM      4  C   UNL     1      -7.350   1.630  -0.881  0.00  0.00    -0.029 A 
ATOM      5  C   UNL     1      -6.308   2.128  -1.660  0.00  0.00    +0.039 A 
ATOM      6  C   UNL     1      -5.020   2.141  -1.134  0.00  0.00    -0.027 A 
ATOM      7  C   UNL     1      -4.777   1.672   0.138  0.00  0.00    +0.008 A 
ATOM      8  C   UNL     1      -4.145   2.727  -2.205  0.00  0.00    +0.050 C 
ATOM      9  C   UNL     1      -3.037   1.753  -2.622  0.00  0.00    +0.088 C 
ATOM     10  C   UNL     1      -1.813   2.661  -2.928  0.00  0.00    +0.073 C 
ATOM     11  C   UNL     1      -2.313   4.099  -2.674  0.00  0.00    -0.049 C 
ATOM     12  C   UNL     1      -0.819   2.281  -1.854  0.00  0.00    +0.224 C 
ATOM     13  O   UNL     1       0.284   2.765  -1.718  0.00  0.00    -0.275 OA
ATOM     14  N   UNL     1      -1.347   1.329  -1.076  0.00  0.00    -0.241 N 
ATOM     15  C   UNL     1      -2.583   0.951  -1.423  0.00  0.00    +0.225 C 
ATOM     16  O   UNL     1      -3.238   0.100  -0.860  0.00  0.00    -0.275 OA
ATOM     17  C   UNL     1      -5.074   3.026  -3.350  0.00  0.00    +0.211 C 
ATOM     18  O   UNL     1      -4.773   3.510  -4.420  0.00  0.00    -0.277 OA
ATOM     19  N   UNL     1      -6.307   2.651  -2.955  0.00  0.00    -0.286 N 
ATOM     20  C   UNL     1      -8.753   1.605  -1.431  0.00  0.00    +0.045 C 
ATOM     21  H   UNL     1      -7.100   2.734  -3.506  0.00  0.00    +0.155 HD
ATOM     22  N   UNL     1      -3.449   3.924  -1.766  0.00  0.00    +0.394 N 
ATOM     23  H   UNL     1      -3.118   3.808  -0.801  0.00  0.00    -0.083 HD
ATOM     24  H   UNL     1      -4.074   4.737  -1.819  0.00  0.00    -0.083 HD
ENDROOT
BRANCH  11  25
ATOM     25  C   UNL     1      -2.776   4.740  -3.984  0.00  0.00    +0.080 C 
BRANCH  25  26
ATOM     26  C   UNL     1      -1.626   5.485  -4.613  0.00  0.00    +0.209 C 
ATOM     27  O   UNL     1      -0.543   5.501  -4.067  0.00  0.00    -0.276 OA
ATOM     28  N   UNL     1      -1.801   6.132  -5.782  0.00  0.00    -0.329 N 
ATOM     29  H   UNL     1      -2.667   6.119  -6.218  0.00  0.00    +0.145 HD
ATOM     30  H   UNL     1      -1.061   6.612  -6.186  0.00  0.00    +0.145 HD
ENDBRANCH  25  26
ENDBRANCH  11  25
BRANCH  14  31
ATOM     31  C   UNL     1      -0.628   0.743   0.058  0.00  0.00    +0.121 C 
BRANCH  31  32
ATOM     32  C   UNL     1      -0.924   1.551   1.322  0.00  0.00    +0.054 C 
BRANCH  32  33
ATOM     33  C   UNL     1      -0.185   0.949   2.489  0.00  0.00    -0.046 A 
ATOM     34  C   UNL     1      -0.786  -0.030   3.258  0.00  0.00    +0.004 A 
ATOM     35  C   UNL     1      -0.106  -0.586   4.325  0.00  0.00    +0.000 A 
ATOM     36  C   UNL     1       1.173  -0.156   4.629  0.00  0.00    +0.000 A 
ATOM     37  C   UNL     1       1.772   0.826   3.863  0.00  0.00    +0.000 A 
ATOM     38  C   UNL     1       1.094   1.378   2.793  0.00  0.00    +0.004 A 
ENDBRANCH  32  33
ENDBRANCH  31  32
ENDBRANCH  14  31
TORSDOF 5
