REMARK  Name = ZINC16958720
REMARK  3 active torsions:
REMARK  status: ('A' for Active; 'I' for Inactive)
REMARK    1  A    between atoms: C_4  and  N_7
REMARK    2  A    between atoms: N_11  and  C_21
REMARK    3  A    between atoms: N_14  and  C_15
REMARK                            x       y       z     vdW  Elec       q    Type
REMARK                         _______ _______ _______ _____ _____    ______ ____
ROOT
ATOM      1  N   UNL     1       3.353  -0.637   0.030  0.00  0.00    -0.229 NA
ATOM      2  C   UNL     1       3.708  -1.591   0.855  0.00  0.00    +0.162 C 
ATOM      3  C   UNL     1       2.875  -2.211   1.907  0.00  0.00    +0.127 C 
ATOM      4  S   UNL     1       1.252  -1.819   2.286  0.00  0.00    -0.031 S 
ATOM      5  N   UNL     1       3.638  -3.144   2.510  0.00  0.00    -0.234 N 
ATOM      6  C   UNL     1       4.883  -3.161   1.923  0.00  0.00    +0.176 C 
ATOM      7  N   UNL     1       5.861  -3.948   2.269  0.00  0.00    -0.374 N 
ATOM      8  N   UNL     1       4.938  -2.227   0.913  0.00  0.00    -0.225 N 
ATOM      9  H   UNL     1       5.765  -4.533   3.036  0.00  0.00    +0.158 HD
ATOM     10  H   UNL     1       6.686  -3.948   1.759  0.00  0.00    +0.158 HD
ENDROOT
BRANCH   1  14
ATOM     11  C   UNL     1      -0.300   1.245   0.492  0.00  0.00    +0.000 A 
ATOM     12  C   UNL     1       0.632   1.289   1.515  0.00  0.00    +0.002 A 
ATOM     13  C   UNL     1       1.852   0.664   1.369  0.00  0.00    +0.028 A 
ATOM     14  C   UNL     1       2.147  -0.016   0.183  0.00  0.00    +0.066 A 
ATOM     15  C   UNL     1       1.201  -0.056  -0.846  0.00  0.00    +0.028 A 
ATOM     16  C   UNL     1      -0.015   0.574  -0.684  0.00  0.00    +0.002 A 
ENDBRANCH   1  14
BRANCH   8  17
ATOM     17  C   UNL     1       6.042  -1.965   0.092  0.00  0.00    +0.043 A 
ATOM     18  C   UNL     1       6.477  -2.921  -0.816  0.00  0.00    +0.024 A 
ATOM     19  C   UNL     1       7.566  -2.659  -1.624  0.00  0.00    +0.002 A 
ATOM     20  C   UNL     1       8.223  -1.446  -1.529  0.00  0.00    +0.000 A 
ATOM     21  C   UNL     1       7.793  -0.492  -0.625  0.00  0.00    +0.002 A 
ATOM     22  C   UNL     1       6.700  -0.745   0.181  0.00  0.00    +0.024 A 
ENDBRANCH   8  17
BRANCH   5  23
ATOM     23  C   UNL     1       3.229  -3.966   3.568  0.00  0.00    +0.042 A 
ATOM     24  C   UNL     1       2.261  -4.940   3.358  0.00  0.00    +0.024 A 
ATOM     25  C   UNL     1       1.860  -5.749   4.402  0.00  0.00    +0.002 A 
ATOM     26  C   UNL     1       2.420  -5.590   5.657  0.00  0.00    +0.000 A 
ATOM     27  C   UNL     1       3.384  -4.621   5.869  0.00  0.00    +0.002 A 
ATOM     28  C   UNL     1       3.793  -3.812   4.827  0.00  0.00    +0.024 A 
ENDBRANCH   5  23
TORSDOF 3
