REMARK  Name = ZINC53899092
REMARK  3 active torsions:
REMARK  status: ('A' for Active; 'I' for Inactive)
REMARK    1  A    between atoms: C_6  and  C_7
REMARK    2  A    between atoms: C_13  and  S_20
REMARK    3  A    between atoms: S_20  and  N_23
REMARK                            x       y       z     vdW  Elec       q    Type
REMARK                         _______ _______ _______ _____ _____    ______ ____
ROOT
ATOM      1  C   UNL     1      -1.293  -0.774   0.010  0.00  0.00    +0.191 C 
ATOM      2  N   UNL     1      -2.328  -0.000  -0.670  0.00  0.00    -0.322 N 
ATOM      3  C   UNL     1      -2.332   0.231  -2.043  0.00  0.00    +0.057 A 
ATOM      4  C   UNL     1      -3.052   1.316  -2.540  0.00  0.00    +0.047 A 
ATOM      5  C   UNL     1      -3.090   1.562  -3.897  0.00  0.00    +0.069 A 
ATOM      6  C   UNL     1      -2.414   0.733  -4.775  0.00  0.00    +0.125 A 
ATOM      7  C   UNL     1      -1.692  -0.341  -4.289  0.00  0.00    +0.060 A 
ATOM      8  C   UNL     1      -1.646  -0.586  -2.932  0.00  0.00    +0.128 A 
ATOM      9  S   UNL     1      -0.690  -1.937  -2.313  0.00  0.00    +0.062 S 
ATOM     10  O   UNL     1       0.673  -1.536  -2.357  0.00  0.00    -0.153 OA
ATOM     11  O   UNL     1      -1.166  -3.111  -2.956  0.00  0.00    -0.153 OA
ATOM     12  N   UNL     1      -1.112  -2.056  -0.701  0.00  0.00    -0.166 NA
ATOM     13 CL   UNL     1      -3.989   2.918  -4.506  0.00  0.00    -0.081 Cl
ATOM     14  H   UNL     1      -3.050   0.371  -0.139  0.00  0.00    +0.148 HD
ATOM     15  H   UNL     1      -1.232  -2.912  -0.259  0.00  0.00    +0.150 HD
ENDROOT
BRANCH   1  21
ATOM     16  C   UNL     1      -0.017   1.378   0.010  0.00  0.00    +0.010 A 
ATOM     17  C   UNL     1       1.170   2.087   0.002  0.00  0.00    +0.041 A 
ATOM     18  C   UNL     1       2.379   1.413  -0.013  0.00  0.00    +0.158 A 
ATOM     19  C   UNL     1       2.397   0.026  -0.021  0.00  0.00    +0.159 A 
ATOM     20  C   UNL     1       1.208  -0.680  -0.013  0.00  0.00    +0.048 A 
ATOM     21  C   UNL     1       0.002  -0.004   0.002  0.00  0.00    -0.009 A 
ATOM     22  F   UNL     1       3.576  -0.634  -0.036  0.00  0.00    -0.202 F 
ATOM     23  F   UNL     1       3.539   2.105  -0.021  0.00  0.00    -0.202 F 
ENDBRANCH   1  21
BRANCH   6  24
ATOM     24  S   UNL     1      -2.473   1.046  -6.508  0.00  0.00    +0.057 S 
ATOM     25  O   UNL     1      -2.179   2.425  -6.683  0.00  0.00    -0.153 OA
ATOM     26  O   UNL     1      -1.714   0.020  -7.132  0.00  0.00    -0.153 OA
BRANCH  24  27
ATOM     27  N   UNL     1      -4.043   0.833  -6.991  0.00  0.00    -0.203 NA
ATOM     28  H   UNL     1      -4.393   1.340  -7.740  0.00  0.00    +0.144 HD
ATOM     29  H   UNL     1      -4.612   0.201  -6.525  0.00  0.00    +0.144 HD
ENDBRANCH  24  27
ENDBRANCH   6  24
TORSDOF 3
