REMARK  Name = ZINC63708190
REMARK  10 active torsions:
REMARK  status: ('A' for Active; 'I' for Inactive)
REMARK    1  A    between atoms: C_1  and  C_2
REMARK    2  A    between atoms: C_4  and  C_9
REMARK    3  A    between atoms: C_5  and  C_8
REMARK    4  A    between atoms: C_9  and  C_10
REMARK    5  A    between atoms: C_10  and  C_11
REMARK    6  A    between atoms: C_21  and  S_25
REMARK    7  A    between atoms: S_25  and  C_26
REMARK    8  A    between atoms: C_26  and  C_27
REMARK    9  A    between atoms: N_29  and  C_30
REMARK   10  A    between atoms: C_33  and  C_36
REMARK                            x       y       z     vdW  Elec       q    Type
REMARK                         _______ _______ _______ _____ _____    ______ ____
ROOT
ATOM      1  C   UNL     1      -4.388   1.127  -1.594  0.00  0.00    +0.090 C 
ATOM      2  N   UNL     1      -4.289   1.742  -2.747  0.00  0.00    -0.332 N 
ATOM      3  C   UNL     1      -5.469   1.734  -3.377  0.00  0.00    +0.128 C 
ATOM      4  C   UNL     1      -5.893   2.249  -4.619  0.00  0.00    +0.038 A 
ATOM      5  C   UNL     1      -4.991   2.926  -5.457  0.00  0.00    +0.013 A 
ATOM      6  C   UNL     1      -5.418   3.416  -6.654  0.00  0.00    +0.001 A 
ATOM      7  C   UNL     1      -6.736   3.264  -7.077  0.00  0.00    +0.002 A 
ATOM      8  C   UNL     1      -7.659   2.619  -6.314  0.00  0.00    +0.026 A 
ATOM      9  C   UNL     1      -7.281   2.087  -5.062  0.00  0.00    +0.048 A 
ATOM     10  N   UNL     1      -8.166   1.454  -4.304  0.00  0.00    -0.356 N 
ATOM     11  C   UNL     1      -7.750   0.909  -3.006  0.00  0.00    +0.248 C 
ATOM     12  N   UNL     1      -6.363   1.076  -2.574  0.00  0.00    -0.204 N 
ATOM     13  N   UNL     1      -5.655   0.684  -1.431  0.00  0.00    -0.249 N 
ATOM     14  H   UNL     1      -6.005   0.194  -0.671  0.00  0.00    +0.171 HD
ATOM     15  H   UNL     1      -9.082   1.352  -4.606  0.00  0.00    +0.162 HD
ATOM     16  H   UNL     1      -3.477   2.145  -3.093  0.00  0.00    +0.168 HD
ENDROOT
BRANCH   1  17
ATOM     17  C   UNL     1      -3.265   0.937  -0.608  0.00  0.00    +0.075 C 
BRANCH  17  18
ATOM     18  C   UNL     1      -2.532  -0.371  -0.914  0.00  0.00    +0.042 C 
BRANCH  18  21
ATOM     19  C   UNL     1      -0.019   1.526   0.010  0.00  0.00    +0.039 C 
ATOM     20  C   UNL     1       0.002  -0.004   0.002  0.00  0.00    +0.153 C 
ATOM     21  C   UNL     1      -1.409  -0.561   0.072  0.00  0.00    -0.021 C 
ATOM     22  C   UNL     1      -1.423  -1.257   1.211  0.00  0.00    +0.061 C 
ATOM     23  N   UNL     1      -0.222  -1.193   1.828  0.00  0.00    -0.159 NA
ATOM     24  N   UNL     1       0.629  -0.523   1.230  0.00  0.00    -0.180 NA
ATOM     25  C   UNL     1      -2.617  -2.011   1.738  0.00  0.00    +0.067 C 
ENDBRANCH  18  21
ENDBRANCH  17  18
ENDBRANCH   1  17
BRANCH  11  26
ATOM     26  S   UNL     1      -8.810   1.656  -1.737  0.00  0.00    -0.106 S 
BRANCH  26  27
ATOM     27  C   UNL     1      -8.492   3.435  -1.892  0.00  0.00    +0.168 C 
BRANCH  27  28
ATOM     28  C   UNL     1      -9.322   4.184  -0.880  0.00  0.00    +0.225 C 
ATOM     29  O   UNL     1     -10.055   3.576  -0.128  0.00  0.00    -0.275 OA
ATOM     30  N   UNL     1      -9.248   5.527  -0.810  0.00  0.00    -0.288 N 
ATOM     31  H   UNL     1      -8.662   6.013  -1.411  0.00  0.00    +0.151 HD
BRANCH  30  32
ATOM     32  C   UNL     1     -10.055   6.255   0.173  0.00  0.00    +0.239 C 
ATOM     33  C   UNL     1     -10.667   7.498  -0.448  0.00  0.00    +0.045 C 
ATOM     34  C   UNL     1     -10.148   8.501   0.263  0.00  0.00    +0.060 C 
ATOM     35  N   UNL     1      -9.314   8.032   1.218  0.00  0.00    -0.157 NA
ATOM     36  N   UNL     1      -9.203   6.800   1.244  0.00  0.00    -0.160 NA
ATOM     37  C   UNL     1     -10.450   9.960   0.032  0.00  0.00    +0.067 C 
ENDBRANCH  30  32
ENDBRANCH  27  28
ENDBRANCH  26  27
ENDBRANCH  11  26
TORSDOF 7
