REMARK  Name = ZINC67603228
REMARK  5 active torsions:
REMARK  status: ('A' for Active; 'I' for Inactive)
REMARK    1  A    between atoms: C_1  and  C_2
REMARK    2  A    between atoms: C_7  and  C_10
REMARK    3  A    between atoms: N_18  and  C_19
REMARK    4  A    between atoms: C_19  and  C_21
REMARK    5  A    between atoms: C_19  and  C_22
REMARK                            x       y       z     vdW  Elec       q    Type
REMARK                         _______ _______ _______ _____ _____    ______ ____
ROOT
ATOM      1  C   UNL     1      -2.121  -2.915   2.514  0.00  0.00    +0.039 C 
ATOM      2  C   UNL     1      -0.878  -2.027   2.441  0.00  0.00    +0.133 C 
ATOM      3  C   UNL     1      -1.294  -0.554   2.534  0.00  0.00    +0.140 C 
ATOM      4  N   UNL     1      -2.041  -0.205   1.315  0.00  0.00    -0.280 N 
ATOM      5  C   UNL     1      -1.438  -0.541   0.015  0.00  0.00    +0.145 C 
ATOM      6  C   UNL     1      -1.015  -2.014   0.045  0.00  0.00    +0.166 C 
ATOM      7  O   UNL     1      -0.204  -2.248   1.200  0.00  0.00    -0.366 OA
ATOM      8  C   UNL     1      -3.241   0.404   1.387  0.00  0.00    +0.303 C 
ATOM      9  O   UNL     1      -3.766   0.587   2.469  0.00  0.00    -0.253 OA
ATOM     10  N   UNL     1      -3.860   0.809   0.261  0.00  0.00    -0.293 N 
ATOM     11  H   UNL     1      -3.477   0.599  -0.606  0.00  0.00    +0.151 HD
ENDROOT
BRANCH   6  12
ATOM     12  C   UNL     1      -0.226  -2.336  -1.198  0.00  0.00    -0.017 A 
ATOM     13  C   UNL     1       1.134  -2.089  -1.237  0.00  0.00    +0.006 A 
ATOM     14  C   UNL     1       1.857  -2.384  -2.378  0.00  0.00    +0.000 A 
ATOM     15  C   UNL     1       1.221  -2.927  -3.478  0.00  0.00    +0.000 A 
ATOM     16  C   UNL     1      -0.138  -3.175  -3.439  0.00  0.00    +0.000 A 
ATOM     17  C   UNL     1      -0.861  -2.883  -2.297  0.00  0.00    +0.006 A 
ENDBRANCH   6  12
BRANCH  10  18
ATOM     18  C   UNL     1      -5.111   1.567   0.344  0.00  0.00    +0.102 C 
ATOM     19  C   UNL     1      -4.795   3.053   0.530  0.00  0.00    +0.033 C 
BRANCH  18  20
ATOM     20  C   UNL     1      -5.899   1.377  -0.926  0.00  0.00    -0.025 A 
ATOM     21  C   UNL     1      -5.246   1.351  -2.145  0.00  0.00    +0.009 A 
ATOM     22  C   UNL     1      -5.962   1.175  -3.316  0.00  0.00    +0.048 A 
ATOM     23  C   UNL     1      -7.337   1.025  -3.267  0.00  0.00    +0.142 A 
ATOM     24  C   UNL     1      -7.995   1.052  -2.038  0.00  0.00    +0.076 A 
ATOM     25  C   UNL     1      -7.272   1.222  -0.869  0.00  0.00    +0.032 A 
ATOM     26  N   UNL     1      -9.389   0.901  -2.003  0.00  0.00    -0.280 N 
ATOM     27  C   UNL     1     -10.023   0.424  -3.096  0.00  0.00    +0.255 C 
ATOM     28  O   UNL     1     -11.231   0.315  -3.100  0.00  0.00    -0.272 OA
ATOM     29  C   UNL     1      -9.224   0.029  -4.312  0.00  0.00    +0.325 C 
ATOM     30  O   UNL     1      -8.057   0.850  -4.407  0.00  0.00    -0.481 OA
ATOM     31  H   UNL     1      -9.889   1.135  -1.206  0.00  0.00    +0.155 HD
ENDBRANCH  18  20
ENDBRANCH  10  18
TORSDOF 3
