REMARK  Name = ZINC07524841
REMARK  8 active torsions:
REMARK  status: ('A' for Active; 'I' for Inactive)
REMARK    1  A    between atoms: C_3  and  C_8
REMARK    2  A    between atoms: C_11  and  C_13
REMARK    3  A    between atoms: C_13  and  N_44
REMARK    4  A    between atoms: C_14  and  C_15
REMARK    5  A    between atoms: C_14  and  N_44
REMARK    6  A    between atoms: C_15  and  C_16
REMARK    7  A    between atoms: C_19  and  S_22
REMARK    8  A    between atoms: S_22  and  N_25
REMARK                            x       y       z     vdW  Elec       q    Type
REMARK                         _______ _______ _______ _____ _____    ______ ____
ROOT
ATOM      1  N   UNL     1       1.818   8.992   1.429  0.00  0.00    +0.384 N 
ATOM      2  H   UNL     1       2.282   8.207   1.900  0.00  0.00    -0.085 HD
ATOM      3  H   UNL     1       0.943   9.216   1.917  0.00  0.00    -0.085 HD
ENDROOT
BRANCH   1   4
ATOM      4  C   UNL     1       1.515   8.615   0.036  0.00  0.00    -0.007 C 
BRANCH   4   8
ATOM      5  C   UNL     1      -0.071   5.323   0.030  0.00  0.00    +0.135 A 
ATOM      6  C   UNL     1      -1.183   6.105   0.045  0.00  0.00    +0.050 A 
ATOM      7  C   UNL     1      -0.739   7.443   0.049  0.00  0.00    +0.043 A 
ATOM      8  C   UNL     1       0.608   7.411   0.037  0.00  0.00    +0.089 A 
ATOM      9  O   UNL     1       1.008   6.129   0.031  0.00  0.00    -0.462 OA
BRANCH   5  12
ATOM     10  C   UNL     1      -1.221   1.748   0.017  0.00  0.00    +0.002 A 
ATOM     11  C   UNL     1      -1.247   3.128   0.030  0.00  0.00    +0.011 A 
ATOM     12  C   UNL     1      -0.050   3.846   0.022  0.00  0.00    +0.019 A 
ATOM     13  C   UNL     1       1.167   3.162   0.007  0.00  0.00    +0.031 A 
ATOM     14  C   UNL     1       1.179   1.782   0.000  0.00  0.00    +0.042 A 
ATOM     15  C   UNL     1      -0.013   1.076   0.008  0.00  0.00    +0.020 A 
ATOM     16 CL   UNL     1       2.691   0.929  -0.018  0.00  0.00    -0.084 Cl
ENDBRANCH   5  12
ENDBRANCH   4   8
ENDBRANCH   1   4
BRANCH   1  17
ATOM     17  C   UNL     1       2.706  10.170   1.459  0.00  0.00    -0.077 C 
BRANCH  17  18
ATOM     18  C   UNL     1       3.002  10.538   2.914  0.00  0.00    +0.016 C 
BRANCH  18  19
ATOM     19  C   UNL     1       3.909  11.741   2.953  0.00  0.00    -0.049 A 
ATOM     20  C   UNL     1       5.281  11.572   2.964  0.00  0.00    +0.005 A 
ATOM     21  C   UNL     1       6.113  12.675   2.996  0.00  0.00    +0.029 A 
ATOM     22  C   UNL     1       5.573  13.947   3.026  0.00  0.00    +0.105 A 
ATOM     23  C   UNL     1       4.201  14.116   3.020  0.00  0.00    +0.029 A 
ATOM     24  C   UNL     1       3.369  13.013   2.984  0.00  0.00    +0.005 A 
BRANCH  22  25
ATOM     25  S   UNL     1       6.634  15.354   3.070  0.00  0.00    +0.056 S 
ATOM     26  O   UNL     1       7.877  14.943   2.518  0.00  0.00    -0.153 OA
ATOM     27  O   UNL     1       5.888  16.442   2.542  0.00  0.00    -0.153 OA
BRANCH  25  28
ATOM     28  N   UNL     1       6.917  15.703   4.664  0.00  0.00    -0.204 NA
ATOM     29  H   UNL     1       6.515  15.159   5.359  0.00  0.00    +0.144 HD
ATOM     30  H   UNL     1       7.484  16.453   4.903  0.00  0.00    +0.144 HD
ENDBRANCH  25  28
ENDBRANCH  22  25
ENDBRANCH  18  19
ENDBRANCH  17  18
ENDBRANCH   1  17
TORSDOF 8
