REMARK  Name = ZINC39840973
REMARK  10 active torsions:
REMARK  status: ('A' for Active; 'I' for Inactive)
REMARK    1  A    between atoms: C_1  and  C_2
REMARK    2  A    between atoms: C_2  and  C_3
REMARK    3  A    between atoms: C_3  and  C_4
REMARK    4  A    between atoms: C_4  and  C_5
REMARK    5  A    between atoms: C_5  and  N_6
REMARK    6  A    between atoms: C_7  and  N_8
REMARK    7  A    between atoms: C_9  and  C_22
REMARK    8  A    between atoms: N_24  and  C_25
REMARK    9  A    between atoms: C_26  and  C_34
REMARK   10  A    between atoms: N_36  and  C_37
REMARK                            x       y       z     vdW  Elec       q    Type
REMARK                         _______ _______ _______ _____ _____    ______ ____
ROOT
ATOM      1  N   UNL     1      -2.843  -4.059   0.107  0.00  0.00    -0.313 N 
ATOM      2  C   UNL     1      -2.848  -4.612  -1.092  0.00  0.00    +0.110 A 
ATOM      3  C   UNL     1      -2.816  -6.015  -1.253  0.00  0.00    +0.076 A 
ATOM      4  C   UNL     1      -2.777  -6.831  -0.120  0.00  0.00    +0.033 A 
ATOM      5  C   UNL     1      -2.773  -6.215   1.129  0.00  0.00    +0.083 A 
ATOM      6  C   UNL     1      -2.801  -4.797   1.218  0.00  0.00    +0.150 A 
ATOM      7  N   UNL     1      -2.791  -4.225   2.426  0.00  0.00    -0.211 NA
ATOM      8  C   UNL     1      -2.750  -4.938   3.546  0.00  0.00    +0.143 A 
ATOM      9  C   UNL     1      -2.743  -4.254   4.780  0.00  0.00    +0.047 A 
ATOM     10  C   UNL     1      -2.702  -4.961   5.942  0.00  0.00    +0.005 A 
ATOM     11  C   UNL     1      -2.667  -6.363   5.900  0.00  0.00    +0.018 A 
ATOM     12  C   UNL     1      -2.674  -7.005   4.712  0.00  0.00    +0.096 A 
ATOM     13  N   UNL     1      -2.716  -6.307   3.540  0.00  0.00    -0.268 N 
ATOM     14  C   UNL     1      -2.734  -6.989   2.371  0.00  0.00    +0.268 A 
ATOM     15  O   UNL     1      -2.704  -8.206   2.352  0.00  0.00    -0.267 OA
ENDROOT
BRANCH   3  16
ATOM     16  C   UNL     1      -2.823  -6.609  -2.599  0.00  0.00    +0.252 C 
ATOM     17  O   UNL     1      -2.747  -5.894  -3.580  0.00  0.00    -0.270 OA
ATOM     18  N   UNL     1      -2.913  -7.946  -2.744  0.00  0.00    -0.275 N 
ATOM     19  H   UNL     1      -2.973  -8.516  -1.962  0.00  0.00    +0.156 HD
BRANCH  18  20
ATOM     20  C   UNL     1      -2.920  -8.506  -4.012  0.00  0.00    +0.085 A 
ATOM     21  C   UNL     1      -3.011  -9.847  -4.350  0.00  0.00    +0.069 A 
ATOM     22  C   UNL     1      -2.996 -10.177  -5.765  0.00  0.00    -0.023 A 
ATOM     23  C   UNL     1      -2.892  -9.106  -6.581  0.00  0.00    -0.004 A 
ATOM     24  S   UNL     1      -2.827  -7.715  -5.490  0.00  0.00    -0.077 S 
ATOM     25  C   UNL     1      -2.850  -9.117  -8.078  0.00  0.00    +0.043 C 
ATOM     26  C   UNL     1      -2.561 -10.552  -8.542  0.00  0.00    +0.005 C 
ATOM     27  C   UNL     1      -3.493 -11.511  -7.796  0.00  0.00    +0.005 C 
ATOM     28  C   UNL     1      -3.087 -11.590  -6.322  0.00  0.00    +0.037 C 
BRANCH  21  29
ATOM     29  C   UNL     1      -3.117 -10.889  -3.324  0.00  0.00    +0.246 C 
ATOM     30  O   UNL     1      -4.212 -11.243  -2.928  0.00  0.00    -0.270 OA
ATOM     31  N   UNL     1      -2.002 -11.454  -2.820  0.00  0.00    -0.314 N 
ATOM     32  C   UNL     1      -2.109 -12.495  -1.794  0.00  0.00    +0.128 C 
ATOM     33  H   UNL     1      -1.130 -11.172  -3.136  0.00  0.00    +0.149 HD
ENDBRANCH  21  29
ENDBRANCH  18  20
ENDBRANCH   3  16
BRANCH   2  34
ATOM     34  N   UNL     1      -2.885  -3.803  -2.208  0.00  0.00    -0.344 N 
ATOM     35  H   UNL     1      -2.987  -2.844  -2.110  0.00  0.00    +0.144 HD
ATOM     36  H   UNL     1      -2.811  -4.195  -3.093  0.00  0.00    +0.144 HD
ENDBRANCH   2  34
BRANCH   1  37
ATOM     37  C   UNL     1      -2.877  -2.598   0.220  0.00  0.00    +0.125 C 
BRANCH  37  38
ATOM     38  C   UNL     1      -1.447  -2.054   0.230  0.00  0.00    +0.022 C 
BRANCH  38  39
ATOM     39  C   UNL     1      -1.483  -0.529   0.348  0.00  0.00    +0.001 C 
BRANCH  39  41
ATOM     40  C   UNL     1      -0.090   1.541   0.476  0.00  0.00    +0.004 C 
ATOM     41  C   UNL     1      -0.054   0.016   0.357  0.00  0.00    -0.003 C 
ENDBRANCH  39  41
ENDBRANCH  38  39
ENDBRANCH  37  38
ENDBRANCH   1  37
TORSDOF 8
