REMARK  Name = ZINC39946176
REMARK  13 active torsions:
REMARK  status: ('A' for Active; 'I' for Inactive)
REMARK    1  A    between atoms: C_1  and  C_2
REMARK    2  A    between atoms: C_2  and  O_3
REMARK    3  A    between atoms: O_3  and  C_4
REMARK    4  A    between atoms: C_7  and  N_10
REMARK    5  A    between atoms: N_10  and  C_11
REMARK    6  A    between atoms: N_10  and  S_12
REMARK    7  A    between atoms: S_12  and  C_15
REMARK    8  A    between atoms: C_18  and  C_36
REMARK    9  A    between atoms: C_19  and  C_21
REMARK   10  A    between atoms: C_21  and  O_23
REMARK   11  A    between atoms: O_23  and  C_24
REMARK   12  A    between atoms: C_24  and  C_25
REMARK   13  A    between atoms: C_25  and  C_27
REMARK                            x       y       z     vdW  Elec       q    Type
REMARK                         _______ _______ _______ _____ _____    ______ ____
ROOT
ATOM      1  C   UNL     1       3.574  -6.848  -1.663  0.00  0.00    +0.109 A 
ATOM      2  C   UNL     1       4.676  -6.011  -1.651  0.00  0.00    +0.029 A 
ATOM      3  C   UNL     1       5.863  -6.428  -1.077  0.00  0.00    +0.006 A 
ATOM      4  C   UNL     1       5.957  -7.683  -0.512  0.00  0.00    -0.036 A 
ATOM      5  C   UNL     1       4.849  -8.533  -0.521  0.00  0.00    +0.064 A 
ATOM      6  C   UNL     1       3.652  -8.103  -1.097  0.00  0.00    +0.044 A 
ATOM      7  C   UNL     1       7.252  -8.136   0.112  0.00  0.00    +0.044 C 
ENDROOT
BRANCH   1   8
ATOM      8  S   UNL     1       2.067  -6.307  -2.397  0.00  0.00    +0.074 S 
ATOM      9  O   UNL     1       1.348  -7.478  -2.759  0.00  0.00    -0.150 OA
ATOM     10  O   UNL     1       2.412  -5.303  -3.342  0.00  0.00    -0.150 OA
BRANCH   8  11
ATOM     11  N   UNL     1       1.186  -5.558  -1.212  0.00  0.00    -0.206 N 
ATOM     12  C   UNL     1       0.316  -6.348  -0.336  0.00  0.00    +0.157 C 
BRANCH  11  16
ATOM     13  C   UNL     1       1.444  -1.427  -0.719  0.00  0.00    +0.121 A 
ATOM     14  C   UNL     1       1.806  -2.273   0.319  0.00  0.00    +0.047 A 
ATOM     15  C   UNL     1       1.721  -3.642   0.157  0.00  0.00    +0.028 A 
ATOM     16  C   UNL     1       1.272  -4.171  -1.046  0.00  0.00    +0.051 A 
ATOM     17  C   UNL     1       0.910  -3.324  -2.085  0.00  0.00    +0.028 A 
ATOM     18  C   UNL     1       0.991  -1.955  -1.919  0.00  0.00    +0.047 A 
BRANCH  13  19
ATOM     19  O   UNL     1       1.529  -0.080  -0.558  0.00  0.00    -0.492 OA
BRANCH  19  21
ATOM     20  C   UNL     1       2.030   1.925   0.696  0.00  0.00    +0.048 C 
ATOM     21  C   UNL     1       2.004   0.395   0.704  0.00  0.00    +0.225 C 
ENDBRANCH  19  21
ENDBRANCH  13  19
ENDBRANCH  11  16
ENDBRANCH   8  11
ENDBRANCH   1   8
BRANCH   5  22
ATOM     22  C   UNL     1       4.942  -9.878   0.082  0.00  0.00    +0.340 C 
ATOM     23  O   UNL     1       5.946 -10.208   0.681  0.00  0.00    -0.245 OA
BRANCH  22  24
ATOM     24  O   UNL     1       3.913 -10.740  -0.032  0.00  0.00    -0.453 OA
BRANCH  24  25
ATOM     25  C   UNL     1       4.071 -12.024   0.575  0.00  0.00    +0.311 C 
BRANCH  25  26
ATOM     26  C   UNL     1       2.828 -12.845   0.346  0.00  0.00    +0.199 C 
ATOM     27  O   UNL     1       1.898 -12.376  -0.277  0.00  0.00    -0.289 OA
BRANCH  26  28
ATOM     28  C   UNL     1       2.746 -14.158   0.855  0.00  0.00    +0.026 C 
ATOM     29  C   UNL     1       1.688 -15.040   0.729  0.00  0.00    +0.006 A 
ATOM     30  C   UNL     1       0.424 -14.942   0.100  0.00  0.00    +0.010 A 
ATOM     31  C   UNL     1      -0.436 -15.985   0.134  0.00  0.00    +0.001 A 
ATOM     32  C   UNL     1      -0.130 -17.193   0.780  0.00  0.00    +0.002 A 
ATOM     33  C   UNL     1       1.048 -17.389   1.411  0.00  0.00    +0.026 A 
ATOM     34  C   UNL     1       2.043 -16.303   1.421  0.00  0.00    +0.043 A 
ATOM     35  N   UNL     1       3.234 -16.220   1.941  0.00  0.00    -0.380 N 
ATOM     36  C   UNL     1       3.800 -14.899   1.648  0.00  0.00    +0.152 C 
ATOM     37  H   UNL     1       3.678 -16.923   2.441  0.00  0.00    +0.160 HD
ENDBRANCH  26  28
ENDBRANCH  25  26
ENDBRANCH  24  25
ENDBRANCH  22  24
ENDBRANCH   5  22
TORSDOF 10
