REMARK  Name = ZINC22601523
REMARK  5 active torsions:
REMARK  status: ('A' for Active; 'I' for Inactive)
REMARK    1  A    between atoms: C_1  and  C_2
REMARK    2  A    between atoms: C_7  and  C_9
REMARK    3  A    between atoms: C_7  and  C_10
REMARK    4  A    between atoms: N_13  and  C_17
REMARK    5  A    between atoms: C_17  and  C_18
REMARK                            x       y       z     vdW  Elec       q    Type
REMARK                         _______ _______ _______ _____ _____    ______ ____
ROOT
ATOM      1  C   UNL     1      -1.572  -4.133  -3.310  0.00  0.00    +0.213 C 
ENDROOT
BRANCH   1  13
ATOM      2  C   UNL     1      -0.019   1.528   0.010  0.00  0.00    +0.007 C 
ATOM      3  C   UNL     1       0.002  -0.004   0.002  0.00  0.00    -0.011 C 
ATOM      4  C   UNL     1       0.727  -0.492  -1.254  0.00  0.00    +0.038 C 
ATOM      5  C   UNL     1       0.711  -2.014  -1.298  0.00  0.00    +0.113 C 
ATOM      6  C   UNL     1       1.263  -2.646  -0.036  0.00  0.00    +0.041 C 
ATOM      7  C   UNL     1       0.787  -2.030   1.268  0.00  0.00    -0.032 C 
ATOM      8  C   UNL     1       0.763  -0.507   1.227  0.00  0.00    +0.009 C 
ATOM      9  C   UNL     1       1.769  -2.455   2.382  0.00  0.00    +0.011 C 
ATOM     10  C   UNL     1      -0.596  -2.567   1.648  0.00  0.00    +0.011 C 
ATOM     11  C   UNL     1      -0.666  -2.529  -1.638  0.00  0.00    +0.247 C 
ATOM     12  O   UNL     1      -1.717  -2.280  -1.086  0.00  0.00    -0.273 OA
ATOM     13  N   UNL     1      -0.505  -3.321  -2.720  0.00  0.00    -0.215 N 
ATOM     14  C   UNL     1       0.748  -3.270  -3.183  0.00  0.00    +0.310 C 
ATOM     15  O   UNL     1       1.136  -3.886  -4.157  0.00  0.00    -0.252 OA
ATOM     16  N   UNL     1       1.531  -2.463  -2.446  0.00  0.00    -0.285 N 
ATOM     17  H   UNL     1       2.451  -2.215  -2.619  0.00  0.00    +0.151 HD
ENDBRANCH   1  13
BRANCH   1  18
ATOM     18  C   UNL     1      -2.295  -3.328  -4.359  0.00  0.00    +0.234 C 
ATOM     19  O   UNL     1      -1.953  -2.188  -4.591  0.00  0.00    -0.274 OA
ATOM     20  N   UNL     1      -3.321  -3.876  -5.040  0.00  0.00    -0.295 N 
ATOM     21  C   UNL     1      -3.756  -5.254  -4.771  0.00  0.00    +0.114 C 
ATOM     22  C   UNL     1      -5.184  -5.229  -4.214  0.00  0.00    +0.072 C 
ATOM     23  C   UNL     1      -6.023  -4.294  -5.052  0.00  0.00    +0.023 A 
ATOM     24  C   UNL     1      -5.515  -3.351  -5.874  0.00  0.00    -0.002 A 
ATOM     25  C   UNL     1      -6.633  -2.669  -6.489  0.00  0.00    +0.005 A 
ATOM     26  C   UNL     1      -6.717  -1.619  -7.409  0.00  0.00    +0.010 A 
ATOM     27  C   UNL     1      -7.976  -1.217  -7.780  0.00  0.00    +0.001 A 
ATOM     28  C   UNL     1      -9.119  -1.816  -7.274  0.00  0.00    +0.002 A 
ATOM     29  C   UNL     1      -9.066  -2.857  -6.363  0.00  0.00    +0.026 A 
ATOM     30  C   UNL     1      -7.800  -3.285  -5.967  0.00  0.00    +0.047 A 
ATOM     31  N   UNL     1      -7.393  -4.262  -5.105  0.00  0.00    -0.358 N 
ATOM     32  H   UNL     1      -7.984  -4.845  -4.605  0.00  0.00    +0.166 HD
ATOM     33  C   UNL     1      -4.042  -3.107  -6.070  0.00  0.00    +0.145 C 
ENDBRANCH   1  18
TORSDOF 2
