REMARK  Name = ZINC58871836
REMARK  10 active torsions:
REMARK  status: ('A' for Active; 'I' for Inactive)
REMARK    1  A    between atoms: C_1  and  C_2
REMARK    2  A    between atoms: C_2  and  O_3
REMARK    3  A    between atoms: O_3  and  C_4
REMARK    4  A    between atoms: C_6  and  C_23
REMARK    5  A    between atoms: C_9  and  O_10
REMARK    6  A    between atoms: O_10  and  C_11
REMARK    7  A    between atoms: C_11  and  C_13
REMARK    8  A    between atoms: N_24  and  N_25
REMARK    9  A    between atoms: C_26  and  C_28
REMARK   10  A    between atoms: C_31  and  O_34
REMARK                            x       y       z     vdW  Elec       q    Type
REMARK                         _______ _______ _______ _____ _____    ______ ____
ROOT
ATOM      1  C   UNL     1       0.748  -1.796  -1.351  0.00  0.00    +0.163 A 
ATOM      2  C   UNL     1       0.211  -2.644  -0.400  0.00  0.00    +0.059 A 
ATOM      3  C   UNL     1       0.343  -4.027  -0.548  0.00  0.00    -0.002 A 
ATOM      4  C   UNL     1       1.016  -4.547  -1.657  0.00  0.00    +0.013 A 
ATOM      5  C   UNL     1       1.549  -3.695  -2.601  0.00  0.00    +0.051 A 
ATOM      6  C   UNL     1       1.413  -2.322  -2.457  0.00  0.00    +0.173 A 
ENDROOT
BRANCH   3   7
ATOM      7  C   UNL     1      -0.227  -4.936   0.463  0.00  0.00    +0.138 C 
ATOM      8  N   UNL     1      -0.104  -6.221   0.324  0.00  0.00    -0.187 NA
BRANCH   8   9
ATOM      9  N   UNL     1      -0.645  -7.085   1.285  0.00  0.00    -0.203 N 
ATOM     10  C   UNL     1      -0.518  -8.419   1.140  0.00  0.00    +0.263 C 
ATOM     11  O   UNL     1       0.068  -8.873   0.175  0.00  0.00    -0.268 OA
ATOM     12  H   UNL     1      -1.112  -6.723   2.054  0.00  0.00    +0.178 HD
BRANCH  10  13
ATOM     13  C   UNL     1      -1.088  -9.329   2.152  0.00  0.00    +0.039 A 
ATOM     14  C   UNL     1      -1.766  -8.809   3.258  0.00  0.00    +0.016 A 
ATOM     15  C   UNL     1      -2.297  -9.662   4.201  0.00  0.00    +0.046 A 
ATOM     16  C   UNL     1      -2.159 -11.037   4.053  0.00  0.00    +0.117 A 
ATOM     17  C   UNL     1      -1.485 -11.558   2.954  0.00  0.00    +0.046 A 
ATOM     18  C   UNL     1      -0.957 -10.712   2.004  0.00  0.00    +0.016 A 
BRANCH  16  19
ATOM     19  O   UNL     1      -2.683 -11.874   4.984  0.00  0.00    -0.507 OA
ATOM     20  H   UNL     1      -3.594 -12.144   4.802  0.00  0.00    +0.292 HD
ENDBRANCH  16  19
ENDBRANCH  10  13
ENDBRANCH   8   9
ENDBRANCH   3   7
BRANCH   1  21
ATOM     21  O   UNL     1       0.622  -0.450  -1.209  0.00  0.00    -0.489 OA
BRANCH  21  23
ATOM     22  C   UNL     1      -0.113   1.548  -0.066  0.00  0.00    +0.048 C 
ATOM     23  C   UNL     1      -0.072   0.019  -0.051  0.00  0.00    +0.226 C 
ENDBRANCH  21  23
ENDBRANCH   1  21
BRANCH   6  24
ATOM     24  O   UNL     1       1.935  -1.487  -3.393  0.00  0.00    -0.418 OA
BRANCH  24  25
ATOM     25  C   UNL     1       3.131  -0.917  -3.138  0.00  0.00    +0.353 C 
ATOM     26  O   UNL     1       3.754  -1.232  -2.142  0.00  0.00    -0.244 OA
BRANCH  25  27
ATOM     27  C   UNL     1       3.679   0.081  -4.061  0.00  0.00    +0.116 A 
ATOM     28  C   UNL     1       4.860   0.755  -3.978  0.00  0.00    +0.070 A 
ATOM     29  C   UNL     1       5.208   1.683  -4.978  0.00  0.00    +0.008 A 
ATOM     30  C   UNL     1       6.381   2.477  -5.069  0.00  0.00    +0.010 A 
ATOM     31  C   UNL     1       6.563   3.330  -6.109  0.00  0.00    +0.001 A 
ATOM     32  C   UNL     1       5.617   3.461  -7.118  0.00  0.00    +0.001 A 
ATOM     33  C   UNL     1       4.462   2.708  -7.069  0.00  0.00    +0.016 A 
ATOM     34  C   UNL     1       4.263   1.836  -6.019  0.00  0.00    +0.022 A 
ATOM     35  S   UNL     1       2.969   0.706  -5.574  0.00  0.00    -0.080 S 
ATOM     36 CL   UNL     1       5.931   0.472  -2.642  0.00  0.00    -0.082 Cl
ENDBRANCH  25  27
ENDBRANCH  24  25
ENDBRANCH   6  24
TORSDOF 9
