REMARK  Name = ZINC13385069
REMARK  7 active torsions:
REMARK  status: ('A' for Active; 'I' for Inactive)
REMARK    1  A    between atoms: C_1  and  C_2
REMARK    2  A    between atoms: C_2  and  C_4
REMARK    3  A    between atoms: C_5  and  O_24
REMARK    4  A    between atoms: C_8  and  C_23
REMARK    5  A    between atoms: C_12  and  O_22
REMARK    6  A    between atoms: C_14  and  O_21
REMARK    7  A    between atoms: C_15  and  C_18
REMARK                            x       y       z     vdW  Elec       q    Type
REMARK                         _______ _______ _______ _____ _____    ______ ____
ROOT
ATOM      1  C   UNL     1       5.791   5.673  -0.084  0.00  0.00    +0.102 C 
ATOM      2  C   UNL     1       5.824   5.855   1.309  0.00  0.00    +0.134 C 
ATOM      3  C   UNL     1       5.280   4.922   2.205  0.00  0.00    +0.089 C 
ATOM      4  C   UNL     1       4.763   3.767   1.777  0.00  0.00    +0.127 C 
ATOM      5  C   UNL     1       5.063   3.325   0.340  0.00  0.00    +0.120 C 
ATOM      6  C   UNL     1       5.399   4.424  -0.635  0.00  0.00    +0.188 C 
ATOM      7  O   UNL     1       5.337   4.250  -1.836  0.00  0.00    -0.290 OA
ATOM      8  C   UNL     1       3.740   2.698  -0.026  0.00  0.00    +0.058 A 
ATOM      9  C   UNL     1       3.098   2.412  -1.214  0.00  0.00    +0.128 A 
ATOM     10  C   UNL     1       1.836   1.827  -1.205  0.00  0.00    +0.092 A 
ATOM     11  C   UNL     1       1.221   1.531  -0.001  0.00  0.00    +0.136 A 
ATOM     12  C   UNL     1       1.865   1.824   1.210  0.00  0.00    +0.120 A 
ATOM     13  C   UNL     1       3.144   2.404   1.199  0.00  0.00    +0.152 A 
ATOM     14  O   UNL     1       3.979   2.767   2.218  0.00  0.00    -0.458 OA
ATOM     15  C   UNL     1       6.161   2.259   0.338  0.00  0.00    +0.033 C 
ENDROOT
BRANCH  12  16
ATOM     16  C   UNL     1       1.206   1.518   2.488  0.00  0.00    +0.249 C 
ATOM     17  O   UNL     1       1.372   0.434   3.015  0.00  0.00    -0.270 OA
ATOM     18  N   UNL     1       0.418   2.439   3.077  0.00  0.00    -0.325 N 
ATOM     19  H   UNL     1       0.285   3.304   2.657  0.00  0.00    +0.145 HD
ATOM     20  H   UNL     1      -0.017   2.238   3.920  0.00  0.00    +0.145 HD
ENDBRANCH  12  16
BRANCH   1  22
ATOM     21  C   UNL     1       6.114   6.546  -2.435  0.00  0.00    +0.092 C 
ATOM     22  C   UNL     1       6.148   6.737  -0.941  0.00  0.00    +0.167 C 
ATOM     23  O   UNL     1       6.484   7.807  -0.473  0.00  0.00    -0.292 OA
ENDBRANCH   1  22
BRANCH  11  24
ATOM     24  O   UNL     1      -0.011   0.963   0.007  0.00  0.00    -0.506 OA
ATOM     25  H   UNL     1       0.002  -0.004   0.002  0.00  0.00    +0.292 HD
ENDBRANCH  11  24
BRANCH   9  26
ATOM     26  O   UNL     1       3.700   2.703  -2.395  0.00  0.00    -0.506 OA
ATOM     27  H   UNL     1       3.503   3.588  -2.729  0.00  0.00    +0.292 HD
ENDBRANCH   9  26
BRANCH   2  28
ATOM     28  O   UNL     1       6.401   6.969   1.805  0.00  0.00    -0.506 OA
ATOM     29  H   UNL     1       6.348   6.956   2.803  0.00  0.00    +0.292 HD
ENDBRANCH   2  28
TORSDOF 5
