REMARK  Name = ZINC13501253
REMARK  9 active torsions:
REMARK  status: ('A' for Active; 'I' for Inactive)
REMARK    1  A    between atoms: C_1  and  C_2
REMARK    2  A    between atoms: C_9  and  C_14
REMARK    3  A    between atoms: C_14  and  N_70
REMARK    4  A    between atoms: C_15  and  C_16
REMARK    5  A    between atoms: C_15  and  N_70
REMARK    6  A    between atoms: C_16  and  O_17
REMARK    7  A    between atoms: C_18  and  C_24
REMARK    8  A    between atoms: C_18  and  N_70
REMARK    9  A    between atoms: N_28  and  C_29
REMARK                            x       y       z     vdW  Elec       q    Type
REMARK                         _______ _______ _______ _____ _____    ______ ____
ROOT
ATOM      1  N   UNL     1       0.134   0.424   0.187  0.00  0.00    +0.393 N 
ATOM      2  H   UNL     1       0.329   1.408  -0.030  0.00  0.00    -0.080 HD
ENDROOT
BRANCH   1   3
ATOM      3  C   UNL     1      -1.300   0.278   0.515  0.00  0.00    -0.002 C 
ATOM      4  C   UNL     1      -2.129   0.899  -0.611  0.00  0.00    -0.004 C 
ATOM      5  C   UNL     1      -1.760   2.376  -0.761  0.00  0.00    -0.001 C 
ATOM      6  C   UNL     1      -2.050   3.110   0.550  0.00  0.00    -0.000 C 
ATOM      7  C   UNL     1      -1.221   2.489   1.676  0.00  0.00    -0.001 C 
ATOM      8  C   UNL     1      -1.589   1.012   1.826  0.00  0.00    -0.004 C 
BRANCH   3   9
ATOM      9  C   UNL     1      -1.663  -1.177   0.663  0.00  0.00    +0.141 A 
ATOM     10  N   UNL     1      -0.857  -2.202   0.532  0.00  0.00    -0.115 NA
ATOM     11  N   UNL     1      -1.541  -3.275   0.734  0.00  0.00    -0.023 NA
ATOM     12  N   UNL     1      -2.763  -2.961   0.989  0.00  0.00    -0.044 NA
ATOM     13  N   UNL     1      -2.877  -1.676   0.960  0.00  0.00    -0.228 N 
BRANCH  13  14
ATOM     14  C   UNL     1      -4.099  -0.905   1.202  0.00  0.00    +0.111 C 
ATOM     15  C   UNL     1      -4.614  -1.194   2.613  0.00  0.00    +0.027 C 
ATOM     16  C   UNL     1      -5.890  -0.389   2.866  0.00  0.00    +0.002 C 
ATOM     17  C   UNL     1      -6.956  -0.788   1.843  0.00  0.00    +0.000 C 
ATOM     18  C   UNL     1      -6.441  -0.499   0.431  0.00  0.00    +0.002 C 
ATOM     19  C   UNL     1      -5.165  -1.304   0.179  0.00  0.00    +0.027 C 
ENDBRANCH  13  14
ENDBRANCH   3   9
ENDBRANCH   1   3
BRANCH   1  20
ATOM     20  C   UNL     1       0.961   0.015   1.343  0.00  0.00    -0.036 C 
BRANCH  20  29
ATOM     21  C   UNL     1       6.791   4.650   1.708  0.00  0.00    +0.044 C 
ATOM     22  C   UNL     1       6.178   3.341   1.284  0.00  0.00    -0.050 A 
ATOM     23  C   UNL     1       6.950   2.407   0.606  0.00  0.00    +0.005 A 
ATOM     24  C   UNL     1       6.410   1.203   0.209  0.00  0.00    +0.026 A 
ATOM     25  C   UNL     1       5.077   0.918   0.488  0.00  0.00    +0.049 A 
ATOM     26  C   UNL     1       4.298   1.867   1.175  0.00  0.00    -0.001 A 
ATOM     27  C   UNL     1       4.867   3.083   1.569  0.00  0.00    +0.013 A 
ATOM     28  C   UNL     1       2.896   1.559   1.466  0.00  0.00    +0.017 A 
ATOM     29  C   UNL     1       2.399   0.364   1.060  0.00  0.00    +0.001 A 
ATOM     30  C   UNL     1       3.225  -0.555   0.379  0.00  0.00    +0.251 A 
ATOM     31  O   UNL     1       2.759  -1.625   0.027  0.00  0.00    -0.268 OA
ATOM     32  N   UNL     1       4.511  -0.278   0.103  0.00  0.00    -0.322 N 
ATOM     33  H   UNL     1       5.050  -0.931  -0.370  0.00  0.00    +0.169 HD
ENDBRANCH  20  29
ENDBRANCH   1  20
BRANCH   1  34
ATOM     34  C   UNL     1       0.469  -0.403  -0.991  0.00  0.00    -0.049 C 
BRANCH  34  35
ATOM     35  C   UNL     1       0.225   0.426  -2.254  0.00  0.00    +0.137 C 
BRANCH  35  36
ATOM     36  O   UNL     1       1.051   1.591  -2.225  0.00  0.00    -0.397 OA
ATOM     37  H   UNL     1       0.894   2.203  -2.958  0.00  0.00    +0.209 HD
ENDBRANCH  35  36
ENDBRANCH  34  35
ENDBRANCH   1  34
TORSDOF 8
