REMARK  Name = ZINC41547155
REMARK  8 active torsions:
REMARK  status: ('A' for Active; 'I' for Inactive)
REMARK    1  A    between atoms: C_1  and  C_2
REMARK    2  A    between atoms: C_11  and  C_13
REMARK    3  A    between atoms: C_11  and  C_14
REMARK    4  A    between atoms: N_16  and  C_17
REMARK    5  A    between atoms: C_18  and  C_25
REMARK    6  A    between atoms: C_20  and  C_22
REMARK    7  A    between atoms: C_22  and  C_23
REMARK    8  A    between atoms: C_22  and  C_24
REMARK                            x       y       z     vdW  Elec       q    Type
REMARK                         _______ _______ _______ _____ _____    ______ ____
ROOT
ATOM      1  C   UNL     1       0.304  -6.238   1.087  0.00  0.00    +0.270 C 
ATOM      2  O   UNL     1       0.207  -6.812   2.151  0.00  0.00    -0.271 OA
ATOM      3  N   UNL     1       0.052  -6.899  -0.060  0.00  0.00    -0.276 N 
ATOM      4  H   UNL     1       0.129  -6.440  -0.911  0.00  0.00    +0.155 HD
ENDROOT
BRANCH   1  15
ATOM      5  C   UNL     1      -0.018   1.503   0.010  0.00  0.00    +0.044 C 
ATOM      6  C   UNL     1       0.002  -0.004   0.002  0.00  0.00    -0.048 A 
ATOM      7  C   UNL     1       0.006  -0.687  -1.200  0.00  0.00    +0.007 A 
ATOM      8  C   UNL     1       0.019  -2.070  -1.216  0.00  0.00    +0.048 A 
ATOM      9  C   UNL     1       0.031  -2.773  -0.024  0.00  0.00    +0.144 A 
ATOM     10  C   UNL     1       0.038  -2.085   1.188  0.00  0.00    +0.076 A 
ATOM     11  C   UNL     1       0.023  -0.700   1.197  0.00  0.00    +0.030 A 
ATOM     12  N   UNL     1       0.086  -2.805   2.389  0.00  0.00    -0.279 N 
ATOM     13  C   UNL     1       0.342  -4.129   2.355  0.00  0.00    +0.270 C 
ATOM     14  O   UNL     1       0.279  -4.788   3.371  0.00  0.00    -0.271 OA
ATOM     15  C   UNL     1       0.706  -4.787   1.048  0.00  0.00    +0.258 C 
ATOM     16  O   UNL     1       0.025  -4.133  -0.026  0.00  0.00    -0.465 OA
ATOM     17  C   UNL     1       2.217  -4.684   0.830  0.00  0.00    +0.076 C 
ATOM     18  H   UNL     1      -0.063  -2.356   3.236  0.00  0.00    +0.155 HD
ENDBRANCH   1  15
BRANCH   3  19
ATOM     19  C   UNL     1      -0.319  -8.235  -0.024  0.00  0.00    +0.084 A 
ATOM     20  C   UNL     1      -0.608  -9.069  -1.094  0.00  0.00    +0.065 A 
ATOM     21  C   UNL     1      -0.970 -10.431  -0.772  0.00  0.00    +0.026 A 
ATOM     22  C   UNL     1      -0.986 -10.740   0.537  0.00  0.00    -0.005 A 
ATOM     23  S   UNL     1      -0.512  -9.216   1.324  0.00  0.00    -0.077 S 
BRANCH  20  24
ATOM     24  C   UNL     1      -0.551  -8.593  -2.480  0.00  0.00    +0.244 C 
ATOM     25  O   UNL     1      -0.242  -7.440  -2.715  0.00  0.00    -0.270 OA
ATOM     26  N   UNL     1      -0.839  -9.434  -3.493  0.00  0.00    -0.325 N 
ATOM     27  H   UNL     1      -1.085 -10.353  -3.306  0.00  0.00    +0.145 HD
ATOM     28  H   UNL     1      -0.801  -9.119  -4.410  0.00  0.00    +0.145 HD
ENDBRANCH  20  24
BRANCH  22  29
ATOM     29  C   UNL     1      -1.319 -12.060   1.182  0.00  0.00    +0.020 C 
ATOM     30  C   UNL     1      -0.115 -12.553   1.987  0.00  0.00    +0.013 C 
ATOM     31  C   UNL     1      -2.519 -11.883   2.116  0.00  0.00    +0.013 C 
ENDBRANCH  22  29
ENDBRANCH   3  19
TORSDOF 4
