REMARK  Name = ZINC40984092
REMARK  14 active torsions:
REMARK  status: ('A' for Active; 'I' for Inactive)
REMARK    1  A    between atoms: C_1  and  C_2
REMARK    2  A    between atoms: C_3  and  C_19
REMARK    3  A    between atoms: C_5  and  C_7
REMARK    4  A    between atoms: C_9  and  O_17
REMARK    5  A    between atoms: C_10  and  O_15
REMARK    6  A    between atoms: C_11  and  O_13
REMARK    7  A    between atoms: O_13  and  C_14
REMARK    8  A    between atoms: O_15  and  C_16
REMARK    9  A    between atoms: O_17  and  C_18
REMARK   10  A    between atoms: C_19  and  N_20
REMARK   11  A    between atoms: C_23  and  C_26
REMARK   12  A    between atoms: N_28  and  C_29
REMARK   13  A    between atoms: C_29  and  C_30
REMARK   14  A    between atoms: C_30  and  C_31
REMARK                            x       y       z     vdW  Elec       q    Type
REMARK                         _______ _______ _______ _____ _____    ______ ____
ROOT
ATOM      1  C   UNL     1      -2.513  -0.381   0.011  0.00  0.00    -0.019 C 
ENDROOT
BRANCH   1   2
ATOM      2  N   UNL     1      -2.988  -0.232  -1.371  0.00  0.00    +0.383 N 
ATOM      3  C   UNL     1      -2.973  -1.540  -2.035  0.00  0.00    -0.078 C 
ATOM      4  C   UNL     1      -3.389  -1.378  -3.499  0.00  0.00    -0.006 C 
ATOM      5  C   UNL     1      -4.802  -0.790  -3.559  0.00  0.00    +0.071 C 
ATOM      6  C   UNL     1      -4.823   0.539  -2.799  0.00  0.00    -0.006 C 
ATOM      7  C   UNL     1      -4.354   0.306  -1.362  0.00  0.00    -0.078 C 
ATOM      8  H   UNL     1      -2.381   0.403  -1.867  0.00  0.00    -0.081 HD
BRANCH   5   9
ATOM      9  C   UNL     1      -5.188  -0.554  -4.997  0.00  0.00    +0.216 C 
ATOM     10  O   UNL     1      -4.412  -0.830  -5.887  0.00  0.00    -0.276 OA
ATOM     11  N   UNL     1      -6.397  -0.038  -5.294  0.00  0.00    -0.315 N 
ATOM     12  H   UNL     1      -7.019   0.182  -4.582  0.00  0.00    +0.149 HD
BRANCH  11  13
ATOM     13  C   UNL     1      -6.773   0.191  -6.691  0.00  0.00    +0.108 C 
BRANCH  13  14
ATOM     14  C   UNL     1      -8.184   0.779  -6.750  0.00  0.00    +0.049 C 
BRANCH  14  15
ATOM     15  C   UNL     1      -8.571   1.014  -8.187  0.00  0.00    -0.072 C 
ATOM     16  C   UNL     1      -9.255   0.096  -8.790  0.00  0.00    -0.028 C 
ATOM     17  C   UNL     1      -9.703   0.182 -10.220  0.00  0.00    +0.027 C 
ATOM     18  C   UNL     1      -9.620   1.629 -10.711  0.00  0.00    +0.004 C 
ATOM     19  C   UNL     1      -8.236   2.185 -10.354  0.00  0.00    +0.005 C 
ATOM     20  C   UNL     1      -8.144   2.302  -8.829  0.00  0.00    +0.030 C 
ENDBRANCH  14  15
ENDBRANCH  13  14
ENDBRANCH  11  13
ENDBRANCH   5   9
ENDBRANCH   1   2
BRANCH   1  23
ATOM     21  C   UNL     1      -0.018   1.503   0.010  0.00  0.00    +0.088 C 
ATOM     22  C   UNL     1       0.002  -0.004   0.002  0.00  0.00    +0.124 A 
ATOM     23  C   UNL     1      -1.070  -0.816   0.003  0.00  0.00    +0.066 A 
ATOM     24  N   UNL     1      -0.627  -2.083  -0.006  0.00  0.00    -0.216 NA
ATOM     25  C   UNL     1       0.686  -2.068  -0.012  0.00  0.00    +0.228 A 
ATOM     26  O   UNL     1       1.099  -0.788  -0.013  0.00  0.00    -0.440 OA
BRANCH  25  27
ATOM     27  C   UNL     1       1.562  -3.257  -0.022  0.00  0.00    +0.044 A 
ATOM     28  C   UNL     1       1.004  -4.537  -0.032  0.00  0.00    +0.062 A 
ATOM     29  C   UNL     1       1.827  -5.649  -0.041  0.00  0.00    +0.166 A 
ATOM     30  C   UNL     1       3.209  -5.493  -0.041  0.00  0.00    +0.204 A 
ATOM     31  C   UNL     1       3.768  -4.219  -0.031  0.00  0.00    +0.166 A 
ATOM     32  C   UNL     1       2.950  -3.104  -0.028  0.00  0.00    +0.062 A 
BRANCH  31  33
ATOM     33  O   UNL     1       5.120  -4.070  -0.031  0.00  0.00    -0.491 OA
ATOM     34  C   UNL     1       5.625  -2.733  -0.021  0.00  0.00    +0.277 C 
ENDBRANCH  31  33
BRANCH  30  35
ATOM     35  O   UNL     1       4.016  -6.588  -0.050  0.00  0.00    -0.488 OA
ATOM     36  C   UNL     1       4.400  -7.101  -1.327  0.00  0.00    +0.277 C 
ENDBRANCH  30  35
BRANCH  29  37
ATOM     37  O   UNL     1       1.283  -6.896  -0.050  0.00  0.00    -0.491 OA
ATOM     38  C   UNL     1      -0.143  -6.982  -0.050  0.00  0.00    +0.277 C 
ENDBRANCH  29  37
ENDBRANCH  25  27
ENDBRANCH   1  23
TORSDOF 10
