REMARK  Name = ZINC19202177
REMARK  10 active torsions:
REMARK  status: ('A' for Active; 'I' for Inactive)
REMARK    1  A    between atoms: C_1  and  C_2
REMARK    2  A    between atoms: C_2  and  C_3
REMARK    3  A    between atoms: C_3  and  C_4
REMARK    4  A    between atoms: C_4  and  N_5
REMARK    5  A    between atoms: C_6  and  N_29
REMARK    6  A    between atoms: C_7  and  N_14
REMARK    7  A    between atoms: N_14  and  C_15
REMARK    8  A    between atoms: C_16  and  C_18
REMARK    9  A    between atoms: C_18  and  C_19
REMARK   10  A    between atoms: C_22  and  C_24
REMARK                            x       y       z     vdW  Elec       q    Type
REMARK                         _______ _______ _______ _____ _____    ______ ____
ROOT
ATOM      1  N   UNL     1      -0.391  -0.145   0.158  0.00  0.00    -0.280 N 
ATOM      2  C   UNL     1      -0.321  -0.704  -1.097  0.00  0.00    +0.127 A 
ATOM      3  C   UNL     1      -0.020  -2.045  -1.222  0.00  0.00    +0.139 A 
ATOM      4  C   UNL     1       0.198  -2.803  -0.056  0.00  0.00    +0.277 A 
ATOM      5  O   UNL     1       0.461  -3.991  -0.137  0.00  0.00    -0.266 OA
ATOM      6  N   UNL     1       0.113  -2.208   1.150  0.00  0.00    -0.273 N 
ATOM      7  H   UNL     1       0.281  -2.794   2.065  0.00  0.00    +0.173 HD
ATOM      8  C   UNL     1      -0.178  -0.899   1.252  0.00  0.00    +0.331 A 
ATOM      9  O   UNL     1      -0.248  -0.388   2.353  0.00  0.00    -0.246 OA
ENDROOT
BRANCH   3  10
ATOM     10  N   UNL     1       0.064  -2.646  -2.495  0.00  0.00    -0.267 N 
ATOM     11  C   UNL     1       1.133  -2.259  -3.419  0.00  0.00    +0.138 C 
ATOM     12  C   UNL     1      -0.841  -3.577  -2.863  0.00  0.00    +0.226 C 
ATOM     13  O   UNL     1      -1.672  -3.962  -2.067  0.00  0.00    -0.275 OA
BRANCH  12  14
ATOM     14  C   UNL     1      -0.820  -4.138  -4.261  0.00  0.00    +0.152 C 
BRANCH  14  15
ATOM     15  C   UNL     1      -1.925  -5.151  -4.413  0.00  0.00    +0.058 A 
ATOM     16  C   UNL     1      -2.841  -5.015  -5.406  0.00  0.00    +0.071 A 
ATOM     17  S   UNL     1      -3.866  -6.450  -5.109  0.00  0.00    -0.075 S 
ATOM     18  C   UNL     1      -2.970  -7.070  -3.692  0.00  0.00    +0.109 A 
ATOM     19  N   UNL     1      -2.007  -6.165  -3.580  0.00  0.00    -0.243 NA
BRANCH  18  20
ATOM     20  C   UNL     1      -3.231  -8.268  -2.867  0.00  0.00    +0.014 A 
ATOM     21  C   UNL     1      -4.308  -9.107  -3.148  0.00  0.00    +0.018 A 
ATOM     22  C   UNL     1      -4.514 -10.193  -2.371  0.00  0.00    +0.046 A 
ATOM     23  S   UNL     1      -3.178 -10.076  -1.193  0.00  0.00    -0.104 S 
ATOM     24  C   UNL     1      -2.418  -8.584  -1.812  0.00  0.00    +0.055 A 
ENDBRANCH  18  20
ENDBRANCH  14  15
ENDBRANCH  12  14
ENDBRANCH   3  10
BRANCH   2  25
ATOM     25  N   UNL     1      -0.545   0.066  -2.213  0.00  0.00    -0.343 N 
ATOM     26  H   UNL     1      -0.488  -0.388  -3.214  0.00  0.00    +0.144 HD
ATOM     27  H   UNL     1      -0.781   1.135  -2.107  0.00  0.00    +0.144 HD
ENDBRANCH   2  25
BRANCH   1  28
ATOM     28  C   UNL     1      -0.706   1.278   0.305  0.00  0.00    +0.128 C 
BRANCH  28  29
ATOM     29  C   UNL     1       0.591   2.090   0.300  0.00  0.00    +0.021 C 
BRANCH  29  31
ATOM     30  C   UNL     1       1.559   4.389   0.449  0.00  0.00    +0.004 C 
ATOM     31  C   UNL     1       0.263   3.577   0.454  0.00  0.00    -0.002 C 
ENDBRANCH  29  31
ENDBRANCH  28  29
ENDBRANCH   1  28
TORSDOF 8
