REMARK  Name = ZINC40758354
REMARK  6 active torsions:
REMARK  status: ('A' for Active; 'I' for Inactive)
REMARK    1  A    between atoms: C_1  and  C_2
REMARK    2  A    between atoms: C_5  and  C_8
REMARK    3  A    between atoms: C_8  and  N_9
REMARK    4  A    between atoms: C_11  and  N_27
REMARK    5  A    between atoms: C_12  and  N_16
REMARK    6  A    between atoms: N_16  and  C_17
REMARK                            x       y       z     vdW  Elec       q    Type
REMARK                         _______ _______ _______ _____ _____    ______ ____
ROOT
ATOM      1  N   UNL     1       1.449  -4.745   0.022  0.00  0.00    -0.323 N 
ATOM      2  C   UNL     1       1.720  -6.108  -0.008  0.00  0.00    +0.145 A 
ATOM      3  C   UNL     1       3.038  -6.569  -0.017  0.00  0.00    +0.105 A 
ATOM      4  C   UNL     1       3.254  -7.947  -0.046  0.00  0.00    +0.149 A 
ATOM      5  N   UNL     1       2.203  -8.764  -0.064  0.00  0.00    -0.219 NA
ATOM      6  C   UNL     1       0.974  -8.288  -0.054  0.00  0.00    +0.225 A 
ATOM      7  N   UNL     1       0.727  -6.994  -0.021  0.00  0.00    -0.219 NA
ATOM      8  H   UNL     1       2.178  -4.106   0.031  0.00  0.00    +0.148 HD
ENDROOT
BRANCH   3   9
ATOM      9  N   UNL     1       4.116  -5.670   0.001  0.00  0.00    -0.353 N 
ATOM     10  H   UNL     1       3.951  -4.714   0.021  0.00  0.00    +0.143 HD
ATOM     11  H   UNL     1       5.027  -6.005  -0.006  0.00  0.00    +0.143 HD
ENDBRANCH   3   9
BRANCH   4  12
ATOM     12  N   UNL     1       4.546  -8.459  -0.058  0.00  0.00    -0.296 N 
ATOM     13  H   UNL     1       5.305  -7.860  -0.133  0.00  0.00    +0.154 HD
BRANCH  12  14
ATOM     14  C   UNL     1       4.752  -9.835   0.039  0.00  0.00    +0.059 A 
ATOM     15  C   UNL     1       3.805 -10.639   0.636  0.00  0.00    +0.025 A 
ATOM     16  C   UNL     1       3.998 -12.013   0.739  0.00  0.00    +0.003 A 
ATOM     17  C   UNL     1       5.126 -12.601   0.253  0.00  0.00    +0.010 A 
ATOM     18  C   UNL     1       6.115 -11.816  -0.362  0.00  0.00    +0.002 A 
ATOM     19  C   UNL     1       5.930 -10.417  -0.479  0.00  0.00    +0.092 A 
ATOM     20  N   UNL     1       6.866  -9.669  -1.068  0.00  0.00    -0.253 NA
ATOM     21  C   UNL     1       7.962 -10.203  -1.551  0.00  0.00    +0.111 A 
ATOM     22  C   UNL     1       8.205 -11.572  -1.474  0.00  0.00    +0.020 A 
ATOM     23  C   UNL     1       7.293 -12.393  -0.875  0.00  0.00    +0.011 A 
ENDBRANCH  12  14
ENDBRANCH   4  12
BRANCH   1  24
ATOM     24  C   UNL     1       0.061  -4.274   0.038  0.00  0.00    +0.138 C 
BRANCH  24  29
ATOM     25  C   UNL     1      -0.014   1.503   0.157  0.00  0.00    +0.044 C 
ATOM     26  C   UNL     1       0.006  -0.004   0.126  0.00  0.00    -0.050 A 
ATOM     27  C   UNL     1       0.010  -0.670  -1.085  0.00  0.00    +0.003 A 
ATOM     28  C   UNL     1       0.029  -2.052  -1.114  0.00  0.00    +0.005 A 
ATOM     29  C   UNL     1       0.043  -2.768   0.069  0.00  0.00    -0.030 A 
ATOM     30  C   UNL     1       0.039  -2.101   1.280  0.00  0.00    +0.005 A 
ATOM     31  C   UNL     1       0.025  -0.719   1.308  0.00  0.00    +0.003 A 
ENDBRANCH  24  29
ENDBRANCH   1  24
TORSDOF 5
