REMARK  Name = ZINC02492919
REMARK  5 active torsions:
REMARK  status: ('A' for Active; 'I' for Inactive)
REMARK    1  A    between atoms: C_1  and  C_2
REMARK    2  A    between atoms: C_2  and  O_3
REMARK    3  A    between atoms: O_3  and  C_4
REMARK    4  A    between atoms: C_7  and  C_10
REMARK    5  A    between atoms: C_19  and  C_23
REMARK                            x       y       z     vdW  Elec       q    Type
REMARK                         _______ _______ _______ _____ _____    ______ ____
ROOT
ATOM      1  C   UNL     1      -2.001  -6.092  -0.011  0.00  0.00    +0.190 C 
ATOM      2  N   UNL     1      -3.269  -6.425  -0.684  0.00  0.00    -0.316 N 
ATOM      3  C   UNL     1      -3.247  -6.463  -2.057  0.00  0.00    +0.080 A 
ATOM      4  C   UNL     1      -2.071  -6.702  -2.783  0.00  0.00    +0.068 A 
ATOM      5  C   UNL     1      -2.214  -6.697  -4.229  0.00  0.00    -0.023 A 
ATOM      6  C   UNL     1      -3.471  -6.470  -4.668  0.00  0.00    -0.004 A 
ATOM      7  S   UNL     1      -4.436  -6.266  -3.196  0.00  0.00    -0.078 S 
ATOM      8  C   UNL     1      -3.930  -6.405  -6.091  0.00  0.00    +0.046 C 
ATOM      9  C   UNL     1      -2.695  -6.264  -6.992  0.00  0.00    -0.009 C 
ATOM     10  C   UNL     1      -1.653  -7.304  -6.569  0.00  0.00    +0.008 C 
ATOM     11  C   UNL     1      -1.069  -6.928  -5.205  0.00  0.00    +0.037 C 
ATOM     12  C   UNL     1      -3.094  -6.500  -8.450  0.00  0.00    +0.008 C 
ATOM     13  C   UNL     1      -0.825  -6.938  -2.018  0.00  0.00    +0.248 C 
ATOM     14  O   UNL     1       0.191  -7.325  -2.565  0.00  0.00    -0.270 OA
ATOM     15  N   UNL     1      -0.864  -6.705  -0.690  0.00  0.00    -0.289 N 
ATOM     16  H   UNL     1      -4.079  -6.607  -0.182  0.00  0.00    +0.149 HD
ATOM     17  H   UNL     1      -0.093  -6.958  -0.158  0.00  0.00    +0.151 HD
ENDROOT
BRANCH   1  21
ATOM     18  C   UNL     1      -1.498  -1.848   0.006  0.00  0.00    +0.121 A 
ATOM     19  C   UNL     1      -0.388  -2.679  -0.003  0.00  0.00    +0.046 A 
ATOM     20  C   UNL     1      -0.553  -4.051  -0.008  0.00  0.00    +0.010 A 
ATOM     21  C   UNL     1      -1.823  -4.596  -0.005  0.00  0.00    -0.009 A 
ATOM     22  C   UNL     1      -2.932  -3.769   0.004  0.00  0.00    +0.010 A 
ATOM     23  C   UNL     1      -2.772  -2.397   0.016  0.00  0.00    +0.046 A 
BRANCH  18  24
ATOM     24  O   UNL     1      -1.339  -0.499   0.012  0.00  0.00    -0.492 OA
BRANCH  24  26
ATOM     25  C   UNL     1      -0.019   1.526   0.010  0.00  0.00    +0.048 C 
ATOM     26  C   UNL     1       0.002  -0.004   0.002  0.00  0.00    +0.225 C 
ENDBRANCH  24  26
ENDBRANCH  18  24
ENDBRANCH   1  21
TORSDOF 3
