REMARK  Name = ZINC13008639
REMARK  10 active torsions:
REMARK  status: ('A' for Active; 'I' for Inactive)
REMARK    1  A    between atoms: C_1  and  N_2
REMARK    2  A    between atoms: C_10  and  C_12
REMARK    3  A    between atoms: C_12  and  C_14
REMARK    4  A    between atoms: C_12  and  N_57
REMARK    5  A    between atoms: C_14  and  N_15
REMARK    6  A    between atoms: C_16  and  C_18
REMARK    7  A    between atoms: N_20  and  C_21
REMARK    8  A    between atoms: C_26  and  C_27
REMARK    9  A    between atoms: C_30  and  N_57
REMARK   10  A    between atoms: C_31  and  N_57
REMARK                            x       y       z     vdW  Elec       q    Type
REMARK                         _______ _______ _______ _____ _____    ______ ____
ROOT
ATOM      1  C   UNL     1       4.991  11.112  -0.596  0.00  0.00    +0.094 C 
ENDROOT
BRANCH   1   2
ATOM      2  N   UNL     1       3.573  11.150  -0.232  0.00  0.00    -0.309 N 
ATOM      3  C   UNL     1       2.896  10.001  -0.040  0.00  0.00    +0.299 C 
ATOM      4  O   UNL     1       3.461   8.934  -0.168  0.00  0.00    -0.265 OA
ATOM      5  H   UNL     1       3.121  12.002  -0.130  0.00  0.00    +0.149 HD
BRANCH   3   6
ATOM      6  C   UNL     1       1.449  10.039   0.331  0.00  0.00    +0.303 C 
ATOM      7  O   UNL     1       0.884  11.105   0.459  0.00  0.00    -0.265 OA
ATOM      8  N   UNL     1       0.772   8.890   0.523  0.00  0.00    -0.277 N 
ATOM      9  H   UNL     1       1.238   8.040   0.484  0.00  0.00    +0.155 HD
BRANCH   8  10
ATOM     10  C   UNL     1      -0.596   8.922   0.779  0.00  0.00    +0.053 A 
ATOM     11  C   UNL     1      -1.341  10.044   0.443  0.00  0.00    +0.044 A 
ATOM     12  C   UNL     1      -2.700  10.074   0.698  0.00  0.00    +0.043 A 
ATOM     13  C   UNL     1      -3.327   8.985   1.284  0.00  0.00    +0.021 A 
ATOM     14  C   UNL     1      -2.601   7.866   1.629  0.00  0.00    +0.022 A 
ATOM     15  C   UNL     1      -1.228   7.821   1.377  0.00  0.00    +0.073 A 
ATOM     16 CL   UNL     1      -3.626  11.480   0.275  0.00  0.00    -0.083 Cl
BRANCH  15  17
ATOM     17  C   UNL     1      -0.469   6.658   1.728  0.00  0.00    +0.101 C 
ATOM     18  N   UNL     1       0.133   5.736   2.006  0.00  0.00    -0.191 NA
ENDBRANCH  15  17
ENDBRANCH   8  10
ENDBRANCH   3   6
ENDBRANCH   1   2
BRANCH   1  19
ATOM     19  C   UNL     1       5.472  12.528  -0.921  0.00  0.00    -0.021 C 
BRANCH  19  29
ATOM     20  C   UNL     1      11.416  13.064  -2.993  0.00  0.00    +0.129 C 
ATOM     21  N   UNL     1      11.095  12.471  -1.688  0.00  0.00    -0.333 N 
ATOM     22  C   UNL     1      11.877  13.098  -0.620  0.00  0.00    +0.105 C 
ATOM     23  C   UNL     1      11.481  12.459   0.717  0.00  0.00    +0.024 C 
ATOM     24  C   UNL     1      10.043  12.876   1.031  0.00  0.00    +0.038 C 
ATOM     25  C   UNL     1       9.180  12.680  -0.190  0.00  0.00    -0.026 A 
ATOM     26  C   UNL     1       9.722  12.499  -1.450  0.00  0.00    +0.033 A 
ATOM     27  C   UNL     1       8.871  12.333  -2.545  0.00  0.00    +0.023 A 
ATOM     28  C   UNL     1       7.504  12.337  -2.372  0.00  0.00    +0.004 A 
ATOM     29  C   UNL     1       6.967  12.519  -1.111  0.00  0.00    -0.059 A 
ATOM     30  C   UNL     1       7.804  12.688  -0.025  0.00  0.00    +0.007 A 
ENDBRANCH  19  29
BRANCH  19  33
ATOM     31  C   UNL     1       4.625  11.884  -3.095  0.00  0.00    -0.096 C 
ATOM     32  C   UNL     1       3.554  13.669  -1.858  0.00  0.00    -0.096 C 
ATOM     33  N   UNL     1       4.842  13.013  -2.167  0.00  0.00    +0.382 N 
ATOM     34  H   UNL     1       5.466  13.696  -2.612  0.00  0.00    -0.082 HD
ENDBRANCH  19  33
ENDBRANCH   1  19
TORSDOF 7
