REMARK  Name = ZINC20550447
REMARK  10 active torsions:
REMARK  status: ('A' for Active; 'I' for Inactive)
REMARK    1  A    between atoms: C_1  and  C_2
REMARK    2  A    between atoms: C_2  and  C_3
REMARK    3  A    between atoms: C_2  and  C_4
REMARK    4  A    between atoms: C_9  and  N_10
REMARK    5  A    between atoms: C_11  and  C_13
REMARK    6  A    between atoms: C_14  and  N_15
REMARK    7  A    between atoms: C_14  and  C_26
REMARK    8  A    between atoms: N_15  and  N_16
REMARK    9  A    between atoms: C_17  and  C_19
REMARK   10  A    between atoms: C_23  and  O_25
REMARK                            x       y       z     vdW  Elec       q    Type
REMARK                         _______ _______ _______ _____ _____    ______ ____
ROOT
ATOM      1  C   UNL     1      -4.968  -3.115   0.014  0.00  0.00    +0.087 C 
ATOM      2  C   UNL     1      -3.670  -2.350   0.012  0.00  0.00    +0.024 C 
ATOM      3  C   UNL     1      -2.750  -2.429  -1.179  0.00  0.00    +0.062 C 
ENDROOT
BRANCH   1   5
ATOM      4  N   UNL     1      -6.196  -4.634  -1.505  0.00  0.00    -0.282 N 
ATOM      5  C   UNL     1      -5.106  -3.873  -1.282  0.00  0.00    +0.243 C 
ATOM      6  O   UNL     1      -4.235  -3.799  -2.123  0.00  0.00    -0.270 OA
ATOM      7  H   UNL     1      -6.949  -4.762  -0.713  0.00  0.00    +0.155 HD
BRANCH   4  13
ATOM      8  C   UNL     1      -7.643  -5.405  -3.278  0.00  0.00    -0.024 A 
ATOM      9  C   UNL     1      -7.810  -6.025  -4.501  0.00  0.00    +0.006 A 
ATOM     10  C   UNL     1      -6.712  -6.502  -5.193  0.00  0.00    +0.000 A 
ATOM     11  C   UNL     1      -5.443  -6.360  -4.663  0.00  0.00    +0.002 A 
ATOM     12  C   UNL     1      -5.268  -5.737  -3.443  0.00  0.00    +0.023 A 
ATOM     13  C   UNL     1      -6.369  -5.261  -2.744  0.00  0.00    +0.037 A 
BRANCH   8  15
ATOM     14  C   UNL     1      -9.630  -3.930  -3.422  0.00  0.00    +0.012 C 
ATOM     15  C   UNL     1      -8.840  -4.885  -2.526  0.00  0.00    +0.015 C 
ATOM     16  C   UNL     1      -9.734  -6.058  -2.116  0.00  0.00    +0.012 C 
ENDBRANCH   8  15
ENDBRANCH   4  13
ENDBRANCH   1   5
BRANCH   2  17
ATOM     17  N   UNL     1      -3.349  -1.632   1.023  0.00  0.00    -0.268 N 
ATOM     18  H   UNL     1      -4.021  -1.575   1.892  0.00  0.00    +0.170 HD
BRANCH  17  19
ATOM     19  N   UNL     1      -2.143  -0.920   1.021  0.00  0.00    -0.233 N 
ATOM     20  C   UNL     1      -1.805  -0.165   2.085  0.00  0.00    +0.260 C 
ATOM     21  O   UNL     1      -2.547  -0.101   3.046  0.00  0.00    -0.269 OA
ATOM     22  H   UNL     1      -1.471  -0.978   0.152  0.00  0.00    +0.173 HD
BRANCH  20  23
ATOM     23  C   UNL     1      -0.532   0.586   2.084  0.00  0.00    +0.042 A 
ATOM     24  C   UNL     1       0.322   0.515   0.982  0.00  0.00    +0.013 A 
ATOM     25  C   UNL     1       1.507   1.222   0.982  0.00  0.00    +0.004 A 
ATOM     26  C   UNL     1       1.855   1.998   2.072  0.00  0.00    +0.045 A 
ATOM     27  C   UNL     1       1.014   2.071   3.175  0.00  0.00    +0.118 A 
ATOM     28  C   UNL     1      -0.177   1.365   3.186  0.00  0.00    +0.058 A 
BRANCH  27  29
ATOM     29  O   UNL     1       1.361   2.835   4.244  0.00  0.00    -0.507 OA
ATOM     30  H   UNL     1       0.695   2.893   5.118  0.00  0.00    +0.292 HD
ENDBRANCH  27  29
ENDBRANCH  20  23
ENDBRANCH  17  19
ENDBRANCH   2  17
TORSDOF 7
