REMARK  Name = ZINC17302330
REMARK  2 active torsions:
REMARK  status: ('A' for Active; 'I' for Inactive)
REMARK    1  A    between atoms: C_2  and  C_14
REMARK    2  A    between atoms: N_15  and  O_16
REMARK                            x       y       z     vdW  Elec       q    Type
REMARK                         _______ _______ _______ _____ _____    ______ ____
ROOT
ATOM      1  C   UNL     1      -4.193   0.666   0.246  0.00  0.00    +0.015 A 
ATOM      2  C   UNL     1      -4.627   0.106   1.445  0.00  0.00    -0.003 A 
ATOM      3  C   UNL     1      -3.817   0.199   2.574  0.00  0.00    +0.015 A 
ATOM      4  C   UNL     1      -2.585   0.825   2.502  0.00  0.00    -0.025 A 
ATOM      5  C   UNL     1      -2.142   1.357   1.294  0.00  0.00    +0.036 A 
ATOM      6  C   UNL     1      -2.965   1.300   0.172  0.00  0.00    -0.025 A 
ATOM      7  C   UNL     1      -2.588   1.894  -1.156  0.00  0.00    +0.038 C 
ATOM      8  C   UNL     1      -1.226   2.569  -1.121  0.00  0.00    +0.024 C 
ATOM      9  C   UNL     1      -0.315   1.821  -0.148  0.00  0.00    +0.105 C 
ATOM     10  N   UNL     1      -0.873   1.931   1.205  0.00  0.00    -0.329 N 
ATOM     11  C   UNL     1       0.061   1.364   2.181  0.00  0.00    +0.105 C 
ATOM     12  C   UNL     1      -0.470   1.636   3.587  0.00  0.00    +0.024 C 
ATOM     13  C   UNL     1      -1.790   0.904   3.777  0.00  0.00    +0.038 C 
ENDROOT
BRANCH   2  14
ATOM     14  C   UNL     1      -5.932  -0.578   1.518  0.00  0.00    +0.160 C 
ATOM     15  N   UNL     1      -6.604  -0.807   0.437  0.00  0.00    -0.095 NA
BRANCH  15  16
ATOM     16  O   UNL     1      -6.005  -0.593  -0.828  0.00  0.00    -0.409 OA
ATOM     17  H   UNL     1      -6.576  -0.789  -1.748  0.00  0.00    +0.328 HD
ENDBRANCH  15  16
ENDBRANCH   2  14
TORSDOF 2
