REMARK  Name = ZINC41301166
REMARK  8 active torsions:
REMARK  status: ('A' for Active; 'I' for Inactive)
REMARK    1  A    between atoms: C_1  and  C_2
REMARK    2  A    between atoms: C_2  and  C_3
REMARK    3  A    between atoms: C_3  and  C_4
REMARK    4  A    between atoms: C_4  and  N_5
REMARK    5  A    between atoms: C_9  and  N_24
REMARK    6  A    between atoms: C_10  and  N_12
REMARK    7  A    between atoms: N_12  and  C_13
REMARK    8  A    between atoms: C_20  and  C_23
REMARK                            x       y       z     vdW  Elec       q    Type
REMARK                         _______ _______ _______ _____ _____    ______ ____
ROOT
ATOM      1  N   UNL     1       1.425  -2.500  -2.470  0.00  0.00    -0.313 N 
ATOM      2  C   UNL     1       1.567  -3.857  -2.698  0.00  0.00    +0.219 A 
ATOM      3  N   UNL     1       1.073  -4.715  -1.818  0.00  0.00    -0.197 NA
ATOM      4  C   UNL     1       1.191  -6.027  -2.004  0.00  0.00    +0.154 A 
ATOM      5  C   UNL     1       1.844  -6.494  -3.141  0.00  0.00    +0.205 A 
ATOM      6  C   UNL     1       2.350  -5.563  -4.043  0.00  0.00    +0.163 A 
ATOM      7  N   UNL     1       2.190  -4.265  -3.793  0.00  0.00    -0.197 NA
ATOM      8  N   UNL     1       0.671  -6.917  -1.077  0.00  0.00    -0.341 N 
ATOM      9  H   UNL     1       1.779  -1.861  -3.109  0.00  0.00    +0.149 HD
ATOM     10  H   UNL     1       0.217  -6.585  -0.287  0.00  0.00    +0.144 HD
ATOM     11  H   UNL     1       0.761  -7.873  -1.220  0.00  0.00    +0.144 HD
ENDROOT
BRANCH   5  12
ATOM     12  N   UNL     1       1.997  -7.946  -3.385  0.00  0.00    +0.063 N 
ATOM     13  O   UNL     1       1.150  -8.547  -4.003  0.00  0.00    -0.126 OA
ATOM     14  O   UNL     1       2.969  -8.530  -2.966  0.00  0.00    -0.126 OA
ENDBRANCH   5  12
BRANCH   6  15
ATOM     15  N   UNL     1       3.009  -5.982  -5.191  0.00  0.00    -0.266 N 
ATOM     16  H   UNL     1       3.119  -6.930  -5.368  0.00  0.00    +0.157 HD
BRANCH  15  17
ATOM     17  C   UNL     1       3.509  -5.048  -6.082  0.00  0.00    +0.226 A 
ATOM     18  C   UNL     1       4.163  -5.316  -7.234  0.00  0.00    +0.037 A 
ATOM     19  C   UNL     1       4.500  -4.091  -7.842  0.00  0.00    +0.089 A 
ATOM     20  N   UNL     1       4.068  -3.130  -7.084  0.00  0.00    -0.081 NA
ATOM     21  O   UNL     1       3.427  -3.710  -5.960  0.00  0.00    -0.339 OA
ATOM     22  C   UNL     1       5.235  -3.988  -9.156  0.00  0.00    +0.059 C 
ATOM     23  C   UNL     1       5.156  -5.350  -9.857  0.00  0.00    +0.010 C 
ATOM     24  C   UNL     1       5.588  -6.455  -8.891  0.00  0.00    -0.009 C 
ATOM     25  C   UNL     1       4.507  -6.662  -7.823  0.00  0.00    +0.045 C 
ATOM     26  C   UNL     1       5.792  -7.758  -9.667  0.00  0.00    +0.008 C 
ENDBRANCH  15  17
ENDBRANCH   6  15
BRANCH   1  27
ATOM     27  C   UNL     1       0.739  -2.027  -1.265  0.00  0.00    +0.104 C 
BRANCH  27  28
ATOM     28  C   UNL     1       0.718  -0.497  -1.257  0.00  0.00    +0.018 C 
BRANCH  28  30
ATOM     29  C   UNL     1      -0.019   1.526   0.010  0.00  0.00    +0.004 C 
ATOM     30  C   UNL     1       0.002  -0.004   0.002  0.00  0.00    -0.002 C 
ENDBRANCH  28  30
ENDBRANCH  27  28
ENDBRANCH   1  27
TORSDOF 6
