REMARK  Name = ZINC08133150
REMARK  5 active torsions:
REMARK  status: ('A' for Active; 'I' for Inactive)
REMARK    1  A    between atoms: C_1  and  C_2
REMARK    2  A    between atoms: C_2  and  C_3
REMARK    3  A    between atoms: C_12  and  C_13
REMARK    4  A    between atoms: C_13  and  C_15
REMARK    5  A    between atoms: C_15  and  N_16
REMARK                            x       y       z     vdW  Elec       q    Type
REMARK                         _______ _______ _______ _____ _____    ______ ____
ROOT
ATOM      1  N   UNL     1      -1.705  -1.258  -0.838  0.00  0.00    -0.216 N 
ATOM      2  C   UNL     1      -1.381  -0.552   0.265  0.00  0.00    +0.252 C 
ATOM      3  O   UNL     1      -2.058  -0.391   1.258  0.00  0.00    -0.272 OA
ATOM      4  C   UNL     1       0.002  -0.004   0.002  0.00  0.00    +0.144 C 
ATOM      5  C   UNL     1      -0.019   1.522   0.010  0.00  0.00    +0.081 C 
ATOM      6  C   UNL     1       1.432   2.023  -0.001  0.00  0.00    +0.232 C 
ATOM      7  O   UNL     1       2.068   1.596   1.204  0.00  0.00    -0.492 OA
ATOM      8  C   UNL     1       1.956   0.290   1.559  0.00  0.00    +0.126 A 
ATOM      9  C   UNL     1       0.976  -0.528   1.019  0.00  0.00    +0.027 A 
ATOM     10  C   UNL     1       0.887  -1.851   1.419  0.00  0.00    +0.010 A 
ATOM     11  C   UNL     1       1.773  -2.359   2.350  0.00  0.00    +0.001 A 
ATOM     12  C   UNL     1       2.754  -1.546   2.887  0.00  0.00    +0.004 A 
ATOM     13  C   UNL     1       2.847  -0.227   2.493  0.00  0.00    +0.046 A 
ATOM     14  N   UNL     1       0.336  -0.506  -1.337  0.00  0.00    -0.281 N 
ATOM     15  C   UNL     1      -0.723  -1.229  -1.748  0.00  0.00    +0.310 C 
ATOM     16  O   UNL     1      -0.782  -1.791  -2.824  0.00  0.00    -0.252 OA
ATOM     17  H   UNL     1       1.157  -0.348  -1.828  0.00  0.00    +0.152 HD
ENDROOT
BRANCH   1  18
ATOM     18  C   UNL     1      -2.972  -1.971  -1.017  0.00  0.00    +0.197 C 
BRANCH  18  19
ATOM     19  C   UNL     1      -2.835  -3.380  -0.500  0.00  0.00    +0.183 C 
ATOM     20  O   UNL     1      -1.780  -3.752  -0.027  0.00  0.00    -0.290 OA
BRANCH  19  30
ATOM     21  C   UNL     1      -5.609  -7.441  -0.056  0.00  0.00    -0.024 A 
ATOM     22  C   UNL     1      -4.676  -8.270   0.529  0.00  0.00    +0.005 A 
ATOM     23  C   UNL     1      -3.395  -7.813   0.799  0.00  0.00    +0.001 A 
ATOM     24  C   UNL     1      -3.038  -6.519   0.484  0.00  0.00    +0.011 A 
ATOM     25  C   UNL     1      -3.969  -5.674  -0.112  0.00  0.00    +0.010 A 
ATOM     26  C   UNL     1      -5.268  -6.133  -0.381  0.00  0.00    +0.050 A 
ATOM     27  N   UNL     1      -5.967  -5.093  -0.959  0.00  0.00    -0.360 N 
ATOM     28  H   UNL     1      -6.892  -5.143  -1.247  0.00  0.00    +0.165 HD
ATOM     29  C   UNL     1      -5.190  -3.999  -1.069  0.00  0.00    +0.095 A 
ATOM     30  C   UNL     1      -3.936  -4.269  -0.565  0.00  0.00    +0.044 A 
BRANCH  21  32
ATOM     31  C   UNL     1      -7.070  -8.448  -1.788  0.00  0.00    +0.009 C 
ATOM     32  C   UNL     1      -6.997  -7.952  -0.342  0.00  0.00    +0.034 C 
ENDBRANCH  21  32
ENDBRANCH  19  30
ENDBRANCH  18  19
ENDBRANCH   1  18
TORSDOF 4
