REMARK  Name = ZINC44923954
REMARK  6 active torsions:
REMARK  status: ('A' for Active; 'I' for Inactive)
REMARK    1  A    between atoms: C_1  and  C_2
REMARK    2  A    between atoms: C_12  and  N_17
REMARK    3  A    between atoms: C_18  and  C_20
REMARK    4  A    between atoms: C_27  and  C_29
REMARK    5  A    between atoms: C_29  and  O_31
REMARK    6  A    between atoms: O_31  and  C_32
REMARK                            x       y       z     vdW  Elec       q    Type
REMARK                         _______ _______ _______ _____ _____    ______ ____
ROOT
ATOM      1  C   UNL     1      -0.018   1.503   0.010  0.00  0.00    +0.044 C 
ATOM      2  C   UNL     1       0.002  -0.004   0.002  0.00  0.00    -0.050 A 
ATOM      3  C   UNL     1       0.006  -0.686  -1.207  0.00  0.00    +0.005 A 
ATOM      4  C   UNL     1       0.024  -2.063  -1.236  0.00  0.00    +0.026 A 
ATOM      5  C   UNL     1       0.040  -2.780  -0.045  0.00  0.00    +0.047 A 
ATOM      6  C   UNL     1       0.036  -2.084   1.179  0.00  0.00    +0.003 A 
ATOM      7  C   UNL     1       0.023  -0.688   1.184  0.00  0.00    +0.013 A 
ATOM      8  C   UNL     1       0.055  -3.108   2.219  0.00  0.00    -0.017 A 
ATOM      9  C   UNL     1       0.068  -4.306   1.604  0.00  0.00    +0.041 A 
ATOM     10  N   UNL     1       0.060  -4.126   0.250  0.00  0.00    -0.356 N 
ATOM     11  H   UNL     1       0.066  -4.840  -0.407  0.00  0.00    +0.166 HD
ATOM     12  C   UNL     1       0.091  -5.626   2.341  0.00  0.00    +0.120 C 
ATOM     13  C   UNL     1       0.516  -5.367   3.791  0.00  0.00    +0.029 C 
ATOM     14  C   UNL     1      -0.332  -4.237   4.379  0.00  0.00    +0.007 C 
ATOM     15  C   UNL     1       0.057  -2.911   3.713  0.00  0.00    +0.037 C 
ENDROOT
BRANCH  12  16
ATOM     16  N   UNL     1       1.046  -6.532   1.698  0.00  0.00    -0.307 N 
ATOM     17  C   UNL     1       0.897  -7.866   1.822  0.00  0.00    +0.218 C 
ATOM     18  O   UNL     1      -0.027  -8.316   2.466  0.00  0.00    -0.275 OA
ATOM     19  H   UNL     1       1.785  -6.172   1.183  0.00  0.00    +0.149 HD
BRANCH  17  20
ATOM     20  C   UNL     1       1.879  -8.798   1.160  0.00  0.00    +0.096 C 
ATOM     21  C   UNL     1       3.308  -8.607   1.762  0.00  0.00    +0.025 C 
ATOM     22  C   UNL     1       3.192  -9.493   3.056  0.00  0.00    +0.016 C 
ATOM     23  C   UNL     1       2.803 -10.785   2.248  0.00  0.00    +0.026 C 
ATOM     24  C   UNL     1       1.535 -10.272   1.486  0.00  0.00    +0.117 C 
ATOM     25  C   UNL     1       3.907 -10.769   1.184  0.00  0.00    -0.027 C 
ATOM     26  C   UNL     1       4.202  -9.497   0.890  0.00  0.00    -0.027 C 
BRANCH  24  27
ATOM     27  C   UNL     1       1.321 -11.058   0.218  0.00  0.00    +0.311 C 
ATOM     28  O   UNL     1       1.429 -10.515  -0.856  0.00  0.00    -0.251 OA
BRANCH  27  29
ATOM     29  O   UNL     1       1.011 -12.363   0.282  0.00  0.00    -0.468 OA
ATOM     30  C   UNL     1       0.823 -13.046  -0.959  0.00  0.00    +0.280 C 
ENDBRANCH  27  29
ENDBRANCH  24  27
ENDBRANCH  17  20
ENDBRANCH  12  16
TORSDOF 4
