REMARK  Name = ZINC20977382
REMARK  6 active torsions:
REMARK  status: ('A' for Active; 'I' for Inactive)
REMARK    1  A    between atoms: C_1  and  C_2
REMARK    2  A    between atoms: C_10  and  S_15
REMARK    3  A    between atoms: S_15  and  N_18
REMARK    4  A    between atoms: N_18  and  C_19
REMARK    5  A    between atoms: C_23  and  C_25
REMARK    6  A    between atoms: C_25  and  N_26
REMARK                            x       y       z     vdW  Elec       q    Type
REMARK                         _______ _______ _______ _____ _____    ______ ____
ROOT
ATOM      1  S   UNL     1       0.228  -2.916  -1.031  0.00  0.00    +0.072 S 
ATOM      2  O   UNL     1       0.504  -4.295  -0.828  0.00  0.00    -0.150 OA
ATOM      3  O   UNL     1      -1.070  -2.365  -0.856  0.00  0.00    -0.150 OA
ENDROOT
BRANCH   1  12
ATOM      4  C   UNL     1       0.546  -1.384  -9.275  0.00  0.00    +0.020 C 
ATOM      5  C   UNL     1       0.512  -2.074  -7.910  0.00  0.00    +0.057 C 
ATOM      6  C   UNL     1      -0.741  -1.635  -7.133  0.00  0.00    +0.110 C 
ATOM      7  C   UNL     1      -0.546  -0.264  -6.556  0.00  0.00    +0.218 C 
ATOM      8  O   UNL     1      -0.854   0.708  -7.213  0.00  0.00    -0.275 OA
ATOM      9  N   UNL     1      -0.038  -0.093  -5.329  0.00  0.00    -0.284 N 
ATOM     10  C   UNL     1       0.529  -1.176  -4.640  0.00  0.00    +0.049 A 
ATOM     11  C   UNL     1       0.142  -1.470  -3.343  0.00  0.00    +0.053 A 
ATOM     12  C   UNL     1       0.715  -2.543  -2.683  0.00  0.00    +0.110 A 
ATOM     13  C   UNL     1       1.663  -3.327  -3.314  0.00  0.00    +0.030 A 
ATOM     14  C   UNL     1       2.053  -3.041  -4.610  0.00  0.00    +0.018 A 
ATOM     15  C   UNL     1       1.486  -1.965  -5.275  0.00  0.00    +0.029 A 
ATOM     16  S   UNL     1       1.966  -1.575  -6.927  0.00  0.00    -0.120 S 
ATOM     17  H   UNL     1      -0.064   0.900  -4.856  0.00  0.00    +0.155 HD
ENDBRANCH   1  12
BRANCH   1  18
ATOM     18  N   UNL     1       1.238  -2.077  -0.021  0.00  0.00    -0.216 N 
ATOM     19  H   UNL     1       1.927  -2.620   0.643  0.00  0.00    +0.174 HD
BRANCH  18  20
ATOM     20  C   UNL     1       1.215  -0.681  -0.013  0.00  0.00    +0.048 A 
ATOM     21  C   UNL     1       0.002  -0.004   0.002  0.00  0.00    +0.024 A 
ATOM     22  C   UNL     1      -0.017   1.377   0.010  0.00  0.00    +0.002 A 
ATOM     23  C   UNL     1       1.171   2.086   0.002  0.00  0.00    +0.002 A 
ATOM     24  C   UNL     1       2.380   1.416  -0.013  0.00  0.00    -0.062 A 
ATOM     25  C   UNL     1       2.406   0.035  -0.021  0.00  0.00    +0.026 A 
BRANCH  24  26
ATOM     26  C   UNL     1       3.671   2.193  -0.021  0.00  0.00    -0.043 C 
BRANCH  26  27
ATOM     27  N   UNL     1       4.077   2.453  -1.409  0.00  0.00    +0.382 N 
ATOM     28  C   UNL     1       2.974   3.083  -2.178  0.00  0.00    -0.078 C 
ATOM     29  C   UNL     1       3.706   3.744  -3.372  0.00  0.00    -0.020 C 
ATOM     30  C   UNL     1       5.016   4.259  -2.732  0.00  0.00    -0.020 C 
ATOM     31  C   UNL     1       5.203   3.411  -1.461  0.00  0.00    -0.078 C 
ATOM     32  H   UNL     1       4.360   1.475  -1.826  0.00  0.00    -0.081 HD
ENDBRANCH  26  27
ENDBRANCH  24  26
ENDBRANCH  18  20
ENDBRANCH   1  18
TORSDOF 5
