REMARK  Name = ZINC62747544
REMARK  6 active torsions:
REMARK  status: ('A' for Active; 'I' for Inactive)
REMARK    1  A    between atoms: C_1  and  C_2
REMARK    2  A    between atoms: C_2  and  C_4
REMARK    3  A    between atoms: C_2  and  N_12
REMARK    4  A    between atoms: C_9  and  O_10
REMARK    5  A    between atoms: N_12  and  C_13
REMARK    6  A    between atoms: C_16  and  N_20
REMARK                            x       y       z     vdW  Elec       q    Type
REMARK                         _______ _______ _______ _____ _____    ______ ____
ROOT
ATOM      1  N   UNL     1       0.587  -0.474   1.260  0.00  0.00    -0.336 N 
ATOM      2  H   UNL     1       1.540  -0.645   1.318  0.00  0.00    +0.147 HD
ENDROOT
BRANCH   1   3
ATOM      3  C   UNL     1      -0.227  -0.674   2.378  0.00  0.00    +0.042 A 
ATOM      4  C   UNL     1      -1.593  -0.435   2.296  0.00  0.00    +0.026 A 
ATOM      5  C   UNL     1      -2.396  -0.635   3.401  0.00  0.00    +0.034 A 
ATOM      6  C   UNL     1      -1.841  -1.073   4.590  0.00  0.00    +0.127 A 
ATOM      7  C   UNL     1      -0.482  -1.312   4.676  0.00  0.00    +0.049 A 
ATOM      8  C   UNL     1       0.326  -1.120   3.572  0.00  0.00    +0.041 A 
ATOM      9 BR   UNL     1       2.183  -1.455   3.688  0.00  0.00    -0.048 Br
BRANCH   6  10
ATOM     10  N   UNL     1      -2.704  -1.285   5.774  0.00  0.00    +0.056 N 
ATOM     11  O   UNL     1      -3.893  -1.075   5.700  0.00  0.00    -0.126 OA
ATOM     12  O   UNL     1      -2.221  -1.668   6.814  0.00  0.00    -0.126 OA
ENDBRANCH   6  10
ENDBRANCH   1   3
BRANCH   1  14
ATOM     13  C   UNL     1      -0.084   1.523   0.018  0.00  0.00    +0.033 C 
ATOM     14  C   UNL     1       0.002  -0.004   0.002  0.00  0.00    +0.101 C 
BRANCH  14  15
ATOM     15  C   UNL     1       0.867  -0.447  -1.150  0.00  0.00    +0.014 A 
ATOM     16  C   UNL     1       2.219  -0.657  -0.958  0.00  0.00    +0.012 A 
ATOM     17  C   UNL     1       3.013  -1.064  -2.014  0.00  0.00    +0.039 A 
ATOM     18  C   UNL     1       2.456  -1.260  -3.267  0.00  0.00    +0.127 A 
ATOM     19  C   UNL     1       1.103  -1.050  -3.463  0.00  0.00    +0.084 A 
ATOM     20  C   UNL     1       0.304  -0.648  -2.402  0.00  0.00    +0.124 A 
ATOM     21  F   UNL     1       3.235  -1.657  -4.297  0.00  0.00    -0.205 F 
BRANCH  20  22
ATOM     22  O   UNL     1      -1.026  -0.446  -2.591  0.00  0.00    -0.506 OA
ATOM     23  H   UNL     1      -1.254   0.457  -2.852  0.00  0.00    +0.292 HD
ENDBRANCH  20  22
ENDBRANCH  14  15
ENDBRANCH   1  14
TORSDOF 5
