REMARK  Name = ZINC13636722
REMARK  3 active torsions:
REMARK  status: ('A' for Active; 'I' for Inactive)
REMARK    1  A    between atoms: C_3  and  O_26
REMARK    2  A    between atoms: C_6  and  C_7
REMARK    3  A    between atoms: C_18  and  C_23
REMARK                            x       y       z     vdW  Elec       q    Type
REMARK                         _______ _______ _______ _____ _____    ______ ____
ROOT
ATOM      1  C   UNL     1      -2.513   0.977   0.019  0.00  0.00    +0.105 C 
ATOM      2  C   UNL     1      -3.068   0.886   1.429  0.00  0.00    +0.029 C 
ATOM      3  C   UNL     1      -2.132   0.344   2.517  0.00  0.00    +0.033 C 
ATOM      4  C   UNL     1      -2.658   1.062   3.761  0.00  0.00    -0.030 C 
ATOM      5  C   UNL     1      -3.248   2.199   3.413  0.00  0.00    -0.023 C 
ATOM      6  C   UNL     1      -3.143   2.356   1.940  0.00  0.00    +0.049 C 
ATOM      7  C   UNL     1      -4.178   3.059   1.151  0.00  0.00    -0.019 A 
ATOM      8  C   UNL     1      -4.974   4.040   1.691  0.00  0.00    +0.019 A 
ATOM      9  C   UNL     1      -5.913   4.701   0.895  0.00  0.00    +0.037 A 
ATOM     10  C   UNL     1      -6.040   4.358  -0.455  0.00  0.00    +0.015 A 
ATOM     11  C   UNL     1      -5.248   3.370  -0.990  0.00  0.00    +0.024 A 
ATOM     12  C   UNL     1      -4.315   2.704  -0.199  0.00  0.00    +0.031 A 
ATOM     13  N   UNL     1      -3.538   1.696  -0.768  0.00  0.00    -0.336 N 
ATOM     14  H   UNL     1      -3.674   1.461  -1.700  0.00  0.00    +0.147 HD
ENDROOT
BRANCH   1  20
ATOM     15  C   UNL     1      -1.234   3.120  -0.171  0.00  0.00    +0.009 A 
ATOM     16  C   UNL     1      -0.050   3.832  -0.167  0.00  0.00    +0.046 A 
ATOM     17  C   UNL     1       1.155   3.170   0.021  0.00  0.00    +0.117 A 
ATOM     18  C   UNL     1       1.167   1.795   0.204  0.00  0.00    +0.046 A 
ATOM     19  C   UNL     1      -0.020   1.088   0.199  0.00  0.00    +0.009 A 
ATOM     20  C   UNL     1      -1.220   1.750   0.017  0.00  0.00    -0.027 A 
BRANCH  17  21
ATOM     21  O   UNL     1       2.321   3.868   0.026  0.00  0.00    -0.507 OA
ATOM     22  H   UNL     1       2.585   4.186   0.901  0.00  0.00    +0.292 HD
ENDBRANCH  17  21
ENDBRANCH   1  20
BRANCH   9  23
ATOM     23  C   UNL     1      -6.766   5.755   1.475  0.00  0.00    +0.242 C 
ATOM     24  O   UNL     1      -6.654   6.051   2.649  0.00  0.00    -0.270 OA
ATOM     25  N   UNL     1      -7.670   6.391   0.704  0.00  0.00    -0.325 N 
ATOM     26  H   UNL     1      -7.760   6.155  -0.233  0.00  0.00    +0.145 HD
ATOM     27  H   UNL     1      -8.231   7.084   1.085  0.00  0.00    +0.145 HD
ENDBRANCH   9  23
TORSDOF 3
