REMARK  Name = ZINC13064247
REMARK  11 active torsions:
REMARK  status: ('A' for Active; 'I' for Inactive)
REMARK    1  A    between atoms: C_1  and  C_2
REMARK    2  A    between atoms: C_2  and  C_3
REMARK    3  A    between atoms: C_3  and  C_5
REMARK    4  A    between atoms: C_3  and  N_67
REMARK    5  A    between atoms: N_9  and  C_10
REMARK    6  A    between atoms: C_15  and  C_16
REMARK    7  A    between atoms: C_15  and  N_67
REMARK    8  A    between atoms: C_23  and  C_24
REMARK    9  A    between atoms: C_23  and  N_67
REMARK   10  A    between atoms: C_29  and  O_36
REMARK   11  A    between atoms: O_36  and  C_37
REMARK                            x       y       z     vdW  Elec       q    Type
REMARK                         _______ _______ _______ _____ _____    ______ ____
ROOT
ATOM      1  N   UNL     1      -0.330  -0.041   0.086  0.00  0.00    +0.392 N 
ATOM      2  H   UNL     1      -1.198  -0.541   0.311  0.00  0.00    -0.080 HD
ENDROOT
BRANCH   1   3
ATOM      3  C   UNL     1      -0.610   1.410   0.040  0.00  0.00    +0.003 C 
BRANCH   3   4
ATOM      4  C   UNL     1       0.596   2.165  -0.459  0.00  0.00    +0.138 A 
ATOM      5  N   UNL     1       1.323   1.872  -1.509  0.00  0.00    -0.115 NA
ATOM      6  N   UNL     1       2.258   2.753  -1.604  0.00  0.00    -0.023 NA
ATOM      7  N   UNL     1       2.150   3.597  -0.638  0.00  0.00    -0.044 NA
ATOM      8  N   UNL     1       1.137   3.268   0.090  0.00  0.00    -0.228 N 
BRANCH   8   9
ATOM      9  C   UNL     1       0.664   3.964   1.290  0.00  0.00    +0.111 C 
ATOM     10  C   UNL     1       0.335   5.433   0.952  0.00  0.00    +0.027 C 
ATOM     11  C   UNL     1       0.789   6.221   2.207  0.00  0.00    +0.002 C 
ATOM     12  C   UNL     1       2.084   5.482   2.626  0.00  0.00    +0.002 C 
ATOM     13  C   UNL     1       1.776   3.995   2.353  0.00  0.00    +0.027 C 
ENDBRANCH   8   9
ENDBRANCH   3   4
BRANCH   3  15
ATOM     14  C   UNL     1      -3.026   0.925  -0.371  0.00  0.00    +0.002 C 
ATOM     15  C   UNL     1      -1.791   1.655  -0.901  0.00  0.00    -0.011 C 
ENDBRANCH   3  15
ENDBRANCH   1   3
BRANCH   1  16
ATOM     16  C   UNL     1       0.675  -0.328   1.131  0.00  0.00    -0.042 C 
BRANCH  16  17
ATOM     17  C   UNL     1      -0.007  -0.305   2.475  0.00  0.00    -0.064 A 
ATOM     18  C   UNL     1      -0.058   0.869   3.204  0.00  0.00    +0.004 A 
ATOM     19  C   UNL     1      -0.687   0.892   4.434  0.00  0.00    +0.038 A 
ATOM     20  C   UNL     1      -1.258  -0.263   4.941  0.00  0.00    +0.123 A 
ATOM     21  C   UNL     1      -1.202  -1.439   4.213  0.00  0.00    +0.038 A 
ATOM     22  C   UNL     1      -0.577  -1.459   2.980  0.00  0.00    +0.004 A 
ATOM     23  F   UNL     1      -1.869  -0.242   6.146  0.00  0.00    -0.205 F 
ENDBRANCH  16  17
ENDBRANCH   1  16
BRANCH   1  24
ATOM     24  C   UNL     1       0.163  -0.502  -1.229  0.00  0.00    -0.036 C 
BRANCH  24  25
ATOM     25  C   UNL     1       0.063  -2.005  -1.283  0.00  0.00    +0.001 A 
ATOM     26  C   UNL     1      -1.055  -2.590  -1.781  0.00  0.00    +0.017 A 
ATOM     27  C   UNL     1      -1.122  -4.051  -1.820  0.00  0.00    -0.001 A 
ATOM     28  C   UNL     1      -2.250  -4.710  -2.323  0.00  0.00    +0.013 A 
ATOM     29  C   UNL     1      -2.283  -6.073  -2.347  0.00  0.00    +0.046 A 
ATOM     30  C   UNL     1      -1.202  -6.817  -1.875  0.00  0.00    +0.122 A 
ATOM     31  C   UNL     1      -0.077  -6.184  -1.375  0.00  0.00    +0.072 A 
ATOM     32  C   UNL     1      -0.026  -4.796  -1.342  0.00  0.00    +0.053 A 
ATOM     33  N   UNL     1       1.082  -4.140  -0.849  0.00  0.00    -0.322 N 
ATOM     34  H   UNL     1       1.836  -4.654  -0.520  0.00  0.00    +0.169 HD
ATOM     35  C   UNL     1       1.135  -2.796  -0.822  0.00  0.00    +0.251 A 
ATOM     36  O   UNL     1       2.132  -2.250  -0.384  0.00  0.00    -0.268 OA
BRANCH  30  37
ATOM     37  O   UNL     1      -1.252  -8.173  -1.908  0.00  0.00    -0.495 OA
ATOM     38  C   UNL     1      -2.440  -8.766  -2.437  0.00  0.00    +0.277 C 
ENDBRANCH  30  37
ENDBRANCH  24  25
ENDBRANCH   1  24
TORSDOF 9
