REMARK  Name = ZINC64538781
REMARK  4 active torsions:
REMARK  status: ('A' for Active; 'I' for Inactive)
REMARK    1  A    between atoms: C_6  and  C_11
REMARK    2  A    between atoms: C_11  and  C_12
REMARK    3  A    between atoms: C_12  and  N_13
REMARK    4  A    between atoms: C_14  and  C_16
REMARK                            x       y       z     vdW  Elec       q    Type
REMARK                         _______ _______ _______ _____ _____    ______ ____
ROOT
ATOM      1  C   UNL     1       5.716  -5.668  -2.877  0.00  0.00    +0.078 C 
ATOM      2  C   UNL     1       7.069  -5.525  -2.176  0.00  0.00    +0.031 C 
ATOM      3  C   UNL     1       7.672  -6.915  -1.951  0.00  0.00    +0.107 C 
ATOM      4  N   UNL     1       7.732  -7.619  -3.240  0.00  0.00    -0.314 N 
ATOM      5  C   UNL     1       6.504  -7.734  -4.039  0.00  0.00    +0.107 C 
ATOM      6  C   UNL     1       5.914  -6.334  -4.240  0.00  0.00    +0.031 C 
ATOM      7  C   UNL     1       8.930  -8.166  -3.695  0.00  0.00    +0.144 A 
ATOM      8  C   UNL     1      10.030  -8.249  -2.841  0.00  0.00    +0.049 A 
ATOM      9  C   UNL     1      11.198  -8.801  -3.338  0.00  0.00    +0.049 A 
ATOM     10  C   UNL     1      11.201  -9.239  -4.663  0.00  0.00    +0.144 A 
ATOM     11  N   UNL     1      10.109  -9.120  -5.400  0.00  0.00    -0.132 NA
ATOM     12  N   UNL     1       9.025  -8.613  -4.937  0.00  0.00    -0.132 NA
ATOM     13  N   UNL     1      12.354  -9.801  -5.210  0.00  0.00    -0.314 N 
ATOM     14  C   UNL     1      12.460 -10.033  -6.656  0.00  0.00    +0.106 C 
ATOM     15  C   UNL     1      13.741  -9.367  -7.169  0.00  0.00    +0.019 C 
ATOM     16  C   UNL     1      14.936  -9.879  -6.361  0.00  0.00    +0.003 C 
ATOM     17  C   UNL     1      14.755  -9.507  -4.888  0.00  0.00    +0.019 C 
ATOM     18  C   UNL     1      13.488 -10.168  -4.350  0.00  0.00    +0.106 C 
ENDROOT
BRANCH   1  20
ATOM     19  N   UNL     1       4.837  -3.529  -2.000  0.00  0.00    -0.315 N 
ATOM     20  C   UNL     1       5.104  -4.304  -3.069  0.00  0.00    +0.216 C 
ATOM     21  O   UNL     1       4.851  -3.905  -4.186  0.00  0.00    -0.276 OA
ATOM     22  H   UNL     1       5.040  -3.848  -1.106  0.00  0.00    +0.149 HD
BRANCH  19  23
ATOM     23  C   UNL     1       4.242  -2.203  -2.186  0.00  0.00    +0.108 C 
BRANCH  23  24
ATOM     24  C   UNL     1       4.044  -1.536  -0.824  0.00  0.00    +0.052 C 
BRANCH  24  30
ATOM     25  C   UNL     1      -0.420   1.335  -0.949  0.00  0.00    +0.022 A 
ATOM     26  C   UNL     1       0.641   2.134  -1.186  0.00  0.00    +0.027 A 
ATOM     27  C   UNL     1       1.957   1.595  -1.205  0.00  0.00    +0.043 A 
ATOM     28  N   UNL     1       3.126   2.153  -1.408  0.00  0.00    -0.380 N 
ATOM     29  C   UNL     1       4.161   1.118  -1.313  0.00  0.00    +0.144 C 
ATOM     30  C   UNL     1       3.431  -0.173  -1.016  0.00  0.00    -0.040 C 
ATOM     31  C   UNL     1       2.118   0.144  -0.957  0.00  0.00    +0.000 A 
ATOM     32  C   UNL     1       0.913  -0.655  -0.707  0.00  0.00    +0.030 A 
ATOM     33  C   UNL     1      -0.294  -0.042  -0.712  0.00  0.00    +0.042 A 
ATOM     34 CL   UNL     1      -1.722  -0.984  -0.416  0.00  0.00    -0.084 Cl
ATOM     35  H   UNL     1       3.280   3.093  -1.591  0.00  0.00    +0.160 HD
ENDBRANCH  24  30
ENDBRANCH  23  24
ENDBRANCH  19  23
ENDBRANCH   1  20
TORSDOF 4
