REMARK  Name = ZINC66976113
REMARK  10 active torsions:
REMARK  status: ('A' for Active; 'I' for Inactive)
REMARK    1  A    between atoms: C_1  and  C_2
REMARK    2  A    between atoms: C_2  and  C_3
REMARK    3  A    between atoms: C_2  and  C_4
REMARK    4  A    between atoms: C_2  and  N_23
REMARK    5  A    between atoms: C_4  and  N_5
REMARK    6  A    between atoms: C_11  and  N_14
REMARK    7  A    between atoms: C_15  and  C_17
REMARK    8  A    between atoms: C_17  and  C_18
REMARK    9  A    between atoms: N_23  and  C_24
REMARK   10  A    between atoms: N_23  and  C_25
REMARK                            x       y       z     vdW  Elec       q    Type
REMARK                         _______ _______ _______ _____ _____    ______ ____
ROOT
ATOM      1  N   UNL     1      -1.488  -1.885  -0.257  0.00  0.00    -0.301 N 
ATOM      2  C   UNL     1      -2.667  -2.501  -0.475  0.00  0.00    +0.302 C 
ATOM      3  O   UNL     1      -3.700  -1.861  -0.452  0.00  0.00    -0.253 OA
ATOM      4  N   UNL     1      -2.700  -3.826  -0.718  0.00  0.00    -0.286 N 
ATOM      5  C   UNL     1      -1.477  -4.635  -0.629  0.00  0.00    +0.111 C 
ATOM      6  C   UNL     1      -1.300  -5.408  -1.940  0.00  0.00    +0.041 C 
ATOM      7  C   UNL     1      -2.568  -6.216  -2.225  0.00  0.00    +0.076 C 
ATOM      8  C   UNL     1      -3.757  -5.265  -2.381  0.00  0.00    +0.041 C 
ATOM      9  C   UNL     1      -3.962  -4.491  -1.070  0.00  0.00    +0.111 C 
ATOM     10  H   UNL     1      -0.672  -2.407  -0.197  0.00  0.00    +0.150 HD
ENDROOT
BRANCH   7  11
ATOM     11  N   UNL     1      -2.391  -6.983  -3.461  0.00  0.00    -0.312 N 
ATOM     12  C   UNL     1      -3.102  -8.110  -3.663  0.00  0.00    +0.214 C 
ATOM     13  O   UNL     1      -3.889  -8.489  -2.822  0.00  0.00    -0.276 OA
ATOM     14  H   UNL     1      -1.761  -6.679  -4.133  0.00  0.00    +0.149 HD
BRANCH  12  15
ATOM     15  C   UNL     1      -2.919  -8.898  -4.934  0.00  0.00    +0.099 C 
BRANCH  15  16
ATOM     16  C   UNL     1      -3.837 -10.122  -4.912  0.00  0.00    -0.002 C 
ATOM     17  C   UNL     1      -3.369 -11.114  -3.827  0.00  0.00    +0.004 C 
ATOM     18  C   UNL     1      -3.618 -12.508  -4.454  0.00  0.00    +0.000 C 
ATOM     19  C   UNL     1      -3.238 -12.287  -5.939  0.00  0.00    +0.000 C 
ATOM     20  C   UNL     1      -3.754 -10.868  -6.255  0.00  0.00    +0.004 C 
ENDBRANCH  15  16
ENDBRANCH  12  15
ENDBRANCH   7  11
BRANCH   1  21
ATOM     21  C   UNL     1      -1.438  -0.429  -0.110  0.00  0.00    +0.093 C 
BRANCH  21  23
ATOM     22  C   UNL     1       0.772  -0.361  -1.274  0.00  0.00    -0.008 C 
ATOM     23  C   UNL     1       0.019   0.023   0.002  0.00  0.00    -0.056 C 
ATOM     24  C   UNL     1       0.070   1.541   0.186  0.00  0.00    -0.008 C 
BRANCH  23  25
ATOM     25  N   UNL     1       0.648  -0.632   1.157  0.00  0.00    +0.380 N 
ATOM     26  C   UNL     1       2.014  -0.120   1.326  0.00  0.00    -0.096 C 
ATOM     27  C   UNL     1      -0.135  -0.348   2.367  0.00  0.00    -0.096 C 
ATOM     28  H   UNL     1       0.679  -1.629   1.002  0.00  0.00    -0.082 HD
ENDBRANCH  23  25
ENDBRANCH  21  23
ENDBRANCH   1  21
TORSDOF 6
