REMARK  Name = ZINC40317095
REMARK  16 active torsions:
REMARK  status: ('A' for Active; 'I' for Inactive)
REMARK    1  A    between atoms: C_1  and  O_2
REMARK    2  A    between atoms: O_2  and  C_3
REMARK    3  A    between atoms: C_5  and  C_13
REMARK    4  A    between atoms: C_7  and  O_11
REMARK    5  A    between atoms: C_8  and  O_9
REMARK    6  A    between atoms: O_9  and  C_10
REMARK    7  A    between atoms: O_11  and  C_12
REMARK    8  A    between atoms: C_13  and  N_14
REMARK    9  A    between atoms: N_14  and  C_15
REMARK   10  A    between atoms: N_14  and  C_21
REMARK   11  A    between atoms: C_15  and  C_16
REMARK   12  A    between atoms: C_21  and  C_22
REMARK   13  A    between atoms: C_22  and  C_24
REMARK   14  A    between atoms: C_22  and  O_33
REMARK   15  A    between atoms: C_24  and  O_25
REMARK   16  A    between atoms: O_25  and  C_26
REMARK                            x       y       z     vdW  Elec       q    Type
REMARK                         _______ _______ _______ _____ _____    ______ ____
ROOT
ATOM      1  N   UNL     1      -5.226   0.434  -1.381  0.00  0.00    +0.389 N 
ATOM      2  H   UNL     1      -5.378  -0.439  -1.864  0.00  0.00    -0.081 HD
ENDROOT
BRANCH   1   3
ATOM      3  C   UNL     1      -4.827   0.164   0.006  0.00  0.00    -0.042 C 
BRANCH   3   6
ATOM      4  C   UNL     1      -6.708  -2.930   1.089  0.00  0.00    +0.165 A 
ATOM      5  C   UNL     1      -5.770  -2.102   0.491  0.00  0.00    +0.051 A 
ATOM      6  C   UNL     1      -5.849  -0.732   0.657  0.00  0.00    -0.057 A 
ATOM      7  C   UNL     1      -6.861  -0.181   1.420  0.00  0.00    +0.051 A 
ATOM      8  C   UNL     1      -7.803  -1.002   2.022  0.00  0.00    +0.165 A 
ATOM      9  C   UNL     1      -7.732  -2.380   1.852  0.00  0.00    +0.204 A 
BRANCH   4  11
ATOM     10  C   UNL     1      -5.553  -4.772   0.127  0.00  0.00    +0.277 C 
ATOM     11  O   UNL     1      -6.631  -4.277   0.924  0.00  0.00    -0.491 OA
ENDBRANCH   4  11
BRANCH   9  12
ATOM     12  O   UNL     1      -8.658  -3.189   2.436  0.00  0.00    -0.488 OA
ATOM     13  C   UNL     1      -8.369  -3.659   3.754  0.00  0.00    +0.277 C 
ENDBRANCH   9  12
BRANCH   8  14
ATOM     14  O   UNL     1      -8.799  -0.460   2.772  0.00  0.00    -0.491 OA
ATOM     15  C   UNL     1      -8.814   0.963   2.899  0.00  0.00    +0.277 C 
ENDBRANCH   8  14
ENDBRANCH   3   6
ENDBRANCH   1   3
BRANCH   1  16
ATOM     16  C   UNL     1      -4.163   1.189  -2.058  0.00  0.00    -0.003 C 
BRANCH  16  17
ATOM     17  C   UNL     1      -2.930   0.331  -2.169  0.00  0.00    +0.089 A 
ATOM     18  C   UNL     1      -2.677  -0.561  -3.144  0.00  0.00    +0.042 A 
ATOM     19  C   UNL     1      -1.417  -1.136  -2.856  0.00  0.00    +0.041 A 
ATOM     20  C   UNL     1      -0.976  -0.562  -1.723  0.00  0.00    +0.195 A 
ATOM     21  O   UNL     1      -1.894   0.330  -1.314  0.00  0.00    -0.470 OA
ENDBRANCH  16  17
ENDBRANCH   1  16
BRANCH   1  22
ATOM     22  C   UNL     1      -6.467   1.221  -1.389  0.00  0.00    -0.043 C 
BRANCH  22  23
ATOM     23  C   UNL     1      -6.950   1.396  -2.830  0.00  0.00    +0.135 C 
BRANCH  23  24
ATOM     24  O   UNL     1      -7.306   0.123  -3.372  0.00  0.00    -0.390 OA
ATOM     25  H   UNL     1      -8.012  -0.327  -2.887  0.00  0.00    +0.210 HD
ENDBRANCH  23  24
BRANCH  23  26
ATOM     26  C   UNL     1      -8.171   2.318  -2.850  0.00  0.00    +0.258 C 
BRANCH  26  27
ATOM     27  O   UNL     1      -8.551   2.576  -4.204  0.00  0.00    -0.488 OA
BRANCH  27  28
ATOM     28  C   UNL     1      -9.626   3.384  -4.399  0.00  0.00    +0.135 A 
ATOM     29  C   UNL     1     -10.297   3.923  -3.311  0.00  0.00    +0.047 A 
ATOM     30  C   UNL     1     -11.390   4.744  -3.513  0.00  0.00    +0.004 A 
ATOM     31  C   UNL     1     -11.815   5.029  -4.797  0.00  0.00    +0.001 A 
ATOM     32  C   UNL     1     -11.148   4.494  -5.883  0.00  0.00    +0.019 A 
ATOM     33  C   UNL     1     -10.051   3.676  -5.688  0.00  0.00    +0.059 A 
ATOM     34 BR   UNL     1      -9.134   2.951  -7.174  0.00  0.00    -0.047 Br
ENDBRANCH  27  28
ENDBRANCH  26  27
ENDBRANCH  23  26
ENDBRANCH  22  23
ENDBRANCH   1  22
TORSDOF 13
