REMARK  Name = ZINC12946446
REMARK  8 active torsions:
REMARK  status: ('A' for Active; 'I' for Inactive)
REMARK    1  A    between atoms: C_1  and  C_2
REMARK    2  A    between atoms: C_5  and  C_8
REMARK    3  A    between atoms: C_8  and  C_10
REMARK    4  A    between atoms: C_12  and  C_24
REMARK    5  A    between atoms: C_18  and  C_19
REMARK    6  A    between atoms: C_18  and  O_23
REMARK    7  A    between atoms: C_27  and  C_29
REMARK    8  A    between atoms: C_34  and  N_35
REMARK                            x       y       z     vdW  Elec       q    Type
REMARK                         _______ _______ _______ _____ _____    ______ ____
ROOT
ATOM      1  C   UNL     1      -0.817  -4.887  -2.277  0.00  0.00    +0.147 C 
ATOM      2  C   UNL     1       0.634  -5.287  -2.567  0.00  0.00    +0.156 C 
ATOM      3  N   UNL     1       1.067  -6.275  -1.578  0.00  0.00    -0.289 N 
ATOM      4  C   UNL     1       0.194  -7.114  -1.001  0.00  0.00    +0.302 C 
ATOM      5  O   UNL     1       0.608  -7.923  -0.193  0.00  0.00    -0.253 OA
ATOM      6  N   UNL     1      -1.118  -7.096  -1.280  0.00  0.00    -0.264 N 
ATOM      7  C   UNL     1      -1.677  -6.155  -2.252  0.00  0.00    +0.243 C 
ATOM      8  H   UNL     1       2.005  -6.324  -1.334  0.00  0.00    +0.151 HD
ATOM      9  H   UNL     1      -1.709  -7.719  -0.829  0.00  0.00    +0.153 HD
ENDROOT
BRANCH   2  10
ATOM     10  C   UNL     1       1.518  -4.070  -2.485  0.00  0.00    +0.127 A 
ATOM     11  C   UNL     1       2.057  -3.566  -1.357  0.00  0.00    +0.047 A 
ATOM     12  C   UNL     1       2.809  -2.434  -1.730  0.00  0.00    +0.050 A 
ATOM     13  C   UNL     1       2.686  -2.308  -3.078  0.00  0.00    +0.137 A 
ATOM     14  O   UNL     1       1.905  -3.311  -3.523  0.00  0.00    -0.458 OA
BRANCH  13  15
ATOM     15  C   UNL     1       3.308  -1.258  -3.912  0.00  0.00    +0.047 A 
ATOM     16  C   UNL     1       3.074   0.089  -3.632  0.00  0.00    +0.014 A 
ATOM     17  C   UNL     1       3.661   1.065  -4.411  0.00  0.00    +0.001 A 
ATOM     18  C   UNL     1       4.471   0.710  -5.475  0.00  0.00    +0.002 A 
ATOM     19  C   UNL     1       4.704  -0.624  -5.761  0.00  0.00    +0.033 A 
ATOM     20  C   UNL     1       4.127  -1.609  -4.986  0.00  0.00    +0.137 A 
BRANCH  20  21
ATOM     21  N   UNL     1       4.376  -3.035  -5.294  0.00  0.00    +0.057 N 
ATOM     22  O   UNL     1       4.994  -3.343  -6.297  0.00  0.00    -0.126 OA
ATOM     23  O   UNL     1       3.964  -3.901  -4.543  0.00  0.00    -0.126 OA
ENDBRANCH  20  21
ENDBRANCH  13  15
ENDBRANCH   2  10
BRANCH   7  24
ATOM     24  C   UNL     1      -3.109  -5.794  -1.851  0.00  0.00    +0.436 C 
ATOM     25  F   UNL     1      -3.639  -4.890  -2.777  0.00  0.00    -0.166 F 
ATOM     26  F   UNL     1      -3.893  -6.952  -1.829  0.00  0.00    -0.166 F 
ATOM     27  F   UNL     1      -3.103  -5.210  -0.579  0.00  0.00    -0.166 F 
ENDBRANCH   7  24
BRANCH   1  28
ATOM     28  C   UNL     1      -0.893  -4.198  -0.939  0.00  0.00    +0.173 C 
ATOM     29  O   UNL     1      -0.881  -4.852   0.082  0.00  0.00    -0.292 OA
BRANCH  28  34
ATOM     30  C   UNL     1      -1.242   1.535  -0.676  0.00  0.00    +0.044 C 
ATOM     31  C   UNL     1      -1.150   0.032  -0.745  0.00  0.00    -0.050 A 
ATOM     32  C   UNL     1      -1.004  -0.593  -1.971  0.00  0.00    +0.004 A 
ATOM     33  C   UNL     1      -0.915  -1.967  -2.042  0.00  0.00    +0.011 A 
ATOM     34  C   UNL     1      -0.983  -2.730  -0.872  0.00  0.00    +0.018 A 
ATOM     35  C   UNL     1      -1.136  -2.091   0.363  0.00  0.00    +0.011 A 
ATOM     36  C   UNL     1      -1.218  -0.716   0.418  0.00  0.00    +0.004 A 
ENDBRANCH  28  34
ENDBRANCH   1  28
BRANCH   7  37
ATOM     37  O   UNL     1      -1.681  -6.755  -3.549  0.00  0.00    -0.364 OA
ATOM     38  H   UNL     1      -2.207  -7.564  -3.607  0.00  0.00    +0.212 HD
ENDBRANCH   7  37
TORSDOF 7
