REMARK  Name = ZINC39696192
REMARK  10 active torsions:
REMARK  status: ('A' for Active; 'I' for Inactive)
REMARK    1  A    between atoms: C_1  and  C_2
REMARK    2  A    between atoms: C_2  and  C_3
REMARK    3  A    between atoms: C_6  and  C_9
REMARK    4  A    between atoms: C_9  and  C_11
REMARK    5  A    between atoms: C_9  and  N_12
REMARK    6  A    between atoms: C_13  and  C_15
REMARK    7  A    between atoms: C_26  and  C_28
REMARK    8  A    between atoms: C_33  and  O_34
REMARK    9  A    between atoms: O_34  and  C_35
REMARK   10  A    between atoms: C_38  and  C_41
REMARK                            x       y       z     vdW  Elec       q    Type
REMARK                         _______ _______ _______ _____ _____    ______ ____
ROOT
ATOM      1  C   UNL     1       2.224  -4.717   6.593  0.00  0.00    +0.100 C 
ATOM      2  C   UNL     1       1.248  -5.510   5.695  0.00  0.00    +0.121 C 
ATOM      3  N   UNL     1       1.925  -6.808   5.462  0.00  0.00    -0.296 N 
ATOM      4  C   UNL     1       2.547  -7.138   6.766  0.00  0.00    +0.115 C 
ATOM      5  C   UNL     1       3.072  -5.790   7.298  0.00  0.00    -0.004 C 
ATOM      6  C   UNL     1       2.880  -5.707   8.809  0.00  0.00    -0.010 C 
ATOM      7  C   UNL     1       3.777  -6.744   9.491  0.00  0.00    -0.082 C 
ATOM      8  N   UNL     1       5.179  -6.486   9.140  0.00  0.00    +0.379 N 
ATOM      9  C   UNL     1       5.375  -6.659   7.696  0.00  0.00    -0.082 C 
ATOM     10  C   UNL     1       4.545  -5.619   6.938  0.00  0.00    -0.010 C 
ATOM     11  C   UNL     1       1.964  -7.526   4.322  0.00  0.00    +0.252 C 
ATOM     12  O   UNL     1       2.484  -8.625   4.313  0.00  0.00    -0.270 OA
ATOM     13  H   UNL     1       5.421  -5.542   9.400  0.00  0.00    -0.086 HD
ATOM     14  H   UNL     1       5.773  -7.132   9.638  0.00  0.00    -0.086 HD
ENDROOT
BRANCH  11  15
ATOM     15  C   UNL     1       1.377  -6.978   3.084  0.00  0.00    +0.099 A 
ATOM     16  C   UNL     1       0.228  -6.180   3.134  0.00  0.00    +0.020 A 
ATOM     17  C   UNL     1      -0.284  -5.691   1.945  0.00  0.00    +0.021 A 
ATOM     18  C   UNL     1       0.348  -6.001   0.754  0.00  0.00    +0.114 A 
ATOM     19  N   UNL     1       1.429  -6.755   0.730  0.00  0.00    -0.220 NA
ATOM     20  C   UNL     1       1.962  -7.244   1.837  0.00  0.00    +0.233 A 
BRANCH  20  21
ATOM     21  O   UNL     1       3.077  -8.010   1.767  0.00  0.00    -0.437 OA
BRANCH  21  22
ATOM     22  C   UNL     1       3.557  -8.326   0.535  0.00  0.00    +0.130 A 
ATOM     23  C   UNL     1       3.330  -9.588   0.004  0.00  0.00    +0.046 A 
ATOM     24  C   UNL     1       3.819  -9.906  -1.248  0.00  0.00    +0.007 A 
ATOM     25  C   UNL     1       4.532  -8.969  -1.972  0.00  0.00    -0.050 A 
ATOM     26  C   UNL     1       4.760  -7.711  -1.445  0.00  0.00    +0.007 A 
ATOM     27  C   UNL     1       4.268  -7.385  -0.196  0.00  0.00    +0.046 A 
ATOM     28  C   UNL     1       5.064  -9.319  -3.338  0.00  0.00    +0.044 C 
ENDBRANCH  21  22
ENDBRANCH  20  21
ENDBRANCH  11  15
BRANCH   1  30
ATOM     29  N   UNL     1       3.582  -2.675   6.273  0.00  0.00    -0.308 N 
ATOM     30  C   UNL     1       3.100  -3.822   5.755  0.00  0.00    +0.219 C 
ATOM     31  O   UNL     1       3.371  -4.134   4.615  0.00  0.00    -0.275 OA
ATOM     32  H   UNL     1       3.365  -2.426   7.185  0.00  0.00    +0.149 HD
BRANCH  29  33
ATOM     33  C   UNL     1       4.434  -1.805   5.459  0.00  0.00    +0.100 C 
ATOM     34  C   UNL     1       5.885  -2.283   5.547  0.00  0.00    +0.033 C 
BRANCH  33  38
ATOM     35  C   UNL     1       4.164   2.206   6.903  0.00  0.00    -0.048 A 
ATOM     36  C   UNL     1       4.205   1.962   5.543  0.00  0.00    +0.004 A 
ATOM     37  C   UNL     1       4.292   0.664   5.075  0.00  0.00    +0.006 A 
ATOM     38  C   UNL     1       4.340  -0.390   5.968  0.00  0.00    -0.027 A 
ATOM     39  C   UNL     1       4.300  -0.146   7.328  0.00  0.00    +0.006 A 
ATOM     40  C   UNL     1       4.217   1.152   7.795  0.00  0.00    +0.004 A 
BRANCH  35  42
ATOM     41  C   UNL     1       5.476   4.190   7.605  0.00  0.00    +0.009 C 
ATOM     42  C   UNL     1       4.069   3.621   7.412  0.00  0.00    +0.032 C 
ENDBRANCH  35  42
ENDBRANCH  33  38
ENDBRANCH  29  33
ENDBRANCH   1  30
TORSDOF 7
