REMARK  Name = ZINC09476748
REMARK  8 active torsions:
REMARK  status: ('A' for Active; 'I' for Inactive)
REMARK    1  A    between atoms: C_1  and  C_2
REMARK    2  A    between atoms: C_2  and  C_4
REMARK    3  A    between atoms: C_2  and  C_19
REMARK    4  A    between atoms: N_21  and  C_22
REMARK    5  A    between atoms: C_22  and  C_23
REMARK    6  A    between atoms: C_23  and  C_25
REMARK    7  A    between atoms: C_23  and  O_27
REMARK    8  A    between atoms: C_25  and  O_26
REMARK                            x       y       z     vdW  Elec       q    Type
REMARK                         _______ _______ _______ _____ _____    ______ ____
ROOT
ATOM      1  C   UNL     1      -1.236   3.137   0.028  0.00  0.00    -0.034 A 
ATOM      2  C   UNL     1      -1.214   1.751   0.017  0.00  0.00    +0.005 A 
ATOM      3  C   UNL     1      -0.013   1.076   0.008  0.00  0.00    +0.011 A 
ATOM      4  C   UNL     1       1.183   1.791   0.000  0.00  0.00    +0.007 A 
ATOM      5  C   UNL     1       2.603   1.393  -0.014  0.00  0.00    +0.009 A 
ATOM      6  C   UNL     1       3.253   0.162  -0.026  0.00  0.00    +0.030 A 
ATOM      7  C   UNL     1       4.631   0.115  -0.038  0.00  0.00    +0.042 A 
ATOM      8  C   UNL     1       5.370   1.290  -0.039  0.00  0.00    +0.022 A 
ATOM      9  C   UNL     1       4.739   2.514  -0.028  0.00  0.00    +0.027 A 
ATOM     10  C   UNL     1       3.349   2.581  -0.015  0.00  0.00    +0.048 A 
ATOM     11  N   UNL     1       2.468   3.649  -0.002  0.00  0.00    -0.354 N 
ATOM     12  H   UNL     1       2.729   4.583   0.001  0.00  0.00    +0.166 HD
ATOM     13  C   UNL     1       1.162   3.193   0.008  0.00  0.00    +0.048 A 
ATOM     14  C   UNL     1      -0.061   3.857   0.022  0.00  0.00    +0.030 A 
ATOM     15 CL   UNL     1       5.445  -1.419  -0.053  0.00  0.00    -0.084 Cl
ENDROOT
BRANCH   1  17
ATOM     16  C   UNL     1      -3.341   3.471   1.297  0.00  0.00    +0.022 C 
ATOM     17  C   UNL     1      -2.557   3.863   0.043  0.00  0.00    +0.102 C 
BRANCH  17  18
ATOM     18  C   UNL     1      -3.350   3.488  -1.183  0.00  0.00    +0.220 C 
ATOM     19  O   UNL     1      -2.888   2.708  -1.989  0.00  0.00    -0.275 OA
ATOM     20  N   UNL     1      -4.572   4.019  -1.383  0.00  0.00    -0.312 N 
ATOM     21  H   UNL     1      -4.941   4.643  -0.739  0.00  0.00    +0.149 HD
BRANCH  20  22
ATOM     22  C   UNL     1      -5.343   3.655  -2.575  0.00  0.00    +0.137 C 
BRANCH  22  23
ATOM     23  C   UNL     1      -6.684   4.392  -2.560  0.00  0.00    +0.157 C 
BRANCH  23  24
ATOM     24  O   UNL     1      -7.415   4.026  -1.389  0.00  0.00    -0.388 OA
ATOM     25  H   UNL     1      -7.609   3.080  -1.325  0.00  0.00    +0.210 HD
ENDBRANCH  23  24
BRANCH  23  26
ATOM     26  C   UNL     1      -7.488   4.011  -3.804  0.00  0.00    +0.188 C 
BRANCH  26  27
ATOM     27  O   UNL     1      -8.688   4.786  -3.850  0.00  0.00    -0.392 OA
ATOM     28  H   UNL     1      -9.249   4.597  -4.615  0.00  0.00    +0.210 HD
ENDBRANCH  26  27
ENDBRANCH  23  26
ENDBRANCH  22  23
ENDBRANCH  20  22
ENDBRANCH  17  18
ENDBRANCH   1  17
TORSDOF 7
