REMARK  Name = ZINC32124795
REMARK  10 active torsions:
REMARK  status: ('A' for Active; 'I' for Inactive)
REMARK    1  A    between atoms: C_1  and  C_2
REMARK    2  A    between atoms: C_7  and  N_8
REMARK    3  A    between atoms: C_9  and  C_11
REMARK    4  A    between atoms: C_11  and  N_12
REMARK    5  A    between atoms: C_16  and  C_17
REMARK    6  A    between atoms: C_20  and  S_26
REMARK    7  A    between atoms: C_21  and  N_23
REMARK    8  A    between atoms: S_26  and  C_27
REMARK    9  A    between atoms: C_27  and  C_28
REMARK   10  A    between atoms: C_28  and  O_29
REMARK                            x       y       z     vdW  Elec       q    Type
REMARK                         _______ _______ _______ _____ _____    ______ ____
ROOT
ATOM      1  N   UNL     1      -0.229   0.478   2.067  0.00  0.00    -0.219 N 
ATOM      2  C   UNL     1      -1.352  -0.149   2.371  0.00  0.00    +0.261 C 
ATOM      3  O   UNL     1      -1.647  -1.215   1.862  0.00  0.00    -0.269 OA
ATOM      4  C   UNL     1      -2.231   0.507   3.358  0.00  0.00    +0.080 C 
ATOM      5  C   UNL     1      -3.428   0.103   3.854  0.00  0.00    +0.028 C 
ATOM      6  S   UNL     1      -1.285   1.981   3.720  0.00  0.00    -0.026 S 
ATOM      7  C   UNL     1       0.097   1.656   2.636  0.00  0.00    +0.286 C 
ATOM      8  O   UNL     1       1.090   2.334   2.455  0.00  0.00    -0.262 OA
ENDROOT
BRANCH   5   9
ATOM      9  C   UNL     1      -4.049   0.839   4.962  0.00  0.00    -0.022 A 
ATOM     10  C   UNL     1      -5.404   0.647   5.261  0.00  0.00    +0.009 A 
ATOM     11  C   UNL     1      -5.978   1.333   6.293  0.00  0.00    +0.017 A 
ATOM     12  C   UNL     1      -5.217   2.224   7.048  0.00  0.00    +0.038 A 
ATOM     13  C   UNL     1      -3.869   2.418   6.755  0.00  0.00    +0.140 A 
ATOM     14  C   UNL     1      -3.286   1.731   5.728  0.00  0.00    +0.041 A 
BRANCH  13  15
ATOM     15  N   UNL     1      -3.066   3.365   7.560  0.00  0.00    +0.058 N 
ATOM     16  O   UNL     1      -1.887   3.535   7.304  0.00  0.00    -0.126 OA
ATOM     17  O   UNL     1      -3.584   3.974   8.479  0.00  0.00    -0.126 OA
ENDBRANCH  13  15
BRANCH  12  18
ATOM     18  S   UNL     1      -5.962   3.107   8.378  0.00  0.00    -0.121 S 
BRANCH  18  19
ATOM     19  C   UNL     1      -7.684   2.537   8.374  0.00  0.00    +0.102 C 
BRANCH  19  20
ATOM     20  C   UNL     1      -8.455   3.235   9.496  0.00  0.00    +0.167 C 
BRANCH  20  21
ATOM     21  O   UNL     1      -9.812   2.785   9.492  0.00  0.00    -0.394 OA
ATOM     22  H   UNL     1     -10.524   3.179  10.233  0.00  0.00    +0.209 HD
ENDBRANCH  20  21
ENDBRANCH  19  20
ENDBRANCH  18  19
ENDBRANCH  12  18
ENDBRANCH   5   9
BRANCH   1  23
ATOM     23  C   UNL     1       0.686  -0.123   1.093  0.00  0.00    +0.213 C 
BRANCH  23  25
ATOM     24  N   UNL     1       1.045  -0.069  -1.353  0.00  0.00    -0.284 N 
ATOM     25  C   UNL     1       0.333   0.356  -0.291  0.00  0.00    +0.235 C 
ATOM     26  O   UNL     1      -0.592   1.124  -0.449  0.00  0.00    -0.274 OA
ATOM     27  H   UNL     1       1.932  -0.702  -1.204  0.00  0.00    +0.155 HD
BRANCH  24  34
ATOM     28  C   UNL     1       2.975  -0.245  -3.436  0.00  0.00    +0.045 C 
ATOM     29  C   UNL     1       1.566   0.224  -3.693  0.00  0.00    -0.029 A 
ATOM     30  C   UNL     1       1.179   0.583  -4.970  0.00  0.00    +0.006 A 
ATOM     31  C   UNL     1      -0.113   1.013  -5.207  0.00  0.00    +0.020 A 
ATOM     32  C   UNL     1      -1.023   1.085  -4.167  0.00  0.00    +0.043 A 
ATOM     33  C   UNL     1      -0.643   0.721  -2.889  0.00  0.00    +0.043 A 
ATOM     34  C   UNL     1       0.656   0.294  -2.647  0.00  0.00    +0.038 A 
ATOM     35 CL   UNL     1      -2.645   1.627  -4.469  0.00  0.00    -0.083 Cl
ENDBRANCH  24  34
ENDBRANCH  23  25
ENDBRANCH   1  23
TORSDOF 9
