REMARK  Name = ZINC12833515
REMARK  12 active torsions:
REMARK  status: ('A' for Active; 'I' for Inactive)
REMARK    1  A    between atoms: C_1  and  C_2
REMARK    2  A    between atoms: C_2  and  O_3
REMARK    3  A    between atoms: O_3  and  C_4
REMARK    4  A    between atoms: C_11  and  C_16
REMARK    5  A    between atoms: C_16  and  N_71
REMARK    6  A    between atoms: C_17  and  C_18
REMARK    7  A    between atoms: C_17  and  N_71
REMARK    8  A    between atoms: C_21  and  O_24
REMARK    9  A    between atoms: O_24  and  C_25
REMARK   10  A    between atoms: C_26  and  C_27
REMARK   11  A    between atoms: C_26  and  N_71
REMARK   12  A    between atoms: N_31  and  C_32
REMARK                            x       y       z     vdW  Elec       q    Type
REMARK                         _______ _______ _______ _____ _____    ______ ____
ROOT
ATOM      1  N   UNL     1      -1.853   4.818   0.224  0.00  0.00    +0.390 N 
ATOM      2  H   UNL     1      -2.062   5.581  -0.431  0.00  0.00    -0.080 HD
ENDROOT
BRANCH   1   3
ATOM      3  C   UNL     1      -0.410   4.841   0.543  0.00  0.00    -0.036 C 
BRANCH   3  11
ATOM      4  C   UNL     1       2.531   8.150  -3.796  0.00  0.00    +0.121 A 
ATOM      5  C   UNL     1       2.862   7.069  -4.609  0.00  0.00    +0.047 A 
ATOM      6  C   UNL     1       2.494   5.789  -4.260  0.00  0.00    +0.030 A 
ATOM      7  C   UNL     1       1.785   5.566  -3.084  0.00  0.00    +0.049 A 
ATOM      8  C   UNL     1       1.448   6.656  -2.259  0.00  0.00    +0.002 A 
ATOM      9  C   UNL     1       1.827   7.951  -2.625  0.00  0.00    +0.055 A 
ATOM     10  C   UNL     1       0.696   6.408  -1.027  0.00  0.00    +0.017 A 
ATOM     11  C   UNL     1       0.359   5.131  -0.720  0.00  0.00    +0.001 A 
ATOM     12  C   UNL     1       0.721   4.073  -1.581  0.00  0.00    +0.251 A 
ATOM     13  O   UNL     1       0.404   2.933  -1.288  0.00  0.00    -0.268 OA
ATOM     14  N   UNL     1       1.407   4.291  -2.717  0.00  0.00    -0.322 N 
ATOM     15  H   UNL     1       1.639   3.541  -3.286  0.00  0.00    +0.169 HD
BRANCH   4  16
ATOM     16  O   UNL     1       2.902   9.407  -4.157  0.00  0.00    -0.492 OA
BRANCH  16  18
ATOM     17  C   UNL     1       3.956  11.019  -5.617  0.00  0.00    +0.048 C 
ATOM     18  C   UNL     1       3.628   9.543  -5.380  0.00  0.00    +0.225 C 
ENDBRANCH  16  18
ENDBRANCH   4  16
ENDBRANCH   3  11
ENDBRANCH   1   3
BRANCH   1  19
ATOM     19  C   UNL     1      -2.647   5.011   1.456  0.00  0.00    -0.042 C 
BRANCH  19  20
ATOM     20  C   UNL     1      -4.014   5.517   1.074  0.00  0.00    -0.064 A 
ATOM     21  C   UNL     1      -4.160   6.795   0.567  0.00  0.00    +0.005 A 
ATOM     22  C   UNL     1      -5.411   7.260   0.211  0.00  0.00    +0.046 A 
ATOM     23  C   UNL     1      -6.523   6.447   0.373  0.00  0.00    +0.120 A 
ATOM     24  C   UNL     1      -6.375   5.167   0.886  0.00  0.00    +0.046 A 
ATOM     25  C   UNL     1      -5.121   4.705   1.236  0.00  0.00    +0.005 A 
BRANCH  23  26
ATOM     26  O   UNL     1      -7.756   6.903   0.028  0.00  0.00    -0.495 OA
ATOM     27  C   UNL     1      -7.834   8.231  -0.494  0.00  0.00    +0.277 C 
ENDBRANCH  23  26
ENDBRANCH  19  20
ENDBRANCH   1  19
BRANCH   1  28
ATOM     28  C   UNL     1      -2.209   3.531  -0.410  0.00  0.00    +0.001 C 
BRANCH  28  29
ATOM     29  C   UNL     1      -3.525   3.694  -1.127  0.00  0.00    +0.135 A 
ATOM     30  N   UNL     1      -4.705   3.331  -0.688  0.00  0.00    -0.115 NA
ATOM     31  N   UNL     1      -5.576   3.639  -1.586  0.00  0.00    -0.023 NA
ATOM     32  N   UNL     1      -4.983   4.194  -2.585  0.00  0.00    -0.044 NA
ATOM     33  N   UNL     1      -3.716   4.241  -2.342  0.00  0.00    -0.228 N 
BRANCH  33  34
ATOM     34  C   UNL     1      -2.682   4.791  -3.221  0.00  0.00    +0.111 C 
ATOM     35  C   UNL     1      -3.060   6.219  -3.622  0.00  0.00    +0.027 C 
ATOM     36  C   UNL     1      -1.980   6.794  -4.540  0.00  0.00    +0.002 C 
ATOM     37  C   UNL     1      -1.861   5.926  -5.794  0.00  0.00    +0.000 C 
ATOM     38  C   UNL     1      -1.483   4.499  -5.393  0.00  0.00    +0.002 C 
ATOM     39  C   UNL     1      -2.563   3.924  -4.475  0.00  0.00    +0.027 C 
ENDBRANCH  33  34
ENDBRANCH  28  29
ENDBRANCH   1  28
TORSDOF 10
