REMARK  Name = ZINC36155149
REMARK  14 active torsions:
REMARK  status: ('A' for Active; 'I' for Inactive)
REMARK    1  A    between atoms: C_1  and  C_2
REMARK    2  A    between atoms: C_2  and  C_3
REMARK    3  A    between atoms: C_3  and  C_5
REMARK    4  A    between atoms: C_3  and  C_6
REMARK    5  A    between atoms: C_6  and  C_8
REMARK    6  A    between atoms: C_6  and  N_22
REMARK    7  A    between atoms: C_10  and  C_13
REMARK    8  A    between atoms: N_22  and  C_23
REMARK    9  A    between atoms: C_23  and  C_24
REMARK   10  A    between atoms: C_24  and  C_26
REMARK   11  A    between atoms: C_24  and  O_35
REMARK   12  A    between atoms: C_26  and  O_27
REMARK   13  A    between atoms: O_27  and  C_28
REMARK   14  A    between atoms: C_33  and  C_34
REMARK                            x       y       z     vdW  Elec       q    Type
REMARK                         _______ _______ _______ _____ _____    ______ ____
ROOT
ATOM      1  C   UNL     1      -1.413  -2.059   0.130  0.00  0.00    +0.022 C 
ENDROOT
BRANCH   1   2
ATOM      2  C   UNL     1      -0.568  -2.637  -0.976  0.00  0.00    +0.214 A 
ATOM      3  N   UNL     1      -1.016  -3.233  -2.043  0.00  0.00    -0.193 NA
ATOM      4  C   UNL     1       0.012  -3.625  -2.818  0.00  0.00    +0.202 A 
ATOM      5  N   UNL     1       1.133  -3.273  -2.235  0.00  0.00    -0.056 NA
ATOM      6  O   UNL     1       0.770  -2.619  -1.029  0.00  0.00    -0.339 OA
BRANCH   4   7
ATOM      7  C   UNL     1      -0.103  -4.336  -4.114  0.00  0.00    +0.026 A 
ATOM      8  C   UNL     1      -1.359  -4.650  -4.629  0.00  0.00    +0.015 A 
ATOM      9  C   UNL     1      -1.466  -5.311  -5.835  0.00  0.00    +0.050 A 
ATOM     10  C   UNL     1      -0.324  -5.668  -6.538  0.00  0.00    +0.166 A 
ATOM     11  C   UNL     1       0.935  -5.356  -6.027  0.00  0.00    +0.167 A 
ATOM     12  C   UNL     1       1.046  -4.688  -4.822  0.00  0.00    +0.061 A 
ATOM     13  O   UNL     1       1.883  -5.810  -6.899  0.00  0.00    -0.453 OA
ATOM     14  C   UNL     1       1.206  -6.759  -7.743  0.00  0.00    +0.466 C 
ATOM     15  O   UNL     1      -0.163  -6.315  -7.729  0.00  0.00    -0.453 OA
ENDBRANCH   4   7
ENDBRANCH   1   2
BRANCH   1  16
ATOM     16  N   UNL     1      -0.848  -2.443   1.431  0.00  0.00    +0.389 N 
ATOM     17  H   UNL     1      -0.758  -3.447   1.475  0.00  0.00    -0.085 HD
ATOM     18  H   UNL     1       0.061  -2.019   1.540  0.00  0.00    -0.085 HD
BRANCH  16  19
ATOM     19  C   UNL     1      -1.736  -1.982   2.506  0.00  0.00    -0.046 C 
BRANCH  19  20
ATOM     20  C   UNL     1      -1.147  -2.381   3.860  0.00  0.00    +0.135 C 
BRANCH  20  21
ATOM     21  O   UNL     1      -1.020  -3.803   3.924  0.00  0.00    -0.390 OA
ATOM     22  H   UNL     1      -1.857  -4.278   3.826  0.00  0.00    +0.210 HD
ENDBRANCH  20  21
BRANCH  20  23
ATOM     23  C   UNL     1      -2.072  -1.901   4.981  0.00  0.00    +0.258 C 
BRANCH  23  24
ATOM     24  O   UNL     1      -1.466  -2.171   6.247  0.00  0.00    -0.489 OA
BRANCH  24  25
ATOM     25  C   UNL     1      -2.163  -1.804   7.354  0.00  0.00    +0.124 A 
ATOM     26  C   UNL     1      -3.406  -1.201   7.225  0.00  0.00    +0.046 A 
ATOM     27  C   UNL     1      -4.112  -0.829   8.353  0.00  0.00    +0.004 A 
ATOM     28  C   UNL     1      -3.581  -1.057   9.609  0.00  0.00    +0.000 A 
ATOM     29  C   UNL     1      -2.342  -1.656   9.740  0.00  0.00    +0.007 A 
ATOM     30  C   UNL     1      -1.634  -2.035   8.616  0.00  0.00    -0.009 A 
ATOM     31  C   UNL     1      -0.287  -2.694   8.759  0.00  0.00    +0.047 C 
ENDBRANCH  24  25
ENDBRANCH  23  24
ENDBRANCH  20  23
ENDBRANCH  19  20
ENDBRANCH  16  19
ENDBRANCH   1  16
BRANCH   1  32
ATOM     32  C   UNL     1      -1.433  -0.534   0.013  0.00  0.00    -0.020 C 
ATOM     33  C   UNL     1      -2.135  -0.131  -1.286  0.00  0.00    +0.006 C 
BRANCH  32  35
ATOM     34  C   UNL     1      -0.019   1.526   0.010  0.00  0.00    +0.004 C 
ATOM     35  C   UNL     1       0.002  -0.004   0.002  0.00  0.00    -0.001 C 
ENDBRANCH  32  35
ENDBRANCH   1  32
TORSDOF 11
