REMARK  Name = ZINC08670463
REMARK  14 active torsions:
REMARK  status: ('A' for Active; 'I' for Inactive)
REMARK    1  A    between atoms: C_1  and  C_2
REMARK    2  A    between atoms: C_2  and  C_3
REMARK    3  A    between atoms: C_3  and  C_5
REMARK    4  A    between atoms: C_3  and  N_67
REMARK    5  A    between atoms: N_9  and  C_10
REMARK    6  A    between atoms: C_10  and  C_11
REMARK    7  A    between atoms: C_17  and  C_18
REMARK    8  A    between atoms: C_17  and  N_67
REMARK    9  A    between atoms: C_23  and  C_24
REMARK   10  A    between atoms: C_23  and  N_67
REMARK   11  A    between atoms: C_28  and  O_35
REMARK   12  A    between atoms: C_33  and  O_34
REMARK   13  A    between atoms: O_35  and  C_36
REMARK   14  A    between atoms: C_36  and  C_37
REMARK                            x       y       z     vdW  Elec       q    Type
REMARK                         _______ _______ _______ _____ _____    ______ ____
ROOT
ATOM      1  N   UNL     1       3.983   0.664  -3.225  0.00  0.00    +0.394 N 
ATOM      2  H   UNL     1       4.533   0.603  -4.090  0.00  0.00    -0.080 HD
ENDROOT
BRANCH   1   3
ATOM      3  C   UNL     1       3.888   2.082  -2.816  0.00  0.00    +0.003 C 
BRANCH   3   4
ATOM      4  C   UNL     1       3.018   2.821  -3.800  0.00  0.00    +0.138 A 
ATOM      5  N   UNL     1       3.053   2.720  -5.106  0.00  0.00    -0.115 NA
ATOM      6  N   UNL     1       2.162   3.514  -5.591  0.00  0.00    -0.023 NA
ATOM      7  N   UNL     1       1.555   4.115  -4.628  0.00  0.00    -0.044 NA
ATOM      8  N   UNL     1       2.053   3.712  -3.507  0.00  0.00    -0.226 N 
BRANCH   8   9
ATOM      9  C   UNL     1       1.647   4.148  -2.168  0.00  0.00    +0.182 C 
BRANCH   9  10
ATOM     10  C   UNL     1       0.549   3.251  -1.659  0.00  0.00    -0.026 A 
ATOM     11  C   UNL     1       0.864   2.112  -0.941  0.00  0.00    +0.005 A 
ATOM     12  C   UNL     1      -0.143   1.289  -0.474  0.00  0.00    +0.000 A 
ATOM     13  C   UNL     1      -1.466   1.601  -0.729  0.00  0.00    +0.000 A 
ATOM     14  C   UNL     1      -1.781   2.742  -1.443  0.00  0.00    +0.000 A 
ATOM     15  C   UNL     1      -0.773   3.566  -1.910  0.00  0.00    +0.005 A 
ENDBRANCH   9  10
ENDBRANCH   8   9
ENDBRANCH   3   4
BRANCH   3  17
ATOM     16  C   UNL     1       5.857   2.664  -4.238  0.00  0.00    +0.002 C 
ATOM     17  C   UNL     1       5.291   2.690  -2.817  0.00  0.00    -0.011 C 
ENDBRANCH   3  17
ENDBRANCH   1   3
BRANCH   1  18
ATOM     18  C   UNL     1       2.632   0.119  -3.476  0.00  0.00    -0.002 C 
BRANCH  18  19
ATOM     19  C   UNL     1       2.764  -1.144  -4.287  0.00  0.00    +0.089 A 
ATOM     20  C   UNL     1       2.764  -2.397  -3.797  0.00  0.00    +0.042 A 
ATOM     21  C   UNL     1       2.910  -3.268  -4.900  0.00  0.00    +0.041 A 
ATOM     22  C   UNL     1       2.991  -2.496  -5.999  0.00  0.00    +0.195 A 
ATOM     23  O   UNL     1       2.896  -1.211  -5.622  0.00  0.00    -0.470 OA
ENDBRANCH  18  19
ENDBRANCH   1  18
BRANCH   1  24
ATOM     24  C   UNL     1       4.657  -0.122  -2.170  0.00  0.00    -0.036 C 
BRANCH  24  25
ATOM     25  C   UNL     1       3.878  -0.053  -0.881  0.00  0.00    -0.002 A 
ATOM     26  C   UNL     1       2.933  -0.995  -0.604  0.00  0.00    +0.017 A 
ATOM     27  C   UNL     1       2.231  -0.897   0.614  0.00  0.00    +0.004 A 
ATOM     28  C   UNL     1       1.247  -1.835   0.965  0.00  0.00    +0.055 A 
ATOM     29  C   UNL     1       0.584  -1.705   2.152  0.00  0.00    +0.121 A 
ATOM     30  C   UNL     1       0.873  -0.649   3.020  0.00  0.00    +0.048 A 
ATOM     31  C   UNL     1       1.821   0.275   2.707  0.00  0.00    +0.032 A 
ATOM     32  C   UNL     1       2.524   0.173   1.494  0.00  0.00    +0.075 A 
ATOM     33  N   UNL     1       3.460   1.070   1.163  0.00  0.00    -0.213 NA
ATOM     34  C   UNL     1       4.121   0.981   0.030  0.00  0.00    +0.214 A 
BRANCH  34  35
ATOM     35  O   UNL     1       5.061   1.913  -0.263  0.00  0.00    -0.492 OA
ATOM     36  H   UNL     1       4.704   2.724  -0.652  0.00  0.00    +0.294 HD
ENDBRANCH  34  35
BRANCH  29  37
ATOM     37  O   UNL     1      -0.369  -2.613   2.492  0.00  0.00    -0.492 OA
BRANCH  37  38
ATOM     38  C   UNL     1      -1.028  -2.423   3.746  0.00  0.00    +0.225 C 
ATOM     39  C   UNL     1      -2.059  -3.534   3.954  0.00  0.00    +0.048 C 
ENDBRANCH  37  38
ENDBRANCH  29  37
ENDBRANCH  24  25
ENDBRANCH   1  24
TORSDOF 12
