REMARK  Name = ZINC55107490
REMARK  15 active torsions:
REMARK  status: ('A' for Active; 'I' for Inactive)
REMARK    1  A    between atoms: C_1  and  C_2
REMARK    2  A    between atoms: C_2  and  N_3
REMARK    3  A    between atoms: C_4  and  C_27
REMARK    4  A    between atoms: C_6  and  C_13
REMARK    5  A    between atoms: C_9  and  C_10
REMARK    6  A    between atoms: C_9  and  C_11
REMARK    7  A    between atoms: C_11  and  O_12
REMARK    8  A    between atoms: C_13  and  N_14
REMARK    9  A    between atoms: N_14  and  C_15
REMARK   10  A    between atoms: C_15  and  C_16
REMARK   11  A    between atoms: C_19  and  O_24
REMARK   12  A    between atoms: C_20  and  C_22
REMARK   13  A    between atoms: C_22  and  O_23
REMARK   14  A    between atoms: O_24  and  C_25
REMARK   15  A    between atoms: C_25  and  C_26
REMARK                            x       y       z     vdW  Elec       q    Type
REMARK                         _______ _______ _______ _____ _____    ______ ____
ROOT
ATOM      1  N   UNL     1       0.690  -0.478  -1.207  0.00  0.00    -0.288 NA
ATOM      2  C   UNL     1      -0.109  -0.196  -2.414  0.00  0.00    +0.089 C 
ATOM      3  C   UNL     1      -0.339  -1.542  -3.134  0.00  0.00    -0.005 C 
ATOM      4  C   UNL     1       0.819  -2.426  -2.601  0.00  0.00    +0.028 C 
ATOM      5  C   UNL     1       0.941  -1.933  -1.137  0.00  0.00    +0.043 C 
ATOM      6  C   UNL     1      -0.109  -2.614  -0.257  0.00  0.00    +0.030 C 
ENDROOT
BRANCH   2   7
ATOM      7  C   UNL     1       0.641   0.750  -3.316  0.00  0.00    -0.030 A 
ATOM      8  C   UNL     1       2.009   0.622  -3.466  0.00  0.00    +0.006 A 
ATOM      9  C   UNL     1       2.697   1.490  -4.293  0.00  0.00    +0.020 A 
ATOM     10  C   UNL     1       2.017   2.486  -4.970  0.00  0.00    +0.041 A 
ATOM     11  C   UNL     1       0.647   2.613  -4.819  0.00  0.00    +0.020 A 
ATOM     12  C   UNL     1      -0.041   1.742  -3.996  0.00  0.00    +0.006 A 
ATOM     13 CL   UNL     1       2.881   3.576  -6.009  0.00  0.00    -0.084 Cl
ENDBRANCH   2   7
BRANCH   1  15
ATOM     14  C   UNL     1      -0.019   1.526   0.010  0.00  0.00    +0.020 C 
ATOM     15  C   UNL     1       0.002  -0.004   0.002  0.00  0.00    +0.082 C 
ENDBRANCH   1  15
BRANCH   5  16
ATOM     16  C   UNL     1       2.347  -2.206  -0.599  0.00  0.00    +0.177 C 
BRANCH  16  17
ATOM     17  O   UNL     1       2.569  -3.616  -0.540  0.00  0.00    -0.393 OA
ATOM     18  H   UNL     1       3.443  -3.863  -0.207  0.00  0.00    +0.209 HD
ENDBRANCH  16  17
ENDBRANCH   5  16
BRANCH   3  19
ATOM     19  C   UNL     1      -0.238  -1.368  -4.650  0.00  0.00    -0.077 C 
BRANCH  19  20
ATOM     20  N   UNL     1      -0.579  -2.634  -5.312  0.00  0.00    +0.382 N 
ATOM     21  H   UNL     1       0.062  -3.353  -5.013  0.00  0.00    -0.085 HD
ATOM     22  H   UNL     1      -1.521  -2.900  -5.066  0.00  0.00    -0.085 HD
BRANCH  20  23
ATOM     23  C   UNL     1      -0.482  -2.467  -6.768  0.00  0.00    -0.047 C 
BRANCH  23  24
ATOM     24  C   UNL     1      -0.832  -3.767  -7.447  0.00  0.00    -0.064 A 
ATOM     25  C   UNL     1       0.159  -4.694  -7.714  0.00  0.00    +0.005 A 
ATOM     26  C   UNL     1      -0.159  -5.886  -8.337  0.00  0.00    +0.046 A 
ATOM     27  C   UNL     1      -1.473  -6.152  -8.694  0.00  0.00    +0.126 A 
ATOM     28  C   UNL     1      -2.464  -5.220  -8.424  0.00  0.00    +0.020 A 
ATOM     29  C   UNL     1      -2.142  -4.032  -7.797  0.00  0.00    +0.011 A 
BRANCH  28  30
ATOM     30  C   UNL     1      -3.893  -5.506  -8.811  0.00  0.00    +0.194 C 
BRANCH  30  31
ATOM     31  O   UNL     1      -4.719  -4.404  -8.431  0.00  0.00    -0.390 OA
ATOM     32  H   UNL     1      -5.654  -4.519  -8.649  0.00  0.00    +0.210 HD
ENDBRANCH  30  31
ENDBRANCH  28  30
BRANCH  27  33
ATOM     33  O   UNL     1      -1.788  -7.323  -9.307  0.00  0.00    -0.492 OA
BRANCH  33  34
ATOM     34  C   UNL     1      -0.715  -8.235  -9.553  0.00  0.00    +0.225 C 
ATOM     35  C   UNL     1      -1.259  -9.487 -10.245  0.00  0.00    +0.048 C 
ENDBRANCH  33  34
ENDBRANCH  27  33
ENDBRANCH  23  24
ENDBRANCH  20  23
ENDBRANCH  19  20
ENDBRANCH   3  19
TORSDOF 12
