REMARK  Name = ZINC12057014
REMARK  9 active torsions:
REMARK  status: ('A' for Active; 'I' for Inactive)
REMARK    1  A    between atoms: C_1  and  O_2
REMARK    2  A    between atoms: O_2  and  C_3
REMARK    3  A    between atoms: C_7  and  C_11
REMARK    4  A    between atoms: C_8  and  O_9
REMARK    5  A    between atoms: O_9  and  C_10
REMARK    6  A    between atoms: C_25  and  C_26
REMARK    7  A    between atoms: C_25  and  N_57
REMARK    8  A    between atoms: C_29  and  C_31
REMARK    9  A    between atoms: C_31  and  O_32
REMARK                            x       y       z     vdW  Elec       q    Type
REMARK                         _______ _______ _______ _____ _____    ______ ____
ROOT
ATOM      1  C   UNL     1       3.724  -0.694  -0.037  0.00  0.00    +0.015 C 
ATOM      2  C   UNL     1       4.066  -1.154   1.361  0.00  0.00    +0.011 A 
ATOM      3  C   UNL     1       5.308  -1.032   1.890  0.00  0.00    -0.022 A 
ATOM      4  C   UNL     1       5.253  -1.567   3.232  0.00  0.00    +0.003 A 
ATOM      5  C   UNL     1       6.211  -1.707   4.241  0.00  0.00    +0.010 A 
ATOM      6  C   UNL     1       5.794  -2.273   5.420  0.00  0.00    +0.001 A 
ATOM      7  C   UNL     1       4.488  -2.690   5.615  0.00  0.00    +0.002 A 
ATOM      8  C   UNL     1       3.519  -2.564   4.635  0.00  0.00    +0.026 A 
ATOM      9  C   UNL     1       3.913  -1.993   3.427  0.00  0.00    +0.047 A 
ATOM     10  N   UNL     1       3.229  -1.726   2.275  0.00  0.00    -0.359 N 
ATOM     11  H   UNL     1       2.289  -1.916   2.127  0.00  0.00    +0.166 HD
ATOM     12  C   UNL     1       6.477  -0.439   1.145  0.00  0.00    +0.019 C 
ATOM     13  C   UNL     1       6.115  -0.391  -0.346  0.00  0.00    -0.072 C 
ATOM     14  N   UNL     1       4.783   0.238  -0.490  0.00  0.00    +0.393 N 
ATOM     15  H   UNL     1       4.751   1.085   0.089  0.00  0.00    -0.080 HD
ENDROOT
BRANCH   1  20
ATOM     16  C   UNL     1       0.002  -0.004   0.002  0.00  0.00    +0.162 A 
ATOM     17  C   UNL     1      -0.017   1.381   0.010  0.00  0.00    +0.049 A 
ATOM     18  C   UNL     1       1.171   2.089   0.002  0.00  0.00    +0.004 A 
ATOM     19  C   UNL     1       2.379   1.417  -0.013  0.00  0.00    +0.006 A 
ATOM     20  C   UNL     1       2.405   0.035  -0.021  0.00  0.00    -0.010 A 
ATOM     21  C   UNL     1       1.218  -0.680  -0.013  0.00  0.00    +0.163 A 
BRANCH  16  23
ATOM     22  C   UNL     1      -2.375   0.059   0.024  0.00  0.00    +0.277 C 
ATOM     23  O   UNL     1      -1.165  -0.702   0.009  0.00  0.00    -0.491 OA
ENDBRANCH  16  23
BRANCH  21  24
ATOM     24  O   UNL     1       1.242  -2.040  -0.021  0.00  0.00    -0.491 OA
ATOM     25  C   UNL     1       1.241  -2.681  -1.298  0.00  0.00    +0.277 C 
ENDBRANCH  21  24
ENDBRANCH   1  20
BRANCH  14  26
ATOM     26  C   UNL     1       4.553   0.614  -1.901  0.00  0.00    -0.002 C 
BRANCH  26  27
ATOM     27  C   UNL     1       5.770   1.333  -2.425  0.00  0.00    +0.089 A 
ATOM     28  C   UNL     1       6.819   0.759  -3.040  0.00  0.00    +0.043 A 
ATOM     29  C   UNL     1       7.724   1.796  -3.360  0.00  0.00    +0.047 A 
ATOM     30  C   UNL     1       7.174   2.943  -2.922  0.00  0.00    +0.130 A 
ATOM     31  O   UNL     1       5.987   2.657  -2.361  0.00  0.00    -0.464 OA
BRANCH  30  32
ATOM     32  C   UNL     1       7.782   4.316  -3.045  0.00  0.00    +0.230 C 
BRANCH  32  33
ATOM     33  O   UNL     1       7.365   4.913  -4.274  0.00  0.00    -0.387 OA
ATOM     34  H   UNL     1       7.719   5.801  -4.421  0.00  0.00    +0.210 HD
ENDBRANCH  32  33
ENDBRANCH  30  32
ENDBRANCH  26  27
ENDBRANCH  14  26
TORSDOF 7
