REMARK  Name = ZINC49060881
REMARK  7 active torsions:
REMARK  status: ('A' for Active; 'I' for Inactive)
REMARK    1  A    between atoms: C_1  and  C_2
REMARK    2  A    between atoms: C_2  and  C_4
REMARK    3  A    between atoms: C_2  and  N_20
REMARK    4  A    between atoms: C_9  and  N_10
REMARK    5  A    between atoms: N_10  and  S_11
REMARK    6  A    between atoms: S_11  and  C_14
REMARK    7  A    between atoms: N_20  and  C_21
REMARK                            x       y       z     vdW  Elec       q    Type
REMARK                         _______ _______ _______ _____ _____    ______ ____
ROOT
ATOM      1  C   UNL     1       0.707  -0.490  -1.238  0.00  0.00    -0.037 A 
ATOM      2  C   UNL     1      -0.021  -0.817  -2.365  0.00  0.00    +0.004 A 
ATOM      3  C   UNL     1       0.625  -1.264  -3.502  0.00  0.00    +0.000 A 
ATOM      4  C   UNL     1       2.003  -1.384  -3.517  0.00  0.00    +0.002 A 
ATOM      5  C   UNL     1       2.737  -1.058  -2.394  0.00  0.00    +0.027 A 
ATOM      6  C   UNL     1       2.092  -0.604  -1.251  0.00  0.00    +0.076 A 
ENDROOT
BRANCH   1   8
ATOM      7  C   UNL     1      -0.019   1.526   0.010  0.00  0.00    -0.009 C 
ATOM      8  C   UNL     1       0.002  -0.004   0.002  0.00  0.00    -0.043 C 
BRANCH   8   9
ATOM      9  N   UNL     1      -1.376  -0.512   0.012  0.00  0.00    +0.382 N 
ATOM     10  C   UNL     1      -2.026  -0.140   1.276  0.00  0.00    -0.100 C 
ATOM     11  H   UNL     1      -1.888  -0.113  -0.760  0.00  0.00    -0.085 HD
ATOM     12  H   UNL     1      -1.364  -1.518  -0.076  0.00  0.00    -0.085 HD
ENDBRANCH   8   9
ENDBRANCH   1   8
BRANCH   6  13
ATOM     13  N   UNL     1       2.832  -0.269  -0.115  0.00  0.00    -0.097 NA
BRANCH  13  14
ATOM     14  S   UNL     1       4.482  -0.406  -0.132  0.00  0.00    +0.099 S 
ATOM     15  O   UNL     1       4.774  -1.791  -0.250  0.00  0.00    -0.148 OA
ATOM     16  O   UNL     1       4.960   0.555  -1.064  0.00  0.00    -0.148 OA
BRANCH  14  17
ATOM     17  C   UNL     1       5.064   0.098   1.453  0.00  0.00    +0.161 A 
ATOM     18  C   UNL     1       6.337   0.163   1.914  0.00  0.00    +0.052 A 
ATOM     19  C   UNL     1       6.559   0.594   3.209  0.00  0.00    +0.025 A 
ATOM     20  C   UNL     1       5.497   0.938   3.979  0.00  0.00    +0.048 A 
ATOM     21  S   UNL     1       4.129   0.663   2.866  0.00  0.00    -0.076 S 
ATOM     22 BR   UNL     1       7.787  -0.328   0.804  0.00  0.00    -0.048 Br
ENDBRANCH  14  17
ENDBRANCH  13  14
ENDBRANCH   6  13
TORSDOF 5
