REMARK  Name = ZINC05625271
REMARK  7 active torsions:
REMARK  status: ('A' for Active; 'I' for Inactive)
REMARK    1  A    between atoms: C_1  and  C_2
REMARK    2  A    between atoms: C_2  and  C_30
REMARK    3  A    between atoms: C_4  and  N_9
REMARK    4  A    between atoms: C_12  and  O_14
REMARK    5  A    between atoms: C_15  and  C_22
REMARK    6  A    between atoms: C_27  and  O_28
REMARK    7  A    between atoms: O_28  and  C_29
REMARK                            x       y       z     vdW  Elec       q    Type
REMARK                         _______ _______ _______ _____ _____    ______ ____
ROOT
ATOM      1  N   UNL     1      -3.476  -0.649   1.361  0.00  0.00    -0.243 N 
ATOM      2  C   UNL     1      -4.646   0.070   1.422  0.00  0.00    +0.132 A 
ATOM      3  C   UNL     1      -5.659  -0.823   1.459  0.00  0.00    +0.072 A 
ATOM      4  C   UNL     1      -5.093  -2.119   1.417  0.00  0.00    +0.238 A 
ATOM      5  N   UNL     1      -3.795  -2.007   1.353  0.00  0.00    -0.131 NA
ATOM      6  C   UNL     1      -7.138  -0.605   1.531  0.00  0.00    +0.119 C 
ATOM      7  S   UNL     1      -7.596   0.840   2.492  0.00  0.00    -0.138 S 
ATOM      8  C   UNL     1      -7.015   2.262   1.558  0.00  0.00    +0.166 C 
ATOM      9  C   UNL     1      -5.541   2.369   1.527  0.00  0.00    +0.228 C 
ATOM     10  O   UNL     1      -5.110   3.500   1.602  0.00  0.00    -0.275 OA
ATOM     11  N   UNL     1      -4.634   1.444   1.431  0.00  0.00    -0.270 N 
ATOM     12  H   UNL     1      -3.739   1.808   1.346  0.00  0.00    +0.156 HD
ENDROOT
BRANCH   1  16
ATOM     13  C   UNL     1      -0.019   1.526   0.010  0.00  0.00    +0.041 C 
ATOM     14  C   UNL     1       0.002  -0.004   0.002  0.00  0.00    +0.066 C 
ATOM     15  C   UNL     1      -1.434  -0.534   0.014  0.00  0.00    +0.061 C 
ATOM     16  C   UNL     1      -2.124  -0.086   1.306  0.00  0.00    +0.114 C 
ATOM     17  C   UNL     1      -1.311  -0.582   2.506  0.00  0.00    +0.055 C 
ATOM     18  C   UNL     1       0.120  -0.050   2.397  0.00  0.00    +0.162 C 
ATOM     19  O   UNL     1       0.693  -0.478   1.160  0.00  0.00    -0.374 OA
ATOM     20  C   UNL     1       0.718  -0.498  -1.257  0.00  0.00    +0.041 C 
ENDBRANCH   1  16
BRANCH   6  21
ATOM     21  C   UNL     1      -7.776  -1.820   2.153  0.00  0.00    +0.012 A 
ATOM     22  C   UNL     1      -8.043  -1.842   3.509  0.00  0.00    +0.008 A 
ATOM     23  C   UNL     1      -8.629  -2.956   4.081  0.00  0.00    +0.001 A 
ATOM     24  C   UNL     1      -8.948  -4.051   3.298  0.00  0.00    +0.004 A 
ATOM     25  C   UNL     1      -8.684  -4.033   1.943  0.00  0.00    +0.046 A 
ATOM     26  C   UNL     1      -8.101  -2.914   1.365  0.00  0.00    +0.125 A 
BRANCH  26  27
ATOM     27  O   UNL     1      -7.845  -2.892   0.031  0.00  0.00    -0.495 OA
ATOM     28  C   UNL     1      -8.207  -4.053  -0.719  0.00  0.00    +0.277 C 
ENDBRANCH  26  27
ENDBRANCH   6  21
BRANCH   4  29
ATOM     29  O   UNL     1      -5.788  -3.288   1.435  0.00  0.00    -0.491 OA
ATOM     30  H   UNL     1      -6.029  -3.616   0.557  0.00  0.00    +0.294 HD
ENDBRANCH   4  29
TORSDOF 4
