REMARK  Name = ZINC13734134
REMARK  6 active torsions:
REMARK  status: ('A' for Active; 'I' for Inactive)
REMARK    1  A    between atoms: C_4  and  S_7
REMARK    2  A    between atoms: S_7  and  N_10
REMARK    3  A    between atoms: C_16  and  C_20
REMARK    4  A    between atoms: N_22  and  C_23
REMARK    5  A    between atoms: C_23  and  C_24
REMARK    6  A    between atoms: C_24  and  C_25
REMARK                            x       y       z     vdW  Elec       q    Type
REMARK                         _______ _______ _______ _____ _____    ______ ____
ROOT
ATOM      1  N   UNL     1      -9.593  -6.791  -4.108  0.00  0.00    -0.194 N 
ATOM      2  C   UNL     1      -8.502  -5.998  -3.825  0.00  0.00    +0.179 A 
ATOM      3  N   UNL     1      -7.959  -5.729  -2.657  0.00  0.00    -0.224 NA
ATOM      4  C   UNL     1      -6.883  -4.929  -2.525  0.00  0.00    +0.080 A 
ATOM      5  C   UNL     1      -6.209  -4.564  -1.333  0.00  0.00    +0.029 A 
ATOM      6  C   UNL     1      -5.132  -3.741  -1.363  0.00  0.00    +0.015 A 
ATOM      7  C   UNL     1      -4.642  -3.220  -2.568  0.00  0.00    +0.038 A 
ATOM      8  C   UNL     1      -5.287  -3.555  -3.764  0.00  0.00    +0.030 A 
ATOM      9  C   UNL     1      -6.369  -4.390  -3.730  0.00  0.00    +0.042 A 
ATOM     10  S   UNL     1      -7.466  -5.072  -4.949  0.00  0.00    -0.051 S 
ATOM     11  H   UNL     1      -9.887  -6.901  -5.026  0.00  0.00    +0.176 HD
ENDROOT
BRANCH   7  12
ATOM     12  C   UNL     1      -3.469  -2.326  -2.575  0.00  0.00    +0.244 C 
ATOM     13  O   UNL     1      -3.051  -1.879  -3.626  0.00  0.00    -0.270 OA
ATOM     14  N   UNL     1      -2.859  -2.005  -1.417  0.00  0.00    -0.311 N 
ATOM     15  H   UNL     1      -3.192  -2.362  -0.578  0.00  0.00    +0.149 HD
BRANCH  14  16
ATOM     16  C   UNL     1      -1.694  -1.118  -1.424  0.00  0.00    +0.109 C 
BRANCH  16  17
ATOM     17  C   UNL     1      -1.197  -0.917   0.009  0.00  0.00    +0.056 C 
BRANCH  17  18
ATOM     18  C   UNL     1       0.002  -0.004   0.002  0.00  0.00    -0.021 A 
ATOM     19  C   UNL     1       1.291  -0.379  -0.012  0.00  0.00    +0.087 A 
ATOM     20  N   UNL     1       2.098   0.726  -0.014  0.00  0.00    -0.360 N 
ATOM     21  H   UNL     1       3.068   0.707  -0.023  0.00  0.00    +0.165 HD
ATOM     22  C   UNL     1       1.329   1.868  -0.001  0.00  0.00    +0.047 A 
ATOM     23  C   UNL     1      -0.018   1.461   0.010  0.00  0.00    +0.003 A 
ATOM     24  C   UNL     1      -1.034   2.417   0.030  0.00  0.00    +0.010 A 
ATOM     25  C   UNL     1      -0.716   3.746   0.030  0.00  0.00    +0.001 A 
ATOM     26  C   UNL     1       0.611   4.153   0.019  0.00  0.00    +0.002 A 
ATOM     27  C   UNL     1       1.631   3.225   0.004  0.00  0.00    +0.026 A 
ENDBRANCH  17  18
ENDBRANCH  16  17
ENDBRANCH  14  16
ENDBRANCH   7  12
BRANCH   1  28
ATOM     28  S   UNL     1     -10.401  -7.557  -2.882  0.00  0.00    +0.074 S 
ATOM     29  O   UNL     1     -11.477  -8.264  -3.484  0.00  0.00    -0.150 OA
ATOM     30  O   UNL     1      -9.416  -8.201  -2.086  0.00  0.00    -0.150 OA
BRANCH  28  34
ATOM     31  C   UNL     1     -12.258  -4.343  -0.291  0.00  0.00    +0.000 A 
ATOM     32  C   UNL     1     -12.965  -4.864  -1.359  0.00  0.00    +0.002 A 
ATOM     33  C   UNL     1     -12.398  -5.845  -2.150  0.00  0.00    +0.029 A 
ATOM     34  C   UNL     1     -11.124  -6.305  -1.874  0.00  0.00    +0.109 A 
ATOM     35  C   UNL     1     -10.419  -5.788  -0.803  0.00  0.00    +0.029 A 
ATOM     36  C   UNL     1     -10.984  -4.803  -0.015  0.00  0.00    +0.002 A 
ENDBRANCH  28  34
ENDBRANCH   1  28
TORSDOF 6
