REMARK  Name = ZINC41198431
REMARK  4 active torsions:
REMARK  status: ('A' for Active; 'I' for Inactive)
REMARK    1  A    between atoms: C_4  and  C_6
REMARK    2  A    between atoms: C_6  and  C_8
REMARK    3  A    between atoms: C_6  and  N_19
REMARK    4  A    between atoms: N_19  and  C_20
REMARK                            x       y       z     vdW  Elec       q    Type
REMARK                         _______ _______ _______ _____ _____    ______ ____
ROOT
ATOM      1  C   UNL     1       1.335  -2.163  -0.022  0.00  0.00    +0.017 C 
ENDROOT
BRANCH   1   2
ATOM      2  C   UNL     1       1.052  -2.718   1.350  0.00  0.00    -0.050 A 
ATOM      3  C   UNL     1       2.098  -3.005   2.207  0.00  0.00    +0.052 A 
ATOM      4  C   UNL     1       1.841  -3.516   3.471  0.00  0.00    +0.163 A 
ATOM      5  C   UNL     1       0.529  -3.736   3.874  0.00  0.00    +0.176 A 
ATOM      6  C   UNL     1      -0.516  -3.448   3.008  0.00  0.00    +0.063 A 
ATOM      7  C   UNL     1      -0.253  -2.935   1.751  0.00  0.00    +0.021 A 
ATOM      8 BR   UNL     1      -2.302  -3.750   3.550  0.00  0.00    -0.046 Br
ATOM      9  O   UNL     1       0.255  -4.229   5.112  0.00  0.00    -0.484 OA
ATOM     10  C   UNL     1       1.337  -4.855   5.811  0.00  0.00    +0.270 C 
ATOM     11  C   UNL     1       2.572  -3.951   5.691  0.00  0.00    +0.270 C 
ATOM     12  O   UNL     1       2.881  -3.797   4.302  0.00  0.00    -0.485 OA
ENDBRANCH   1   2
BRANCH   1  16
ATOM     13  C   UNL     1      -0.016   1.314   0.009  0.00  0.00    +0.118 A 
ATOM     14  C   UNL     1       1.186   1.946   0.001  0.00  0.00    +0.066 A 
ATOM     15  S   UNL     1       2.294   0.545  -0.017  0.00  0.00    -0.082 S 
ATOM     16  C   UNL     1       1.129  -0.670  -0.012  0.00  0.00    +0.069 A 
ATOM     17  N   UNL     1       0.002  -0.004   0.002  0.00  0.00    -0.254 NA
ENDBRANCH   1  16
BRANCH   1  18
ATOM     18  N   UNL     1       0.422  -2.776  -0.996  0.00  0.00    +0.390 N 
ATOM     19  H   UNL     1       0.500  -3.781  -0.945  0.00  0.00    -0.084 HD
ATOM     20  H   UNL     1      -0.526  -2.502  -0.787  0.00  0.00    -0.084 HD
BRANCH  18  21
ATOM     21  C   UNL     1       0.775  -2.327  -2.349  0.00  0.00    -0.071 C 
ATOM     22  C   UNL     1      -0.261  -1.499  -3.112  0.00  0.00    -0.017 C 
ATOM     23  C   UNL     1       0.013  -2.947  -3.522  0.00  0.00    -0.017 C 
ENDBRANCH  18  21
ENDBRANCH   1  18
TORSDOF 4
