REMARK  Name = ZINC44921654
REMARK  2 active torsions:
REMARK  status: ('A' for Active; 'I' for Inactive)
REMARK    1  A    between atoms: C_4  and  N_7
REMARK    2  A    between atoms: C_12  and  C_19
REMARK                            x       y       z     vdW  Elec       q    Type
REMARK                         _______ _______ _______ _____ _____    ______ ____
ROOT
ATOM      1  N   UNL     1       3.623  -0.652  -0.037  0.00  0.00    -0.218 N 
ATOM      2  C   UNL     1       3.918  -1.799   0.666  0.00  0.00    +0.133 A 
ATOM      3  C   UNL     1       5.196  -2.125   0.372  0.00  0.00    +0.030 A 
ATOM      4  C   UNL     1       5.691  -1.159  -0.530  0.00  0.00    +0.141 A 
ATOM      5  N   UNL     1       4.752  -0.291  -0.774  0.00  0.00    -0.173 NA
ATOM      6  C   UNL     1       6.036  -3.268   0.851  0.00  0.00    +0.118 C 
ATOM      7  S   UNL     1       5.682  -3.748   2.544  0.00  0.00    -0.138 S 
ATOM      8  C   UNL     1       4.022  -4.437   2.528  0.00  0.00    +0.166 C 
ATOM      9  C   UNL     1       2.978  -3.422   2.273  0.00  0.00    +0.228 C 
ATOM     10  O   UNL     1       1.956  -3.569   2.909  0.00  0.00    -0.275 OA
ATOM     11  N   UNL     1       2.982  -2.396   1.476  0.00  0.00    -0.269 N 
ATOM     12  H   UNL     1       2.123  -1.946   1.445  0.00  0.00    +0.156 HD
ENDROOT
BRANCH   1  16
ATOM     13  C   UNL     1      -0.016   1.380   0.011  0.00  0.00    +0.000 A 
ATOM     14  C   UNL     1       0.529   0.912   1.193  0.00  0.00    +0.002 A 
ATOM     15  C   UNL     1       1.735   0.238   1.180  0.00  0.00    +0.028 A 
ATOM     16  C   UNL     1       2.399   0.031  -0.021  0.00  0.00    +0.067 A 
ATOM     17  C   UNL     1       1.849   0.501  -1.206  0.00  0.00    +0.028 A 
ATOM     18  C   UNL     1       0.644   1.175  -1.187  0.00  0.00    +0.002 A 
ENDBRANCH   1  16
BRANCH   6  19
ATOM     19  C   UNL     1       7.487  -2.874   0.755  0.00  0.00    +0.007 A 
ATOM     20  C   UNL     1       8.482  -3.450   0.037  0.00  0.00    +0.012 A 
ATOM     21  C   UNL     1       9.754  -2.912   0.102  0.00  0.00    +0.008 A 
ATOM     22  C   UNL     1       9.968  -1.824   0.882  0.00  0.00    +0.045 A 
ATOM     23  S   UNL     1       8.341  -1.524   1.553  0.00  0.00    -0.100 S 
ENDBRANCH   6  19
TORSDOF 2
