REMARK  Name = ZINC39603974
REMARK  9 active torsions:
REMARK  status: ('A' for Active; 'I' for Inactive)
REMARK    1  A    between atoms: C_1  and  C_2
REMARK    2  A    between atoms: C_2  and  O_3
REMARK    3  A    between atoms: O_3  and  C_4
REMARK    4  A    between atoms: C_4  and  C_6
REMARK    5  A    between atoms: C_6  and  C_7
REMARK    6  A    between atoms: C_7  and  N_8
REMARK    7  A    between atoms: C_9  and  C_11
REMARK    8  A    between atoms: C_22  and  C_24
REMARK    9  A    between atoms: C_27  and  C_31
REMARK                            x       y       z     vdW  Elec       q    Type
REMARK                         _______ _______ _______ _____ _____    ______ ____
ROOT
ATOM      1  C   UNL     1       3.502  -6.447  -5.150  0.00  0.00    +0.100 C 
ATOM      2  C   UNL     1       2.530  -6.054  -6.285  0.00  0.00    +0.121 C 
ATOM      3  N   UNL     1       2.454  -7.258  -7.147  0.00  0.00    -0.296 N 
ATOM      4  C   UNL     1       2.444  -8.393  -6.194  0.00  0.00    +0.115 C 
ATOM      5  C   UNL     1       3.442  -7.983  -5.093  0.00  0.00    -0.004 C 
ATOM      6  C   UNL     1       2.939  -8.442  -3.728  0.00  0.00    -0.010 C 
ATOM      7  C   UNL     1       2.944  -9.972  -3.675  0.00  0.00    -0.082 C 
ATOM      8  N   UNL     1       4.306 -10.467  -3.909  0.00  0.00    +0.379 N 
ATOM      9  C   UNL     1       4.747 -10.101  -5.260  0.00  0.00    -0.082 C 
ATOM     10  C   UNL     1       4.818  -8.576  -5.380  0.00  0.00    -0.010 C 
ATOM     11  C   UNL     1       2.406  -7.308  -8.493  0.00  0.00    +0.249 C 
ATOM     12  O   UNL     1       2.252  -8.374  -9.056  0.00  0.00    -0.270 OA
ATOM     13  H   UNL     1       4.931 -10.060  -3.230  0.00  0.00    -0.086 HD
ATOM     14  H   UNL     1       4.318 -11.472  -3.813  0.00  0.00    -0.086 HD
ENDROOT
BRANCH  11  15
ATOM     15  C   UNL     1       2.542  -6.068  -9.284  0.00  0.00    +0.072 A 
ATOM     16  C   UNL     1       2.014  -4.868  -8.803  0.00  0.00    +0.016 A 
ATOM     17  C   UNL     1       2.144  -3.714  -9.546  0.00  0.00    +0.013 A 
ATOM     18  C   UNL     1       2.797  -3.741 -10.767  0.00  0.00    +0.058 A 
ATOM     19  C   UNL     1       3.323  -4.923 -11.251  0.00  0.00    +0.051 A 
ATOM     20  C   UNL     1       3.206  -6.088 -10.514  0.00  0.00    +0.136 A 
ATOM     21  F   UNL     1       3.725  -7.243 -10.985  0.00  0.00    -0.205 F 
BRANCH  18  22
ATOM     22  C   UNL     1       2.934  -2.474 -11.572  0.00  0.00    +0.418 C 
ATOM     23  F   UNL     1       4.119  -1.821 -11.215  0.00  0.00    -0.166 F 
ATOM     24  F   UNL     1       2.967  -2.789 -12.934  0.00  0.00    -0.166 F 
ATOM     25  F   UNL     1       1.844  -1.636 -11.312  0.00  0.00    -0.166 F 
ENDBRANCH  18  22
ENDBRANCH  11  15
BRANCH   1  27
ATOM     26  N   UNL     1       3.950  -5.556  -2.887  0.00  0.00    -0.314 N 
ATOM     27  C   UNL     1       3.046  -5.856  -3.841  0.00  0.00    +0.218 C 
ATOM     28  O   UNL     1       1.867  -5.649  -3.647  0.00  0.00    -0.275 OA
ATOM     29  H   UNL     1       4.893  -5.721  -3.043  0.00  0.00    +0.149 HD
BRANCH  26  30
ATOM     30  C   UNL     1       3.507  -4.980  -1.615  0.00  0.00    +0.115 C 
BRANCH  30  31
ATOM     31  C   UNL     1       4.721  -4.736  -0.716  0.00  0.00    +0.139 C 
BRANCH  31  32
ATOM     32  C   UNL     1       4.266  -4.145   0.594  0.00  0.00    +0.309 C 
ATOM     33  O   UNL     1       3.091  -3.939   0.787  0.00  0.00    -0.251 OA
BRANCH  32  34
ATOM     34  O   UNL     1       5.165  -3.846   1.544  0.00  0.00    -0.465 OA
BRANCH  34  36
ATOM     35  C   UNL     1       5.827  -3.015   3.715  0.00  0.00    +0.048 C 
ATOM     36  C   UNL     1       4.663  -3.288   2.760  0.00  0.00    +0.229 C 
ENDBRANCH  34  36
ENDBRANCH  32  34
ENDBRANCH  31  32
ENDBRANCH  30  31
ENDBRANCH  26  30
ENDBRANCH   1  27
TORSDOF 8
