REMARK  Name = ZINC36586533
REMARK  15 active torsions:
REMARK  status: ('A' for Active; 'I' for Inactive)
REMARK    1  A    between atoms: C_1  and  C_2
REMARK    2  A    between atoms: C_5  and  S_8
REMARK    3  A    between atoms: S_8  and  C_11
REMARK    4  A    between atoms: C_11  and  N_12
REMARK    5  A    between atoms: C_13  and  C_15
REMARK    6  A    between atoms: C_15  and  C_17
REMARK    7  A    between atoms: C_15  and  N_25
REMARK    8  A    between atoms: C_20  and  O_23
REMARK    9  A    between atoms: O_23  and  C_24
REMARK   10  A    between atoms: N_25  and  C_35
REMARK   11  A    between atoms: C_26  and  C_28
REMARK   12  A    between atoms: C_31  and  O_34
REMARK   13  A    between atoms: C_35  and  C_36
REMARK   14  A    between atoms: C_35  and  C_37
REMARK   15  A    between atoms: C_35  and  C_38
REMARK                            x       y       z     vdW  Elec       q    Type
REMARK                         _______ _______ _______ _____ _____    ______ ____
ROOT
ATOM      1  C   UNL     1       2.035  -7.980   3.724  0.00  0.00    +0.193 C 
ENDROOT
BRANCH   1   2
ATOM      2  C   UNL     1       1.229  -6.850   3.138  0.00  0.00    -0.018 A 
ATOM      3  C   UNL     1       0.588  -5.953   3.973  0.00  0.00    +0.009 A 
ATOM      4  C   UNL     1      -0.152  -4.917   3.437  0.00  0.00    +0.046 A 
ATOM      5  C   UNL     1      -0.252  -4.776   2.061  0.00  0.00    +0.120 A 
ATOM      6  C   UNL     1       0.392  -5.677   1.225  0.00  0.00    +0.046 A 
ATOM      7  C   UNL     1       1.135  -6.709   1.766  0.00  0.00    +0.009 A 
BRANCH   5   8
ATOM      8  O   UNL     1      -0.980  -3.758   1.532  0.00  0.00    -0.495 OA
ATOM      9  C   UNL     1      -1.038  -3.675   0.106  0.00  0.00    +0.277 C 
ENDBRANCH   5   8
ENDBRANCH   1   2
BRANCH   1  11
ATOM     10  N   UNL     1       0.715  -9.604   2.406  0.00  0.00    -0.294 N 
ATOM     11  C   UNL     1       1.266  -9.269   3.590  0.00  0.00    +0.239 C 
ATOM     12  O   UNL     1       1.142 -10.004   4.546  0.00  0.00    -0.273 OA
ATOM     13  H   UNL     1       0.814  -9.016   1.641  0.00  0.00    +0.150 HD
BRANCH  10  14
ATOM     14  C   UNL     1      -0.033 -10.857   2.275  0.00  0.00    +0.278 C 
BRANCH  14  15
ATOM     15  S   UNL     1      -1.802 -10.534   2.515  0.00  0.00    +0.013 S 
ATOM     16  O   UNL     1      -2.000  -9.729   3.669  0.00  0.00    -0.168 OA
ATOM     17  O   UNL     1      -2.547 -11.729   2.329  0.00  0.00    -0.168 OA
BRANCH  15  22
ATOM     18  C   UNL     1      -3.376  -6.999  -2.115  0.00  0.00    +0.044 C 
ATOM     19  C   UNL     1      -2.983  -7.882  -0.958  0.00  0.00    -0.050 A 
ATOM     20  C   UNL     1      -3.067  -9.257  -1.078  0.00  0.00    +0.005 A 
ATOM     21  C   UNL     1      -2.706 -10.066  -0.018  0.00  0.00    +0.027 A 
ATOM     22  C   UNL     1      -2.260  -9.502   1.163  0.00  0.00    +0.090 A 
ATOM     23  C   UNL     1      -2.175  -8.127   1.282  0.00  0.00    +0.027 A 
ATOM     24  C   UNL     1      -2.532  -7.317   0.220  0.00  0.00    +0.005 A 
ENDBRANCH  15  22
ENDBRANCH  14  15
ENDBRANCH  10  14
ENDBRANCH   1  11
BRANCH   1  25
ATOM     25  N   UNL     1       2.293  -7.711   5.141  0.00  0.00    -0.277 N 
ATOM     26  C   UNL     1       1.426  -8.143   6.078  0.00  0.00    +0.248 C 
ATOM     27  O   UNL     1       0.236  -8.188   5.831  0.00  0.00    -0.270 OA
BRANCH  26  28
ATOM     28  C   UNL     1       1.921  -8.562   7.404  0.00  0.00    +0.037 A 
ATOM     29  C   UNL     1       3.190  -8.169   7.835  0.00  0.00    +0.016 A 
ATOM     30  C   UNL     1       3.648  -8.561   9.073  0.00  0.00    +0.046 A 
ATOM     31  C   UNL     1       2.849  -9.348   9.894  0.00  0.00    +0.117 A 
ATOM     32  C   UNL     1       1.585  -9.742   9.469  0.00  0.00    +0.046 A 
ATOM     33  C   UNL     1       1.118  -9.349   8.235  0.00  0.00    +0.016 A 
BRANCH  31  34
ATOM     34  O   UNL     1       3.304  -9.734  11.113  0.00  0.00    -0.507 OA
ATOM     35  H   UNL     1       3.088  -9.118  11.826  0.00  0.00    +0.292 HD
ENDBRANCH  31  34
ENDBRANCH  26  28
BRANCH  25  36
ATOM     36  C   UNL     1       3.494  -6.973   5.540  0.00  0.00    +0.030 C 
ATOM     37  C   UNL     1       3.903  -6.020   4.415  0.00  0.00    +0.031 C 
ATOM     38  C   UNL     1       3.201  -6.169   6.808  0.00  0.00    +0.031 C 
ATOM     39  C   UNL     1       4.632  -7.958   5.812  0.00  0.00    +0.031 C 
ENDBRANCH  25  36
ENDBRANCH   1  25
TORSDOF 10
