REMARK  Name = ZINC16717850
REMARK  8 active torsions:
REMARK  status: ('A' for Active; 'I' for Inactive)
REMARK    1  A    between atoms: C_1  and  C_2
REMARK    2  A    between atoms: C_2  and  C_4
REMARK    3  A    between atoms: C_2  and  S_19
REMARK    4  A    between atoms: N_6  and  C_7
REMARK    5  A    between atoms: C_8  and  C_17
REMARK    6  A    between atoms: S_19  and  C_20
REMARK    7  A    between atoms: C_23  and  C_26
REMARK    8  A    between atoms: N_24  and  N_25
REMARK                            x       y       z     vdW  Elec       q    Type
REMARK                         _______ _______ _______ _____ _____    ______ ____
ROOT
ATOM      1  C   UNL     1       6.781   5.809  -1.278  0.00  0.00    +0.029 C 
ATOM      2  C   UNL     1       6.413   6.622  -0.035  0.00  0.00    +0.137 C 
ENDROOT
BRANCH   2   3
ATOM      3  C   UNL     1       7.286   7.848   0.039  0.00  0.00    +0.231 C 
ATOM      4  O   UNL     1       6.858   8.921  -0.330  0.00  0.00    -0.274 OA
ATOM      5  N   UNL     1       8.543   7.752   0.516  0.00  0.00    -0.278 N 
ATOM      6  H   UNL     1       8.886   6.894   0.810  0.00  0.00    +0.155 HD
BRANCH   5   7
ATOM      7  C   UNL     1       9.348   8.881   0.584  0.00  0.00    +0.090 A 
ATOM      8  C   UNL     1      10.652   8.982   1.039  0.00  0.00    +0.084 A 
ATOM      9  C   UNL     1      11.282  10.295   1.005  0.00  0.00    -0.018 A 
ATOM     10  C   UNL     1      10.501  11.289   0.531  0.00  0.00    -0.004 A 
ATOM     11  S   UNL     1       8.967  10.504   0.116  0.00  0.00    -0.077 S 
ATOM     12  C   UNL     1      10.849  12.738   0.387  0.00  0.00    +0.043 C 
ATOM     13  C   UNL     1      12.205  12.863  -0.320  0.00  0.00    +0.005 C 
ATOM     14  C   UNL     1      13.304  12.855   0.738  0.00  0.00    +0.001 C 
ATOM     15  C   UNL     1      12.897  11.968   1.912  0.00  0.00    +0.005 C 
ATOM     16  C   UNL     1      12.720  10.524   1.455  0.00  0.00    +0.037 C 
BRANCH   8  17
ATOM     17  C   UNL     1      11.358   7.835   1.525  0.00  0.00    +0.102 C 
ATOM     18  N   UNL     1      11.918   6.925   1.911  0.00  0.00    -0.191 NA
ENDBRANCH   8  17
ENDBRANCH   5   7
ENDBRANCH   2   3
BRANCH   2  19
ATOM     19  S   UNL     1       4.677   7.124  -0.135  0.00  0.00    -0.072 S 
BRANCH  19  20
ATOM     20  C   UNL     1       3.897   5.545  -0.058  0.00  0.00    +0.209 A 
ATOM     21  N   UNL     1       4.501   4.382   0.043  0.00  0.00    -0.121 NA
ATOM     22  N   UNL     1       3.632   3.436   0.074  0.00  0.00    -0.127 NA
ATOM     23  C   UNL     1       2.421   3.936  -0.005  0.00  0.00    +0.183 A 
ATOM     24  N   UNL     1       2.554   5.302  -0.097  0.00  0.00    -0.224 N 
BRANCH  23  25
ATOM     25  C   UNL     1       1.154   3.175  -0.002  0.00  0.00    +0.039 A 
ATOM     26  C   UNL     1       0.163   3.459  -0.942  0.00  0.00    +0.013 A 
ATOM     27  C   UNL     1      -1.018   2.746  -0.933  0.00  0.00    +0.001 A 
ATOM     28  C   UNL     1      -1.223   1.753   0.008  0.00  0.00    +0.001 A 
ATOM     29  C   UNL     1      -0.244   1.461   0.940  0.00  0.00    +0.021 A 
ATOM     30  C   UNL     1       0.943   2.168   0.943  0.00  0.00    +0.052 A 
ATOM     31 CL   UNL     1       2.169   1.805   2.117  0.00  0.00    -0.083 Cl
ENDBRANCH  23  25
BRANCH  24  32
ATOM     32  N   UNL     1       1.551   6.224  -0.203  0.00  0.00    -0.295 N 
ATOM     33  H   UNL     1       1.306   6.598   0.701  0.00  0.00    +0.163 HD
ATOM     34  H   UNL     1       1.804   6.962  -0.843  0.00  0.00    +0.163 HD
ENDBRANCH  24  32
ENDBRANCH  19  20
ENDBRANCH   2  19
TORSDOF 7
