REMARK  Name = ZINC38556247
REMARK  7 active torsions:
REMARK  status: ('A' for Active; 'I' for Inactive)
REMARK    1  A    between atoms: C_1  and  C_2
REMARK    2  A    between atoms: C_4  and  C_8
REMARK    3  A    between atoms: C_12  and  S_16
REMARK    4  A    between atoms: N_14  and  N_15
REMARK    5  A    between atoms: S_16  and  C_17
REMARK    6  A    between atoms: C_17  and  C_18
REMARK    7  A    between atoms: C_18  and  C_20
REMARK                            x       y       z     vdW  Elec       q    Type
REMARK                         _______ _______ _______ _____ _____    ______ ____
ROOT
ATOM      1  C   UNL     1      -0.964  -2.951   1.248  0.00  0.00    +0.185 C 
ATOM      2  N   UNL     1      -0.394  -2.321   2.467  0.00  0.00    -0.234 NA
ATOM      3  N   UNL     1      -0.366  -3.400   3.458  0.00  0.00    -0.228 NA
ATOM      4  C   UNL     1      -0.345  -4.671   2.707  0.00  0.00    +0.214 C 
ATOM      5  N   UNL     1      -0.372  -4.314   1.268  0.00  0.00    -0.197 NA
ATOM      6  H   UNL     1      -0.971  -1.556   2.783  0.00  0.00    +0.143 HD
ATOM      7  H   UNL     1      -1.169  -3.353   4.067  0.00  0.00    +0.143 HD
ENDROOT
BRANCH   1  11
ATOM      8  C   UNL     1      -0.018   1.503   0.010  0.00  0.00    +0.067 C 
ATOM      9  C   UNL     1       0.002  -0.004   0.002  0.00  0.00    +0.058 C 
ATOM     10  C   UNL     1      -1.086  -0.777   0.003  0.00  0.00    +0.029 C 
ATOM     11  C   UNL     1      -0.531  -2.190  -0.007  0.00  0.00    +0.186 C 
ATOM     12  N   UNL     1       0.926  -1.973  -0.013  0.00  0.00    -0.177 NA
ATOM     13  N   UNL     1       1.125  -0.756  -0.013  0.00  0.00    -0.159 NA
ENDBRANCH   1  11
BRANCH   5  14
ATOM     14  N   UNL     1      -1.189  -5.248   0.510  0.00  0.00    -0.264 NA
ATOM     15  H   UNL     1      -0.787  -6.174   0.523  0.00  0.00    +0.137 HD
ATOM     16  H   UNL     1      -2.137  -5.261   0.854  0.00  0.00    +0.137 HD
ENDBRANCH   5  14
BRANCH   4  17
ATOM     17  S   UNL     1       1.165  -5.598   3.094  0.00  0.00    -0.116 S 
BRANCH  17  18
ATOM     18  C   UNL     1       2.505  -4.470   2.622  0.00  0.00    +0.151 C 
BRANCH  18  19
ATOM     19  C   UNL     1       3.834  -5.125   2.896  0.00  0.00    +0.174 C 
ATOM     20  O   UNL     1       3.873  -6.244   3.364  0.00  0.00    -0.291 OA
BRANCH  19  21
ATOM     21  C   UNL     1       5.083  -4.409   2.597  0.00  0.00    +0.032 A 
ATOM     22  C   UNL     1       5.042  -3.116   2.063  0.00  0.00    +0.012 A 
ATOM     23  C   UNL     1       6.217  -2.451   1.785  0.00  0.00    +0.001 A 
ATOM     24  C   UNL     1       7.437  -3.059   2.033  0.00  0.00    +0.001 A 
ATOM     25  C   UNL     1       7.487  -4.337   2.560  0.00  0.00    +0.016 A 
ATOM     26  C   UNL     1       6.319  -5.014   2.850  0.00  0.00    +0.028 A 
ATOM     27 BR   UNL     1       6.390  -6.758   3.579  0.00  0.00    -0.050 Br
ENDBRANCH  19  21
ENDBRANCH  18  19
ENDBRANCH  17  18
ENDBRANCH   4  17
TORSDOF 6
