REMARK  Name = ZINC16012658
REMARK  3 active torsions:
REMARK  status: ('A' for Active; 'I' for Inactive)
REMARK    1  A    between atoms: C_12  and  C_15
REMARK    2  A    between atoms: C_15  and  C_16
REMARK    3  A    between atoms: N_21  and  C_24
REMARK                            x       y       z     vdW  Elec       q    Type
REMARK                         _______ _______ _______ _____ _____    ______ ____
ROOT
ATOM      1  C   UNL     1      -0.076   1.296  -0.315  0.00  0.00    +0.000 A 
ATOM      2  C   UNL     1       1.108   1.947  -0.612  0.00  0.00    +0.002 A 
ATOM      3  C   UNL     1       2.272   1.229  -0.792  0.00  0.00    +0.023 A 
ATOM      4  C   UNL     1       2.263  -0.160  -0.677  0.00  0.00    +0.039 A 
ATOM      5  C   UNL     1       1.066  -0.804  -0.379  0.00  0.00    +0.003 A 
ATOM      6  C   UNL     1      -0.093  -0.083  -0.200  0.00  0.00    +0.008 A 
ATOM      7  C   UNL     1       1.391  -2.270  -0.326  0.00  0.00    +0.136 C 
ATOM      8  C   UNL     1       1.054  -2.871   1.044  0.00  0.00    +0.123 C 
ATOM      9  C   UNL     1      -0.332  -3.545   0.845  0.00  0.00    +0.108 C 
ATOM     10  C   UNL     1      -0.706  -3.256  -0.624  0.00  0.00    +0.076 C 
ATOM     11  N   UNL     1       0.603  -3.036  -1.309  0.00  0.00    -0.295 NA
ATOM     12  C   UNL     1      -0.034  -5.016   1.020  0.00  0.00    +0.232 C 
ATOM     13  O   UNL     1      -0.847  -5.911   0.933  0.00  0.00    -0.274 OA
ATOM     14  N   UNL     1       1.268  -5.177   1.286  0.00  0.00    -0.210 N 
ATOM     15  C   UNL     1       1.982  -4.029   1.334  0.00  0.00    +0.233 C 
ATOM     16  O   UNL     1       3.168  -3.935   1.566  0.00  0.00    -0.274 OA
ATOM     17  C   UNL     1       2.864  -2.355  -0.618  0.00  0.00    +0.243 C 
ATOM     18  O   UNL     1       3.535  -3.364  -0.668  0.00  0.00    -0.273 OA
ATOM     19  N   UNL     1       3.294  -1.093  -0.811  0.00  0.00    -0.283 N 
ATOM     20  H   UNL     1       0.477  -2.509  -2.160  0.00  0.00    +0.124 HD
ATOM     21  H   UNL     1       4.212  -0.859  -1.019  0.00  0.00    +0.155 HD
ENDROOT
BRANCH  14  22
ATOM     22  C   UNL     1       1.847  -6.435   1.505  0.00  0.00    +0.045 A 
ATOM     23  C   UNL     1       1.936  -7.350   0.464  0.00  0.00    +0.025 A 
ATOM     24  C   UNL     1       2.507  -8.588   0.681  0.00  0.00    +0.023 A 
ATOM     25  C   UNL     1       2.991  -8.918   1.934  0.00  0.00    +0.059 A 
ATOM     26  C   UNL     1       2.904  -8.008   2.974  0.00  0.00    +0.061 A 
ATOM     27  C   UNL     1       2.338  -6.766   2.760  0.00  0.00    +0.045 A 
ATOM     28 CL   UNL     1       3.512  -8.426   4.546  0.00  0.00    -0.082 Cl
ATOM     29 CL   UNL     1       3.708 -10.476   2.204  0.00  0.00    -0.082 Cl
ENDBRANCH  14  22
BRANCH  10  30
ATOM     30  C   UNL     1      -1.417  -4.463  -1.240  0.00  0.00    +0.115 C 
BRANCH  30  31
ATOM     31  C   UNL     1      -1.881  -4.117  -2.631  0.00  0.00    +0.212 C 
ATOM     32  O   UNL     1      -1.665  -3.014  -3.086  0.00  0.00    -0.276 OA
ATOM     33  N   UNL     1      -2.537  -5.034  -3.370  0.00  0.00    -0.329 N 
ATOM     34  H   UNL     1      -2.710  -5.916  -3.006  0.00  0.00    +0.145 HD
ATOM     35  H   UNL     1      -2.836  -4.811  -4.266  0.00  0.00    +0.145 HD
ENDBRANCH  30  31
ENDBRANCH  10  30
TORSDOF 3
