REMARK  Name = ZINC39946111
REMARK  10 active torsions:
REMARK  status: ('A' for Active; 'I' for Inactive)
REMARK    1  A    between atoms: C_1  and  C_2
REMARK    2  A    between atoms: C_2  and  C_3
REMARK    3  A    between atoms: C_3  and  C_4
REMARK    4  A    between atoms: C_4  and  C_6
REMARK    5  A    between atoms: C_4  and  C_27
REMARK    6  A    between atoms: C_6  and  N_7
REMARK    7  A    between atoms: C_8  and  C_10
REMARK    8  A    between atoms: C_10  and  S_11
REMARK    9  A    between atoms: S_11  and  C_12
REMARK   10  A    between atoms: C_16  and  C_18
REMARK                            x       y       z     vdW  Elec       q    Type
REMARK                         _______ _______ _______ _____ _____    ______ ____
ROOT
ATOM      1  C   UNL     1       0.020  -2.145   6.083  0.00  0.00    +0.170 C 
ENDROOT
BRANCH   1   3
ATOM      2  N   UNL     1       0.540  -2.180   3.665  0.00  0.00    -0.314 N 
ATOM      3  C   UNL     1       0.897  -2.525   4.918  0.00  0.00    +0.223 C 
ATOM      4  O   UNL     1       1.923  -3.142   5.107  0.00  0.00    -0.275 OA
ATOM      5  H   UNL     1      -0.281  -1.686   3.513  0.00  0.00    +0.149 HD
BRANCH   2   6
ATOM      6  C   UNL     1       1.392  -2.549   2.532  0.00  0.00    +0.112 C 
BRANCH   6   7
ATOM      7  C   UNL     1       0.763  -2.041   1.233  0.00  0.00    +0.038 C 
BRANCH   7   8
ATOM      8  C   UNL     1       1.573  -2.526   0.059  0.00  0.00    -0.024 A 
ATOM      9  C   UNL     1       2.907  -2.178  -0.051  0.00  0.00    +0.007 A 
ATOM     10  C   UNL     1       3.651  -2.622  -1.128  0.00  0.00    +0.020 A 
ATOM     11  C   UNL     1       3.061  -3.416  -2.096  0.00  0.00    +0.042 A 
ATOM     12  C   UNL     1       1.728  -3.765  -1.986  0.00  0.00    +0.040 A 
ATOM     13  C   UNL     1       0.985  -3.324  -0.905  0.00  0.00    +0.046 A 
ATOM     14 CL   UNL     1      -0.688  -3.766  -0.763  0.00  0.00    -0.083 Cl
ATOM     15 CL   UNL     1       3.996  -3.974  -3.449  0.00  0.00    -0.083 Cl
ENDBRANCH   7   8
BRANCH   7  16
ATOM     16  C   UNL     1       0.742  -0.511   1.242  0.00  0.00    +0.009 C 
BRANCH  16  18
ATOM     17  C   UNL     1      -0.019   1.526   0.010  0.00  0.00    +0.004 C 
ATOM     18  C   UNL     1       0.002  -0.004   0.002  0.00  0.00    -0.003 C 
ENDBRANCH  16  18
ENDBRANCH   7  16
ENDBRANCH   6   7
ENDBRANCH   2   6
ENDBRANCH   1   3
BRANCH   1  19
ATOM     19  S   UNL     1       0.766  -2.748   7.623  0.00  0.00    -0.087 S 
BRANCH  19  20
ATOM     20  C   UNL     1      -0.396  -2.216   8.910  0.00  0.00    +0.339 C 
ATOM     21  N   UNL     1      -1.735  -2.774   8.658  0.00  0.00    -0.219 N 
ATOM     22  N   UNL     1      -2.577  -1.666   8.483  0.00  0.00    -0.145 NA
ATOM     23  C   UNL     1      -1.894  -0.559   8.603  0.00  0.00    +0.238 C 
ATOM     24  O   UNL     1      -0.581  -0.794   8.861  0.00  0.00    -0.443 OA
ATOM     25  H   UNL     1      -1.982  -3.711   8.620  0.00  0.00    +0.173 HD
BRANCH  23  26
ATOM     26  C   UNL     1      -2.450   0.722   8.482  0.00  0.00    +0.043 C 
ATOM     27  C   UNL     1      -3.785   1.042   8.227  0.00  0.00    +0.008 A 
ATOM     28  C   UNL     1      -4.933   0.247   8.021  0.00  0.00    +0.010 A 
ATOM     29  C   UNL     1      -6.131   0.842   7.788  0.00  0.00    +0.001 A 
ATOM     30  C   UNL     1      -6.261   2.232   7.746  0.00  0.00    +0.002 A 
ATOM     31  C   UNL     1      -5.202   3.056   7.936  0.00  0.00    +0.026 A 
ATOM     32  C   UNL     1      -3.917   2.507   8.184  0.00  0.00    +0.043 A 
ATOM     33  N   UNL     1      -2.749   3.082   8.396  0.00  0.00    -0.380 N 
ATOM     34  C   UNL     1      -1.732   2.047   8.606  0.00  0.00    +0.154 C 
ATOM     35  H   UNL     1      -2.589   4.038   8.414  0.00  0.00    +0.160 HD
ENDBRANCH  23  26
ENDBRANCH  19  20
ENDBRANCH   1  19
TORSDOF 9
