REMARK  Name = ZINC39590826
REMARK  8 active torsions:
REMARK  status: ('A' for Active; 'I' for Inactive)
REMARK    1  A    between atoms: C_1  and  C_2
REMARK    2  A    between atoms: C_2  and  N_3
REMARK    3  A    between atoms: N_3  and  C_4
REMARK    4  A    between atoms: N_3  and  C_6
REMARK    5  A    between atoms: C_4  and  C_5
REMARK    6  A    between atoms: C_9  and  C_12
REMARK    7  A    between atoms: C_15  and  C_22
REMARK    8  A    between atoms: C_25  and  C_28
REMARK                            x       y       z     vdW  Elec       q    Type
REMARK                         _______ _______ _______ _____ _____    ______ ____
ROOT
ATOM      1  C   UNL     1      -3.973  -1.516   4.921  0.00  0.00    +0.125 C 
ATOM      2  N   UNL     1      -3.508  -1.345   6.124  0.00  0.00    -0.173 NA
ATOM      3  N   UNL     1      -4.208  -1.703   7.256  0.00  0.00    -0.206 N 
ATOM      4  C   UNL     1      -4.081  -2.053   8.690  0.00  0.00    +0.206 C 
ATOM      5  N   UNL     1      -5.069  -3.134   8.922  0.00  0.00    -0.231 NA
ATOM      6  N   UNL     1      -5.809  -3.305   7.661  0.00  0.00    -0.224 NA
ATOM      7  C   UNL     1      -5.657  -1.989   7.007  0.00  0.00    +0.240 C 
ATOM      8  S   UNL     1      -5.628  -2.136   5.183  0.00  0.00    -0.063 S 
ATOM      9  H   UNL     1      -4.610  -3.991   9.191  0.00  0.00    +0.143 HD
ATOM     10  H   UNL     1      -5.402  -4.037   7.099  0.00  0.00    +0.144 HD
ENDROOT
BRANCH   1  14
ATOM     11  C   UNL     1      -2.015  -0.759   1.226  0.00  0.00    +0.030 A 
ATOM     12  C   UNL     1      -1.352  -0.519   2.424  0.00  0.00    +0.024 A 
ATOM     13  C   UNL     1      -1.984  -0.763   3.624  0.00  0.00    +0.012 A 
ATOM     14  C   UNL     1      -3.292  -1.252   3.636  0.00  0.00    +0.009 A 
ATOM     15  C   UNL     1      -3.956  -1.492   2.431  0.00  0.00    +0.012 A 
ATOM     16  C   UNL     1      -3.320  -1.240   1.234  0.00  0.00    +0.024 A 
BRANCH  11  17
ATOM     17  N   UNL     1      -1.372  -0.511   0.012  0.00  0.00    -0.330 N 
BRANCH  17  19
ATOM     18  C   UNL     1      -0.019   1.526   0.010  0.00  0.00    +0.024 C 
ATOM     19  C   UNL     1       0.002  -0.004   0.002  0.00  0.00    +0.102 C 
ENDBRANCH  17  19
BRANCH  17  20
ATOM     20  C   UNL     1      -2.072  -0.758  -1.251  0.00  0.00    +0.102 C 
ATOM     21  C   UNL     1      -1.816  -2.197  -1.703  0.00  0.00    +0.024 C 
ENDBRANCH  17  20
ENDBRANCH  11  17
ENDBRANCH   1  14
BRANCH   4  22
ATOM     22  C   UNL     1      -4.408  -0.839   9.562  0.00  0.00    +0.190 C 
ATOM     23  C   UNL     1      -4.217  -1.167  11.032  0.00  0.00    +0.034 C 
ATOM     24  C   UNL     1      -5.444  -1.000  11.562  0.00  0.00    +0.091 C 
ATOM     25  N   UNL     1      -6.327  -0.618  10.602  0.00  0.00    -0.154 NA
ATOM     26  N   UNL     1      -5.839  -0.503   9.472  0.00  0.00    -0.176 NA
BRANCH  24  27
ATOM     27  C   UNL     1      -5.784  -1.205  12.991  0.00  0.00    +0.002 A 
ATOM     28  C   UNL     1      -4.798  -1.593  13.896  0.00  0.00    +0.010 A 
ATOM     29  C   UNL     1      -5.120  -1.782  15.225  0.00  0.00    +0.001 A 
ATOM     30  C   UNL     1      -6.418  -1.586  15.659  0.00  0.00    +0.000 A 
ATOM     31  C   UNL     1      -7.401  -1.200  14.765  0.00  0.00    +0.001 A 
ATOM     32  C   UNL     1      -7.090  -1.004  13.435  0.00  0.00    +0.010 A 
ENDBRANCH  24  27
ENDBRANCH   4  22
TORSDOF 6
