REMARK  Name = ZINC39266762
REMARK  8 active torsions:
REMARK  status: ('A' for Active; 'I' for Inactive)
REMARK    1  A    between atoms: C_5  and  S_7
REMARK    2  A    between atoms: S_7  and  N_10
REMARK    3  A    between atoms: N_10  and  C_11
REMARK    4  A    between atoms: N_10  and  C_27
REMARK    5  A    between atoms: C_11  and  C_12
REMARK    6  A    between atoms: C_12  and  C_13
REMARK    7  A    between atoms: C_18  and  N_21
REMARK    8  A    between atoms: C_27  and  C_28
REMARK                            x       y       z     vdW  Elec       q    Type
REMARK                         _______ _______ _______ _____ _____    ______ ____
ROOT
ATOM      1  N   UNL     1       1.790  -2.948  -1.465  0.00  0.00    -0.169 NA
ENDROOT
BRANCH   1   2
ATOM      2  S   UNL     1       1.141  -2.457  -0.022  0.00  0.00    +0.063 S 
ATOM      3  O   UNL     1       2.042  -2.881   0.993  0.00  0.00    -0.153 OA
ATOM      4  O   UNL     1      -0.226  -2.845  -0.038  0.00  0.00    -0.153 OA
BRANCH   2   9
ATOM      5  C   UNL     1      -0.017   1.391   0.010  0.00  0.00    +0.004 A 
ATOM      6  C   UNL     1       1.128   2.114   0.003  0.00  0.00    +0.031 A 
ATOM      7  C   UNL     1       2.387   1.455  -0.013  0.00  0.00    +0.102 A 
ATOM      8  C   UNL     1       2.407  -0.003  -0.021  0.00  0.00    +0.126 A 
ATOM      9  C   UNL     1       1.166  -0.696  -0.013  0.00  0.00    +0.134 A 
ATOM     10  C   UNL     1       0.002  -0.004   0.002  0.00  0.00    +0.031 A 
ATOM     11  N   UNL     1       3.640  -0.511  -0.036  0.00  0.00    -0.189 NA
ATOM     12  S   UNL     1       4.631   0.756  -0.038  0.00  0.00    +0.117 S 
ATOM     13  N   UNL     1       3.606   1.996  -0.022  0.00  0.00    -0.191 NA
ENDBRANCH   2   9
ENDBRANCH   1   2
BRANCH   1  14
ATOM     14  C   UNL     1       3.231  -3.184  -1.578  0.00  0.00    +0.119 C 
BRANCH  14  15
ATOM     15  C   UNL     1       3.524  -4.670  -1.359  0.00  0.00    +0.113 C 
BRANCH  15  16
ATOM     16  C   UNL     1       5.006  -4.912  -1.475  0.00  0.00    +0.217 C 
ATOM     17  O   UNL     1       5.755  -3.988  -1.710  0.00  0.00    -0.276 OA
ATOM     18  N   UNL     1       5.500  -6.157  -1.317  0.00  0.00    -0.302 N 
ATOM     19  C   UNL     1       4.605  -7.287  -1.038  0.00  0.00    +0.106 C 
ATOM     20  C   UNL     1       4.865  -8.389  -2.070  0.00  0.00    +0.004 C 
ATOM     21  C   UNL     1       6.353  -8.748  -2.063  0.00  0.00    -0.066 C 
ATOM     22  C   UNL     1       7.178  -7.519  -2.450  0.00  0.00    +0.004 C 
ATOM     23  C   UNL     1       6.943  -6.409  -1.428  0.00  0.00    +0.106 C 
BRANCH  21  24
ATOM     24  N   UNL     1       6.600  -9.828  -3.028  0.00  0.00    +0.382 N 
ATOM     25  C   UNL     1       5.802 -11.004  -2.660  0.00  0.00    -0.078 C 
ATOM     26  C   UNL     1       5.994 -12.103  -3.707  0.00  0.00    -0.019 C 
ATOM     27  C   UNL     1       7.475 -12.488  -3.770  0.00  0.00    -0.004 C 
ATOM     28  C   UNL     1       8.305 -11.239  -4.081  0.00  0.00    -0.019 C 
ATOM     29  C   UNL     1       8.027 -10.172  -3.020  0.00  0.00    -0.078 C 
ATOM     30  H   UNL     1       6.335  -9.519  -3.951  0.00  0.00    -0.081 HD
ENDBRANCH  21  24
ENDBRANCH  15  16
ENDBRANCH  14  15
ENDBRANCH   1  14
BRANCH   1  31
ATOM     31  C   UNL     1       0.921  -3.147  -2.628  0.00  0.00    +0.183 C 
BRANCH  31  32
ATOM     32  C   UNL     1       0.914  -1.896  -3.469  0.00  0.00    +0.120 A 
ATOM     33  C   UNL     1       1.757  -1.624  -4.481  0.00  0.00    +0.046 A 
ATOM     34  C   UNL     1       1.394  -0.354  -4.986  0.00  0.00    +0.041 A 
ATOM     35  C   UNL     1       0.351   0.073  -4.252  0.00  0.00    +0.195 A 
ATOM     36  O   UNL     1       0.061  -0.867  -3.338  0.00  0.00    -0.466 OA
ENDBRANCH  31  32
ENDBRANCH   1  31
TORSDOF 8
