REMARK  Name = ZINC21535866
REMARK  8 active torsions:
REMARK  status: ('A' for Active; 'I' for Inactive)
REMARK    1  A    between atoms: C_1  and  C_2
REMARK    2  A    between atoms: C_2  and  C_3
REMARK    3  A    between atoms: N_9  and  C_10
REMARK    4  A    between atoms: C_10  and  C_11
REMARK    5  A    between atoms: C_14  and  C_16
REMARK    6  A    between atoms: C_16  and  N_17
REMARK    7  A    between atoms: N_17  and  S_18
REMARK    8  A    between atoms: S_18  and  C_21
REMARK                            x       y       z     vdW  Elec       q    Type
REMARK                         _______ _______ _______ _____ _____    ______ ____
ROOT
ATOM      1  N   UNL     1       3.330  -1.775  -2.927  0.00  0.00    -0.183 NA
ATOM      2  H   UNL     1       3.352  -2.713  -3.501  0.00  0.00    +0.148 HD
ENDROOT
BRANCH   1   3
ATOM      3  S   UNL     1       2.517  -1.727  -1.485  0.00  0.00    +0.059 S 
ATOM      4  O   UNL     1       3.298  -0.930  -0.605  0.00  0.00    -0.153 OA
ATOM      5  O   UNL     1       2.153  -3.066  -1.179  0.00  0.00    -0.153 OA
BRANCH   3   6
ATOM      6  C   UNL     1       1.016  -0.848  -1.762  0.00  0.00    +0.106 A 
ATOM      7  C   UNL     1       0.971   0.525  -1.596  0.00  0.00    +0.030 A 
ATOM      8  C   UNL     1      -0.209   1.195  -1.812  0.00  0.00    +0.025 A 
ATOM      9  C   UNL     1      -1.378   0.517  -2.197  0.00  0.00    +0.037 A 
ATOM     10  C   UNL     1      -1.325  -0.850  -2.370  0.00  0.00    -0.024 A 
ATOM     11  C   UNL     1      -0.122  -1.520  -2.144  0.00  0.00    +0.034 A 
ATOM     12  C   UNL     1      -2.470  -1.708  -2.800  0.00  0.00    +0.037 C 
ATOM     13  C   UNL     1      -3.408  -1.093  -3.791  0.00  0.00    +0.014 C 
ATOM     14  C   UNL     1      -4.370  -0.105  -3.175  0.00  0.00    +0.096 C 
ATOM     15  C   UNL     1      -3.698   1.169  -2.807  0.00  0.00    +0.217 C 
ATOM     16  O   UNL     1      -4.349   2.182  -2.948  0.00  0.00    -0.275 OA
ATOM     17  N   UNL     1      -2.487   1.316  -2.351  0.00  0.00    -0.285 N 
ATOM     18  H   UNL     1      -2.452   2.371  -2.040  0.00  0.00    +0.155 HD
ENDBRANCH   3   6
ENDBRANCH   1   3
BRANCH   1  19
ATOM     19  C   UNL     1       3.821  -0.534  -3.533  0.00  0.00    +0.180 C 
BRANCH  19  23
ATOM     20  C   UNL     1       6.720  -1.291  -5.620  0.00  0.00    +0.089 A 
ATOM     21  C   UNL     1       5.759  -1.349  -6.559  0.00  0.00    +0.043 A 
ATOM     22  C   UNL     1       4.534  -1.074  -5.910  0.00  0.00    +0.046 A 
ATOM     23  C   UNL     1       4.819  -0.863  -4.612  0.00  0.00    +0.121 A 
ATOM     24  O   UNL     1       6.145  -0.990  -4.444  0.00  0.00    -0.465 OA
BRANCH  20  25
ATOM     25  C   UNL     1       8.192  -1.518  -5.849  0.00  0.00    -0.003 C 
BRANCH  25  31
ATOM     26  C   UNL     1      10.292  -0.406  -6.309  0.00  0.00    -0.068 C 
ATOM     27  C   UNL     1      10.914   0.905  -6.795  0.00  0.00    -0.015 C 
ATOM     28  C   UNL     1      10.594   2.018  -5.794  0.00  0.00    -0.003 C 
ATOM     29  C   UNL     1       9.075   2.136  -5.642  0.00  0.00    -0.019 C 
ATOM     30  C   UNL     1       8.506   0.790  -5.190  0.00  0.00    -0.078 C 
ATOM     31  N   UNL     1       8.838  -0.242  -6.181  0.00  0.00    +0.386 N 
ATOM     32  H   UNL     1       8.452   0.093  -7.155  0.00  0.00    -0.081 HD
BRANCH  26  34
ATOM     33  C   UNL     1      12.100  -1.778  -7.354  0.00  0.00    +0.002 C 
ATOM     34  C   UNL     1      10.592  -1.517  -7.317  0.00  0.00    -0.019 C 
ENDBRANCH  26  34
ENDBRANCH  25  31
ENDBRANCH  20  25
ENDBRANCH  19  23
ENDBRANCH   1  19
TORSDOF 7
