REMARK  Name = ZINC20134879
REMARK  3 active torsions:
REMARK  status: ('A' for Active; 'I' for Inactive)
REMARK    1  A    between atoms: C_3  and  C_6
REMARK    2  A    between atoms: C_9  and  C_21
REMARK    3  A    between atoms: C_24  and  N_27
REMARK                            x       y       z     vdW  Elec       q    Type
REMARK                         _______ _______ _______ _____ _____    ______ ____
ROOT
ATOM      1  C   UNL     1       3.761   1.845  -0.024  0.00  0.00    +0.096 C 
ATOM      2  C   UNL     1       4.438   1.386   1.248  0.00  0.00    +0.036 A 
ATOM      3  C   UNL     1       4.172   1.565   2.566  0.00  0.00    +0.072 A 
ATOM      4  N   UNL     1       5.139   0.908   3.270  0.00  0.00    -0.275 N 
ATOM      5  N   UNL     1       6.016   0.315   2.353  0.00  0.00    -0.153 NA
ATOM      6  C   UNL     1       5.601   0.597   1.129  0.00  0.00    +0.179 A 
ATOM      7  N   UNL     1       6.096   0.263  -0.095  0.00  0.00    -0.231 NA
ATOM      8  C   UNL     1       5.583   0.611  -1.240  0.00  0.00    +0.051 C 
ATOM      9  C   UNL     1       4.415   1.397  -1.318  0.00  0.00    +0.029 C 
ATOM     10  C   UNL     1       3.881   1.756  -2.491  0.00  0.00    +0.162 C 
ATOM     11  O   UNL     1       2.763   2.515  -2.503  0.00  0.00    -0.292 OA
ATOM     12  C   UNL     1       4.498   1.333  -3.797  0.00  0.00    +0.080 C 
ATOM     13  C   UNL     1       6.009   1.167  -3.612  0.00  0.00    +0.014 C 
ATOM     14  C   UNL     1       6.260   0.151  -2.511  0.00  0.00    +0.056 C 
ATOM     15  H   UNL     1       5.208   0.861   4.237  0.00  0.00    +0.189 HD
ENDROOT
BRANCH   3  16
ATOM     16  C   UNL     1       3.042   2.332   3.135  0.00  0.00    +0.000 A 
ATOM     17  C   UNL     1       2.711   3.583   2.614  0.00  0.00    +0.012 A 
ATOM     18  C   UNL     1       1.656   4.293   3.149  0.00  0.00    +0.033 A 
ATOM     19  C   UNL     1       0.926   3.766   4.200  0.00  0.00    +0.126 A 
ATOM     20  C   UNL     1       1.249   2.526   4.721  0.00  0.00    +0.033 A 
ATOM     21  C   UNL     1       2.299   1.804   4.191  0.00  0.00    +0.012 A 
BRANCH  19  22
ATOM     22  N   UNL     1      -0.205   4.533   4.770  0.00  0.00    +0.056 N 
ATOM     23  O   UNL     1      -0.489   5.618   4.317  0.00  0.00    -0.126 OA
ATOM     24  O   UNL     1      -0.844   4.075   5.688  0.00  0.00    -0.126 OA
ENDBRANCH  19  22
ENDBRANCH   3  16
BRANCH   1  27
ATOM     25  C   UNL     1      -0.016   1.351   0.009  0.00  0.00    +0.008 A 
ATOM     26  C   UNL     1       1.183   2.038   0.002  0.00  0.00    +0.012 A 
ATOM     27  C   UNL     1       2.343   1.336  -0.013  0.00  0.00    +0.002 A 
ATOM     28  S   UNL     1       1.754  -0.349  -0.017  0.00  0.00    -0.101 S 
ATOM     29  C   UNL     1       0.002  -0.004   0.002  0.00  0.00    +0.045 A 
ENDBRANCH   1  27
TORSDOF 3
