REMARK  Name = ZINC46768435
REMARK  7 active torsions:
REMARK  status: ('A' for Active; 'I' for Inactive)
REMARK    1  A    between atoms: C_5  and  C_11
REMARK    2  A    between atoms: N_13  and  N_14
REMARK    3  A    between atoms: N_14  and  C_15
REMARK    4  A    between atoms: C_15  and  N_17
REMARK    5  A    between atoms: N_17  and  C_18
REMARK    6  A    between atoms: C_18  and  C_19
REMARK    7  A    between atoms: C_19  and  C_20
REMARK                            x       y       z     vdW  Elec       q    Type
REMARK                         _______ _______ _______ _____ _____    ______ ____
ROOT
ATOM      1  C   UNL     1       5.978   0.637  -0.051  0.00  0.00    +0.295 C 
ATOM      2  O   UNL     1       6.628   1.666  -0.052  0.00  0.00    -0.265 OA
ATOM      3  N   UNL     1       6.605  -0.556  -0.064  0.00  0.00    -0.229 N 
ATOM      4  H   UNL     1       6.088  -1.376  -0.063  0.00  0.00    +0.173 HD
ENDROOT
BRANCH   1   9
ATOM      5  C   UNL     1      -0.017   1.384   0.010  0.00  0.00    +0.002 A 
ATOM      6  C   UNL     1       1.152   2.092   0.002  0.00  0.00    +0.012 A 
ATOM      7  C   UNL     1       2.373   1.414  -0.013  0.00  0.00    +0.022 A 
ATOM      8  C   UNL     1       3.773   1.836  -0.024  0.00  0.00    +0.063 A 
ATOM      9  C   UNL     1       4.510   0.696  -0.037  0.00  0.00    +0.192 A 
ATOM     10  O   UNL     1       3.690  -0.376  -0.035  0.00  0.00    -0.449 OA
ATOM     11  C   UNL     1       2.399   0.007  -0.021  0.00  0.00    +0.150 A 
ATOM     12  C   UNL     1       1.197  -0.693  -0.013  0.00  0.00    +0.061 A 
ATOM     13  C   UNL     1       0.002  -0.004   0.002  0.00  0.00    +0.019 A 
ATOM     14 BR   UNL     1       1.201  -2.584  -0.025  0.00  0.00    -0.046 Br
ENDBRANCH   1   9
BRANCH   3  15
ATOM     15  N   UNL     1       8.005  -0.611  -0.077  0.00  0.00    -0.246 N 
ATOM     16  H   UNL     1       8.523   0.209  -0.078  0.00  0.00    +0.172 HD
BRANCH  15  17
ATOM     17  C   UNL     1       8.632  -1.804  -0.090  0.00  0.00    +0.147 C 
ATOM     18  S   UNL     1      10.343  -1.872  -0.107  0.00  0.00    -0.017 S 
BRANCH  17  19
ATOM     19  N   UNL     1       7.913  -2.944  -0.089  0.00  0.00    -0.325 N 
ATOM     20  H   UNL     1       6.943  -2.905  -0.080  0.00  0.00    +0.148 HD
BRANCH  19  21
ATOM     21  C   UNL     1       8.594  -4.240  -0.103  0.00  0.00    +0.108 C 
BRANCH  21  22
ATOM     22  C   UNL     1       7.555  -5.363  -0.099  0.00  0.00    +0.061 C 
BRANCH  22  23
ATOM     23  C   UNL     1       8.256  -6.697  -0.113  0.00  0.00    -0.009 A 
ATOM     24  C   UNL     1       8.658  -7.461   0.932  0.00  0.00    +0.011 A 
ATOM     25  C   UNL     1       9.289  -8.664   0.679  0.00  0.00    +0.008 A 
ATOM     26  C   UNL     1       9.488  -9.045  -0.606  0.00  0.00    +0.045 A 
ATOM     27  S   UNL     1       8.765  -7.685  -1.510  0.00  0.00    -0.102 S 
ENDBRANCH  22  23
ENDBRANCH  21  22
ENDBRANCH  19  21
ENDBRANCH  17  19
ENDBRANCH  15  17
ENDBRANCH   3  15
TORSDOF 7
