REMARK  Name = ZINC39893763
REMARK  7 active torsions:
REMARK  status: ('A' for Active; 'I' for Inactive)
REMARK    1  A    between atoms: C_1  and  C_2
REMARK    2  A    between atoms: C_5  and  N_8
REMARK    3  A    between atoms: N_8  and  C_9
REMARK    4  A    between atoms: C_11  and  C_27
REMARK    5  A    between atoms: C_12  and  C_25
REMARK    6  A    between atoms: N_15  and  C_18
REMARK    7  A    between atoms: C_18  and  C_19
REMARK                            x       y       z     vdW  Elec       q    Type
REMARK                         _______ _______ _______ _____ _____    ______ ____
ROOT
ATOM      1  C   UNL     1      -0.014  -4.843   1.136  0.00  0.00    +0.085 C 
ATOM      2  C   UNL     1      -0.056  -6.234   1.134  0.00  0.00    +0.055 C 
ATOM      3  C   UNL     1      -0.003  -6.949  -0.084  0.00  0.00    -0.015 C 
ATOM      4  C   UNL     1      -0.047  -8.335  -0.045  0.00  0.00    +0.118 C 
ATOM      5  C   UNL     1      -0.146  -9.020   1.245  0.00  0.00    +0.264 C 
ATOM      6  O   UNL     1      -0.184 -10.236   1.279  0.00  0.00    -0.269 OA
ATOM      7  N   UNL     1      -0.194  -8.322   2.393  0.00  0.00    -0.229 N 
ATOM      8  C   UNL     1      -0.149  -6.977   2.397  0.00  0.00    +0.255 C 
ATOM      9  O   UNL     1      -0.190  -6.374   3.453  0.00  0.00    -0.269 OA
ATOM     10  C   UNL     1       0.098  -6.220  -1.398  0.00  0.00    +0.046 C 
ENDROOT
BRANCH   1  11
ATOM     11  N   UNL     1       0.328  -4.178   0.017  0.00  0.00    -0.320 N 
ATOM     12  H   UNL     1       0.497  -4.665  -0.804  0.00  0.00    +0.152 HD
BRANCH  11  17
ATOM     13  C   UNL     1       0.775   1.475   0.103  0.00  0.00    +0.044 C 
ATOM     14  C   UNL     1       0.656  -0.027   0.080  0.00  0.00    -0.050 A 
ATOM     15  C   UNL     1       0.899  -0.721  -1.091  0.00  0.00    +0.005 A 
ATOM     16  C   UNL     1       0.791  -2.097  -1.116  0.00  0.00    +0.023 A 
ATOM     17  C   UNL     1       0.438  -2.785   0.038  0.00  0.00    +0.031 A 
ATOM     18  C   UNL     1       0.195  -2.085   1.214  0.00  0.00    +0.023 A 
ATOM     19  C   UNL     1       0.310  -0.709   1.232  0.00  0.00    +0.005 A 
ENDBRANCH  11  17
ENDBRANCH   1  11
BRANCH   4  20
ATOM     20  C   UNL     1       0.004  -9.091  -1.260  0.00  0.00    +0.105 C 
ATOM     21  N   UNL     1       0.044  -9.691  -2.224  0.00  0.00    -0.191 NA
ENDBRANCH   4  20
BRANCH   7  22
ATOM     22  C   UNL     1      -0.293  -9.040   3.666  0.00  0.00    +0.152 C 
BRANCH  22  23
ATOM     23  C   UNL     1       1.091  -9.329   4.188  0.00  0.00    -0.030 A 
ATOM     24  C   UNL     1       1.733 -10.502   3.834  0.00  0.00    +0.005 A 
ATOM     25  C   UNL     1       3.002 -10.766   4.313  0.00  0.00    +0.000 A 
ATOM     26  C   UNL     1       3.630  -9.859   5.145  0.00  0.00    +0.000 A 
ATOM     27  C   UNL     1       2.989  -8.686   5.498  0.00  0.00    +0.000 A 
ATOM     28  C   UNL     1       1.722  -8.419   5.016  0.00  0.00    +0.005 A 
ENDBRANCH  22  23
ENDBRANCH   7  22
TORSDOF 5
