REMARK  Name = ZINC66358695
REMARK  5 active torsions:
REMARK  status: ('A' for Active; 'I' for Inactive)
REMARK    1  A    between atoms: C_3  and  C_25
REMARK    2  A    between atoms: C_6  and  C_7
REMARK    3  A    between atoms: C_7  and  N_8
REMARK    4  A    between atoms: N_11  and  C_12
REMARK    5  A    between atoms: N_27  and  C_28
REMARK                            x       y       z     vdW  Elec       q    Type
REMARK                         _______ _______ _______ _____ _____    ______ ____
ROOT
ATOM      1  N   UNL     1      -1.728  -1.013  -1.368  0.00  0.00    -0.295 N 
ATOM      2  C   UNL     1      -2.870  -1.687  -1.607  0.00  0.00    +0.300 C 
ATOM      3  O   UNL     1      -3.542  -2.095  -0.679  0.00  0.00    -0.253 OA
ATOM      4  N   UNL     1      -3.269  -1.909  -2.875  0.00  0.00    -0.293 N 
ATOM      5  H   UNL     1      -1.193  -0.688  -2.109  0.00  0.00    +0.151 HD
ATOM      6  H   UNL     1      -2.734  -1.584  -3.616  0.00  0.00    +0.151 HD
ENDROOT
BRANCH   4   7
ATOM      7  C   UNL     1      -4.511  -2.642  -3.135  0.00  0.00    +0.106 C 
ATOM      8  C   UNL     1      -4.428  -3.301  -4.510  0.00  0.00    +0.027 C 
ATOM      9  C   UNL     1      -5.811  -3.866  -4.855  0.00  0.00    +0.008 C 
ATOM     10  C   UNL     1      -6.759  -2.693  -5.095  0.00  0.00    +0.054 C 
ATOM     11  C   UNL     1      -6.693  -1.711  -3.954  0.00  0.00    +0.024 A 
ATOM     12  C   UNL     1      -5.673  -1.685  -3.073  0.00  0.00    -0.008 A 
ATOM     13  C   UNL     1      -5.672  -0.730  -2.037  0.00  0.00    +0.012 A 
ATOM     14  C   UNL     1      -6.698   0.156  -1.929  0.00  0.00    +0.070 A 
ATOM     15  C   UNL     1      -7.749   0.098  -2.860  0.00  0.00    +0.249 A 
ATOM     16  O   UNL     1      -8.682   0.881  -2.780  0.00  0.00    -0.268 OA
ATOM     17  N   UNL     1      -7.724  -0.823  -3.835  0.00  0.00    -0.326 N 
ATOM     18  H   UNL     1      -8.454  -0.857  -4.472  0.00  0.00    +0.169 HD
ENDBRANCH   4   7
BRANCH   1  19
ATOM     19  C   UNL     1      -1.295  -0.772   0.010  0.00  0.00    +0.141 C 
BRANCH  19  25
ATOM     20  C   UNL     1      -0.017   1.379   0.010  0.00  0.00    +0.006 A 
ATOM     21  C   UNL     1       1.167   2.088   0.002  0.00  0.00    +0.013 A 
ATOM     22  C   UNL     1       2.385   1.407  -0.013  0.00  0.00    +0.037 A 
ATOM     23  C   UNL     1       2.397   0.011  -0.021  0.00  0.00    +0.013 A 
ATOM     24  C   UNL     1       1.206  -0.686  -0.013  0.00  0.00    +0.006 A 
ATOM     25  C   UNL     1       0.002  -0.004   0.002  0.00  0.00    -0.030 A 
BRANCH  22  26
ATOM     26  C   UNL     1       3.657   2.160  -0.022  0.00  0.00    +0.244 C 
ATOM     27  O   UNL     1       3.643   3.376  -0.015  0.00  0.00    -0.270 OA
ATOM     28  N   UNL     1       4.831   1.499  -0.037  0.00  0.00    -0.308 N 
ATOM     29  H   UNL     1       4.842   0.529  -0.042  0.00  0.00    +0.149 HD
BRANCH  28  30
ATOM     30  C   UNL     1       6.092   2.246  -0.045  0.00  0.00    +0.073 C 
ATOM     31  C   UNL     1       7.191   1.765  -0.995  0.00  0.00    +0.024 C 
ATOM     32  C   UNL     1       7.332   1.545   0.513  0.00  0.00    +0.024 C 
ENDBRANCH  28  30
ENDBRANCH  22  26
ENDBRANCH  19  25
ENDBRANCH   1  19
TORSDOF 5
