REMARK  Name = ZINC09375879
REMARK  5 active torsions:
REMARK  status: ('A' for Active; 'I' for Inactive)
REMARK    1  A    between atoms: C_4  and  C_7
REMARK    2  A    between atoms: C_7  and  C_8
REMARK    3  A    between atoms: N_11  and  S_14
REMARK    4  A    between atoms: S_14  and  C_17
REMARK    5  A    between atoms: C_26  and  C_29
REMARK                            x       y       z     vdW  Elec       q    Type
REMARK                         _______ _______ _______ _____ _____    ______ ____
ROOT
ATOM      1  C   UNL     1      -1.749   8.355  -0.314  0.00  0.00    +0.121 A 
ATOM      2  C   UNL     1      -3.052   7.892  -0.185  0.00  0.00    +0.033 A 
ATOM      3  C   UNL     1      -3.259   6.530  -0.060  0.00  0.00    +0.043 A 
ATOM      4  C   UNL     1      -2.161   5.676  -0.067  0.00  0.00    +0.099 A 
ATOM      5  C   UNL     1      -0.706   7.451  -0.313  0.00  0.00    +0.112 A 
ATOM      6  N   UNL     1      -2.354   4.305   0.058  0.00  0.00    -0.316 N 
ATOM      7  C   UNL     1      -3.110   3.989   1.277  0.00  0.00    +0.106 C 
ATOM      8  C   UNL     1      -3.429   2.492   1.307  0.00  0.00    +0.020 C 
ATOM      9  C   UNL     1      -2.122   1.696   1.274  0.00  0.00    +0.016 C 
ATOM     10  C   UNL     1      -1.331   2.079   0.020  0.00  0.00    +0.092 C 
ATOM     11  C   UNL     1      -1.073   3.588   0.027  0.00  0.00    +0.119 C 
ATOM     12  N   UNL     1      -0.872   6.107  -0.186  0.00  0.00    -0.348 N 
ATOM     13  H   UNL     1      -0.077   5.457  -0.180  0.00  0.00    +0.167 HD
ENDROOT
BRANCH  10  14
ATOM     14  C   UNL     1      -0.016   1.344   0.009  0.00  0.00    +0.215 C 
ATOM     15  O   UNL     1       1.026   1.964   0.003  0.00  0.00    -0.276 OA
ATOM     16  N   UNL     1       0.002  -0.004   0.002  0.00  0.00    -0.329 N 
ATOM     17  H   UNL     1       0.849  -0.478  -0.009  0.00  0.00    +0.145 HD
ATOM     18  H   UNL     1      -0.831  -0.500   0.007  0.00  0.00    +0.145 HD
ENDBRANCH  10  14
BRANCH   1  19
ATOM     19  S   UNL     1      -1.430  10.081  -0.475  0.00  0.00    +0.062 S 
ATOM     20  O   UNL     1      -0.173  10.202  -1.127  0.00  0.00    -0.153 OA
ATOM     21  O   UNL     1      -2.616  10.666  -0.994  0.00  0.00    -0.153 OA
BRANCH  19  25
ATOM     22  C   UNL     1      -0.753  12.623   3.058  0.00  0.00    -0.004 C 
ATOM     23  C   UNL     1       0.382  12.156   2.145  0.00  0.00    +0.021 C 
ATOM     24  C   UNL     1       0.099  10.726   1.675  0.00  0.00    +0.110 C 
ATOM     25  N   UNL     1      -1.231  10.687   1.053  0.00  0.00    -0.177 NA
ATOM     26  C   UNL     1      -2.381  11.203   1.809  0.00  0.00    +0.110 C 
ATOM     27  C   UNL     1      -2.070  12.623   2.279  0.00  0.00    +0.021 C 
BRANCH  22  28
ATOM     28  C   UNL     1      -0.457  14.039   3.557  0.00  0.00    +0.038 C 
BRANCH  28  32
ATOM     29  C   UNL     1      -3.445  15.212   6.376  0.00  0.00    +0.000 A 
ATOM     30  C   UNL     1      -2.299  14.570   6.809  0.00  0.00    +0.000 A 
ATOM     31  C   UNL     1      -1.333  14.191   5.897  0.00  0.00    +0.003 A 
ATOM     32  C   UNL     1      -1.511  14.453   4.551  0.00  0.00    -0.047 A 
ATOM     33  C   UNL     1      -2.654  15.099   4.119  0.00  0.00    +0.003 A 
ATOM     34  C   UNL     1      -3.623  15.474   5.031  0.00  0.00    +0.000 A 
ENDBRANCH  28  32
ENDBRANCH  22  28
ENDBRANCH  19  25
ENDBRANCH   1  19
TORSDOF 5
