REMARK  Name = ZINC66674684
REMARK  5 active torsions:
REMARK  status: ('A' for Active; 'I' for Inactive)
REMARK    1  A    between atoms: C_1  and  C_2
REMARK    2  A    between atoms: C_2  and  N_3
REMARK    3  A    between atoms: N_3  and  C_4
REMARK    4  A    between atoms: C_10  and  C_12
REMARK    5  A    between atoms: C_13  and  C_15
REMARK                            x       y       z     vdW  Elec       q    Type
REMARK                         _______ _______ _______ _____ _____    ______ ____
ROOT
ATOM      1  N   UNL     1      -1.153  -0.417   0.141  0.00  0.00    -0.294 N 
ATOM      2  C   UNL     1      -1.818  -0.589   1.301  0.00  0.00    +0.249 C 
ATOM      3  O   UNL     1      -1.260  -0.376   2.360  0.00  0.00    -0.270 OA
ENDROOT
BRANCH   2   4
ATOM      4  C   UNL     1      -3.223  -1.035   1.285  0.00  0.00    +0.067 A 
ATOM      5  C   UNL     1      -3.838  -1.376   0.083  0.00  0.00    +0.053 A 
ATOM      6  C   UNL     1      -5.158  -1.795   0.067  0.00  0.00    +0.126 A 
ATOM      7  C   UNL     1      -5.883  -1.881   1.242  0.00  0.00    +0.066 A 
ATOM      8  C   UNL     1      -5.293  -1.548   2.452  0.00  0.00    +0.069 A 
ATOM      9  C   UNL     1      -3.954  -1.125   2.489  0.00  0.00    +0.101 A 
ATOM     10  N   UNL     1      -3.651  -0.879   3.779  0.00  0.00    -0.235 NA
ATOM     11  C   UNL     1      -4.689  -1.120   4.529  0.00  0.00    +0.197 A 
ATOM     12  N   UNL     1      -5.734  -1.527   3.761  0.00  0.00    -0.344 N 
ATOM     13  H   UNL     1      -6.619  -1.769   4.074  0.00  0.00    +0.167 HD
ATOM     14  F   UNL     1      -5.742  -2.122  -1.106  0.00  0.00    -0.205 F 
ENDBRANCH   2   4
BRANCH   1  15
ATOM     15  C   UNL     1      -1.790  -0.775  -1.129  0.00  0.00    +0.079 C 
ATOM     16  C   UNL     1      -2.920   0.212  -1.429  0.00  0.00    +0.023 C 
ATOM     17  C   UNL     1      -2.348   1.628  -1.526  0.00  0.00    +0.002 C 
ATOM     18  C   UNL     1      -1.311   1.683  -2.650  0.00  0.00    +0.000 C 
ATOM     19  C   UNL     1      -0.181   0.696  -2.350  0.00  0.00    +0.005 C 
ATOM     20  C   UNL     1      -0.753  -0.720  -2.252  0.00  0.00    +0.006 C 
ATOM     21  C   UNL     1       0.377  -1.707  -1.952  0.00  0.00    +0.009 C 
ENDBRANCH   1  15
BRANCH   1  23
ATOM     22  C   UNL     1       0.145   1.651   0.289  0.00  0.00    +0.024 C 
ATOM     23  C   UNL     1       0.207   0.128   0.151  0.00  0.00    +0.105 C 
ENDBRANCH   1  23
TORSDOF 3
