REMARK  Name = ZINC39331065
REMARK  11 active torsions:
REMARK  status: ('A' for Active; 'I' for Inactive)
REMARK    1  A    between atoms: C_7  and  C_29
REMARK    2  A    between atoms: N_10  and  C_11
REMARK    3  A    between atoms: C_11  and  C_12
REMARK    4  A    between atoms: C_12  and  C_14
REMARK    5  A    between atoms: C_12  and  O_28
REMARK    6  A    between atoms: C_14  and  N_15
REMARK    7  A    between atoms: N_15  and  C_16
REMARK    8  A    between atoms: C_16  and  C_17
REMARK    9  A    between atoms: C_17  and  C_18
REMARK   10  A    between atoms: C_30  and  C_31
REMARK   11  A    between atoms: C_31  and  C_33
REMARK                            x       y       z     vdW  Elec       q    Type
REMARK                         _______ _______ _______ _____ _____    ______ ____
ROOT
ATOM      1  C   UNL     1       5.406  -0.283   1.390  0.00  0.00    +0.115 C 
ENDROOT
BRANCH   1   2
ATOM      2  O   UNL     1       4.619   0.692   2.076  0.00  0.00    -0.392 OA
ATOM      3  H   UNL     1       4.647   1.572   1.677  0.00  0.00    +0.210 HD
ENDBRANCH   1   2
BRANCH   1   4
ATOM      4  C   UNL     1       4.903  -0.424  -0.048  0.00  0.00    +0.134 C 
BRANCH   4  13
ATOM      5  C   UNL     1      -0.017   1.378   0.010  0.00  0.00    +0.000 A 
ATOM      6  C   UNL     1       1.174   2.082   0.002  0.00  0.00    +0.002 A 
ATOM      7  C   UNL     1       2.377   1.411  -0.013  0.00  0.00    +0.023 A 
ATOM      8  C   UNL     1       2.405   0.014  -0.021  0.00  0.00    +0.034 A 
ATOM      9  C   UNL     1       1.206  -0.682  -0.013  0.00  0.00    -0.018 A 
ATOM     10  C   UNL     1       0.002  -0.004   0.002  0.00  0.00    +0.006 A 
ATOM     11  C   UNL     1       1.510  -2.163  -0.023  0.00  0.00    +0.061 C 
ATOM     12  C   UNL     1       3.046  -2.241  -0.038  0.00  0.00    +0.117 C 
ATOM     13  N   UNL     1       3.501  -0.849  -0.036  0.00  0.00    -0.326 N 
BRANCH  11  14
ATOM     14  C   UNL     1       0.936  -2.809  -1.258  0.00  0.00    -0.013 C 
ATOM     15  C   UNL     1       0.059  -3.803  -1.141  0.00  0.00    +0.048 C 
BRANCH  15  16
ATOM     16  C   UNL     1      -0.502  -4.434  -2.347  0.00  0.00    +0.192 C 
ATOM     17  O   UNL     1      -0.163  -4.047  -3.450  0.00  0.00    -0.287 OA
BRANCH  16  18
ATOM     18  C   UNL     1      -1.468  -5.528  -2.219  0.00  0.00    +0.059 A 
ATOM     19  C   UNL     1      -2.106  -6.255  -3.216  0.00  0.00    +0.019 A 
ATOM     20  C   UNL     1      -2.969  -7.230  -2.783  0.00  0.00    +0.008 A 
ATOM     21  C   UNL     1      -3.140  -7.417  -1.450  0.00  0.00    +0.046 A 
ATOM     22  S   UNL     1      -2.127  -6.278  -0.742  0.00  0.00    -0.093 S 
ENDBRANCH  16  18
ENDBRANCH  15  16
ENDBRANCH  11  14
ENDBRANCH   4  13
ENDBRANCH   1   4
BRANCH   1  23
ATOM     23  C   UNL     1       6.870   0.160   1.377  0.00  0.00    -0.049 C 
BRANCH  23  24
ATOM     24  N   UNL     1       7.388   0.180   2.752  0.00  0.00    +0.381 N 
ATOM     25  H   UNL     1       6.846   0.826   3.306  0.00  0.00    -0.086 HD
ATOM     26  H   UNL     1       7.320  -0.744   3.150  0.00  0.00    -0.086 HD
BRANCH  24  27
ATOM     27  C   UNL     1       8.794   0.606   2.740  0.00  0.00    -0.078 C 
BRANCH  27  28
ATOM     28  C   UNL     1       9.333   0.627   4.171  0.00  0.00    +0.018 C 
BRANCH  28  29
ATOM     29  C   UNL     1      10.775   1.063   4.159  0.00  0.00    -0.024 A 
ATOM     30  C   UNL     1      11.268   2.443   4.160  0.00  0.00    +0.005 A 
ATOM     31  C   UNL     1      10.648   3.694   4.173  0.00  0.00    +0.048 A 
ATOM     32  C   UNL     1      11.418   4.837   4.170  0.00  0.00    +0.124 A 
ATOM     33  C   UNL     1      12.805   4.748   4.156  0.00  0.00    +0.040 A 
ATOM     34  C   UNL     1      13.430   3.520   4.144  0.00  0.00    +0.029 A 
ATOM     35  C   UNL     1      12.672   2.355   4.146  0.00  0.00    +0.047 A 
ATOM     36  N   UNL     1      12.994   1.015   4.136  0.00  0.00    -0.360 N 
ATOM     37  C   UNL     1      11.852   0.262   4.150  0.00  0.00    +0.087 A 
ATOM     38  F   UNL     1      10.822   6.049   4.182  0.00  0.00    -0.205 F 
ATOM     39  H   UNL     1      13.896   0.659   4.125  0.00  0.00    +0.165 HD
ENDBRANCH  28  29
ENDBRANCH  27  28
ENDBRANCH  24  27
ENDBRANCH  23  24
ENDBRANCH   1  23
TORSDOF 11
