REMARK  Name = ZINC39148528
REMARK  8 active torsions:
REMARK  status: ('A' for Active; 'I' for Inactive)
REMARK    1  A    between atoms: C_1  and  C_2
REMARK    2  A    between atoms: C_2  and  C_4
REMARK    3  A    between atoms: C_2  and  N_14
REMARK    4  A    between atoms: C_4  and  C_5
REMARK    5  A    between atoms: C_15  and  C_17
REMARK    6  A    between atoms: C_17  and  N_18
REMARK    7  A    between atoms: C_19  and  C_21
REMARK    8  A    between atoms: C_28  and  N_31
REMARK                            x       y       z     vdW  Elec       q    Type
REMARK                         _______ _______ _______ _____ _____    ______ ____
ROOT
ATOM      1  N   UNL     1      -0.150  -1.201   4.706  0.00  0.00    -0.303 N 
ATOM      2  C   UNL     1       0.283  -1.623   5.911  0.00  0.00    +0.244 C 
ATOM      3  O   UNL     1       1.446  -1.948   6.060  0.00  0.00    -0.270 OA
ATOM      4  H   UNL     1      -1.077  -0.942   4.588  0.00  0.00    +0.150 HD
ENDROOT
BRANCH   2   5
ATOM      5  C   UNL     1      -0.653  -1.692   7.049  0.00  0.00    +0.038 A 
ATOM      6  C   UNL     1      -1.993  -1.328   6.892  0.00  0.00    +0.015 A 
ATOM      7  C   UNL     1      -2.868  -1.389   7.945  0.00  0.00    +0.025 A 
ATOM      8  C   UNL     1      -2.452  -1.820   9.221  0.00  0.00    +0.043 A 
ATOM      9  C   UNL     1      -1.104  -2.180   9.353  0.00  0.00    +0.033 A 
ATOM     10  C   UNL     1      -0.218  -2.128   8.306  0.00  0.00    +0.029 A 
ATOM     11  S   UNL     1      -0.919  -2.666  11.054  0.00  0.00    -0.079 S 
ATOM     12  C   UNL     1      -2.653  -2.386  11.592  0.00  0.00    +0.237 C 
ATOM     13  N   UNL     1      -3.265  -1.915  10.342  0.00  0.00    -0.314 N 
ATOM     14  H   UNL     1      -4.205  -1.678  10.302  0.00  0.00    +0.149 HD
BRANCH  12  15
ATOM     15  N   UNL     1      -3.273  -3.634  12.044  0.00  0.00    -0.326 N 
ATOM     16  C   UNL     1      -3.932  -4.527  11.252  0.00  0.00    +0.088 A 
ATOM     17  C   UNL     1      -4.358  -5.544  12.028  0.00  0.00    +0.019 A 
ATOM     18  C   UNL     1      -3.947  -5.269  13.348  0.00  0.00    +0.019 A 
ATOM     19  C   UNL     1      -3.280  -4.097  13.327  0.00  0.00    +0.088 A 
ENDBRANCH  12  15
ENDBRANCH   2   5
BRANCH   1  20
ATOM     20  C   UNL     1       0.780  -1.133   3.576  0.00  0.00    +0.200 C 
BRANCH  20  22
ATOM     21  N   UNL     1       0.711  -0.489   1.189  0.00  0.00    -0.311 N 
ATOM     22  C   UNL     1       0.051  -0.633   2.355  0.00  0.00    +0.230 C 
ATOM     23  O   UNL     1      -1.129  -0.361   2.423  0.00  0.00    -0.274 OA
ATOM     24  H   UNL     1       1.654  -0.707   1.135  0.00  0.00    +0.149 HD
BRANCH  21  26
ATOM     25  C   UNL     1      -0.019   1.526   0.010  0.00  0.00    +0.028 C 
ATOM     26  C   UNL     1       0.002  -0.004   0.002  0.00  0.00    +0.074 C 
BRANCH  26  27
ATOM     27  C   UNL     1       0.718  -0.497  -1.257  0.00  0.00    +0.059 C 
BRANCH  27  28
ATOM     28  C   UNL     1       0.632  -2.000  -1.327  0.00  0.00    -0.021 A 
ATOM     29  C   UNL     1      -0.473  -2.784  -1.884  0.00  0.00    +0.003 A 
ATOM     30  C   UNL     1      -1.694  -2.456  -2.477  0.00  0.00    +0.010 A 
ATOM     31  C   UNL     1      -2.529  -3.449  -2.906  0.00  0.00    +0.001 A 
ATOM     32  C   UNL     1      -2.174  -4.782  -2.756  0.00  0.00    +0.002 A 
ATOM     33  C   UNL     1      -0.974  -5.129  -2.174  0.00  0.00    +0.026 A 
ATOM     34  C   UNL     1      -0.108  -4.134  -1.731  0.00  0.00    +0.047 A 
ATOM     35  N   UNL     1       1.128  -4.154  -1.125  0.00  0.00    -0.360 N 
ATOM     36  C   UNL     1       1.555  -2.874  -0.897  0.00  0.00    +0.087 A 
ATOM     37  H   UNL     1       1.624  -4.956  -0.896  0.00  0.00    +0.165 HD
ENDBRANCH  27  28
ENDBRANCH  26  27
ENDBRANCH  21  26
ENDBRANCH  20  22
ENDBRANCH   1  20
TORSDOF 7
