REMARK  Name = ZINC03427209
REMARK  8 active torsions:
REMARK  status: ('A' for Active; 'I' for Inactive)
REMARK    1  A    between atoms: C_4  and  C_7
REMARK    2  A    between atoms: C_7  and  N_8
REMARK    3  A    between atoms: C_14  and  C_19
REMARK    4  A    between atoms: C_19  and  O_21
REMARK    5  A    between atoms: O_21  and  C_22
REMARK    6  A    between atoms: C_22  and  C_23
REMARK    7  A    between atoms: C_23  and  C_25
REMARK    8  A    between atoms: C_25  and  C_35
REMARK                            x       y       z     vdW  Elec       q    Type
REMARK                         _______ _______ _______ _____ _____    ______ ____
ROOT
ATOM      1  C   UNL     1      -4.054   6.340  -6.847  0.00  0.00    +0.340 C 
ATOM      2  O   UNL     1      -3.463   7.400  -6.854  0.00  0.00    -0.245 OA
ENDROOT
BRANCH   1   9
ATOM      3  N   UNL     1      -2.992   4.114  -1.331  0.00  0.00    -0.230 N 
ATOM      4  C   UNL     1      -3.761   3.273  -2.045  0.00  0.00    +0.254 C 
ATOM      5  O   UNL     1      -4.196   2.207  -1.657  0.00  0.00    -0.270 OA
ATOM      6  C   UNL     1      -3.990   3.865  -3.382  0.00  0.00    +0.049 A 
ATOM      7  C   UNL     1      -4.688   3.461  -4.509  0.00  0.00    +0.014 A 
ATOM      8  C   UNL     1      -4.707   4.266  -5.635  0.00  0.00    +0.016 A 
ATOM      9  C   UNL     1      -4.028   5.485  -5.640  0.00  0.00    +0.060 A 
ATOM     10  C   UNL     1      -3.321   5.900  -4.508  0.00  0.00    +0.028 A 
ATOM     11  C   UNL     1      -3.301   5.095  -3.381  0.00  0.00    +0.050 A 
ATOM     12  C   UNL     1      -2.683   5.211  -2.044  0.00  0.00    +0.254 C 
ATOM     13  O   UNL     1      -2.006   6.142  -1.654  0.00  0.00    -0.270 OA
BRANCH   3  14
ATOM     14  C   UNL     1      -2.553   3.869   0.045  0.00  0.00    +0.152 C 
BRANCH  14  18
ATOM     15  C   UNL     1       1.175   1.783   0.000  0.00  0.00    +0.000 A 
ATOM     16  C   UNL     1      -0.013   1.076   0.008  0.00  0.00    +0.000 A 
ATOM     17  C   UNL     1      -1.219   1.751   0.017  0.00  0.00    +0.005 A 
ATOM     18  C   UNL     1      -1.238   3.133   0.030  0.00  0.00    -0.030 A 
ATOM     19  C   UNL     1      -0.050   3.840   0.022  0.00  0.00    +0.005 A 
ATOM     20  C   UNL     1       1.156   3.165   0.008  0.00  0.00    +0.000 A 
ENDBRANCH  14  18
ENDBRANCH   3  14
ENDBRANCH   1   9
BRANCH   1  21
ATOM     21  O   UNL     1      -4.735   5.941  -7.939  0.00  0.00    -0.453 OA
BRANCH  21  22
ATOM     22  C   UNL     1      -4.717   6.830  -9.087  0.00  0.00    +0.312 C 
BRANCH  22  23
ATOM     23  C   UNL     1      -5.525   6.223 -10.205  0.00  0.00    +0.214 C 
ATOM     24  O   UNL     1      -6.064   5.145 -10.050  0.00  0.00    -0.288 OA
BRANCH  23  25
ATOM     25  C   UNL     1      -5.656   6.904 -11.428  0.00  0.00    +0.133 C 
ATOM     26  C   UNL     1      -6.410   6.337 -12.471  0.00  0.00    +0.114 C 
ATOM     27  N   UNL     1      -7.051   5.141 -12.418  0.00  0.00    -0.300 N 
ATOM     28  C   UNL     1      -7.684   4.932 -13.638  0.00  0.00    +0.054 A 
ATOM     29  C   UNL     1      -8.469   3.900 -14.134  0.00  0.00    +0.025 A 
ATOM     30  C   UNL     1      -8.966   3.971 -15.419  0.00  0.00    +0.002 A 
ATOM     31  C   UNL     1      -8.687   5.068 -16.217  0.00  0.00    +0.002 A 
ATOM     32  C   UNL     1      -7.907   6.100 -15.734  0.00  0.00    +0.025 A 
ATOM     33  C   UNL     1      -7.402   6.038 -14.443  0.00  0.00    +0.054 A 
ATOM     34  N   UNL     1      -6.607   6.897 -13.692  0.00  0.00    -0.300 N 
ATOM     35  H   UNL     1      -7.065   4.537 -11.659  0.00  0.00    +0.153 HD
ATOM     36  H   UNL     1      -6.255   7.751 -13.990  0.00  0.00    +0.153 HD
BRANCH  25  37
ATOM     37  C   UNL     1      -5.021   8.174 -11.611  0.00  0.00    +0.106 C 
ATOM     38  N   UNL     1      -4.517   9.182 -11.757  0.00  0.00    -0.191 NA
ENDBRANCH  25  37
ENDBRANCH  23  25
ENDBRANCH  22  23
ENDBRANCH  21  22
ENDBRANCH   1  21
TORSDOF 8
