REMARK  Name = ZINC14538376
REMARK  6 active torsions:
REMARK  status: ('A' for Active; 'I' for Inactive)
REMARK    1  A    between atoms: C_9  and  C_11
REMARK    2  A    between atoms: C_11  and  N_12
REMARK    3  A    between atoms: C_14  and  O_26
REMARK    4  A    between atoms: N_16  and  C_20
REMARK    5  A    between atoms: O_26  and  C_27
REMARK    6  A    between atoms: C_27  and  C_28
REMARK                            x       y       z     vdW  Elec       q    Type
REMARK                         _______ _______ _______ _____ _____    ______ ____
ROOT
ATOM      1  N   UNL     1       4.111  -3.661  -1.437  0.00  0.00    -0.284 NA
ATOM      2  C   UNL     1       5.124  -4.708  -1.477  0.00  0.00    +0.118 C 
ATOM      3  C   UNL     1       5.759  -4.899  -2.841  0.00  0.00    +0.150 C 
ATOM      4  C   UNL     1       4.737  -5.439  -3.845  0.00  0.00    +0.141 C 
ATOM      5  N   UNL     1       4.002  -4.299  -4.418  0.00  0.00    -0.295 N 
ATOM      6  C   UNL     1       3.143  -3.612  -3.659  0.00  0.00    +0.230 C 
ATOM      7  O   UNL     1       2.544  -2.667  -4.128  0.00  0.00    -0.274 OA
ATOM      8  C   UNL     1       2.915  -4.009  -2.216  0.00  0.00    +0.181 C 
ENDROOT
BRANCH   5   9
ATOM      9  C   UNL     1       4.211  -3.919  -5.817  0.00  0.00    +0.076 C 
ATOM     10  C   UNL     1       4.730  -2.481  -5.883  0.00  0.00    +0.022 C 
ATOM     11  C   UNL     1       4.949  -2.084  -7.344  0.00  0.00    +0.002 C 
ATOM     12  C   UNL     1       3.624  -2.183  -8.103  0.00  0.00    +0.000 C 
ATOM     13  C   UNL     1       3.106  -3.622  -8.038  0.00  0.00    +0.002 C 
ATOM     14  C   UNL     1       2.887  -4.019  -6.577  0.00  0.00    +0.022 C 
ENDBRANCH   5   9
BRANCH   1  15
ATOM     15  C   UNL     1       3.757  -3.322  -0.052  0.00  0.00    +0.159 C 
BRANCH  15  24
ATOM     16  C   UNL     1      -0.017   1.374   0.010  0.00  0.00    +0.002 A 
ATOM     17  C   UNL     1       1.170   2.094   0.002  0.00  0.00    +0.002 A 
ATOM     18  C   UNL     1       2.375   1.450  -0.013  0.00  0.00    +0.030 A 
ATOM     19  C   UNL     1       2.418   0.054  -0.021  0.00  0.00    +0.089 A 
ATOM     20  C   UNL     1       1.217  -0.675  -0.013  0.00  0.00    +0.066 A 
ATOM     21  C   UNL     1       0.002  -0.004   0.002  0.00  0.00    +0.028 A 
ATOM     22  N   UNL     1       1.580  -2.007  -0.024  0.00  0.00    -0.341 N 
ATOM     23  H   UNL     1       0.977  -2.767  -0.022  0.00  0.00    +0.167 HD
ATOM     24  C   UNL     1       2.939  -2.056  -0.038  0.00  0.00    +0.122 A 
ATOM     25  N   UNL     1       3.430  -0.852  -0.036  0.00  0.00    -0.231 NA
ENDBRANCH  15  24
ENDBRANCH   1  15
BRANCH   3  26
ATOM     26  O   UNL     1       6.843  -5.823  -2.730  0.00  0.00    -0.369 OA
BRANCH  26  27
ATOM     27  C   UNL     1       8.102  -5.211  -2.442  0.00  0.00    +0.195 C 
BRANCH  27  28
ATOM     28  C   UNL     1       9.167  -6.273  -2.348  0.00  0.00    -0.019 A 
ATOM     29  C   UNL     1       9.451  -6.887  -1.138  0.00  0.00    +0.025 A 
ATOM     30  C   UNL     1      10.435  -7.857  -1.090  0.00  0.00    +0.111 A 
ATOM     31  N   UNL     1      11.099  -8.199  -2.176  0.00  0.00    -0.263 NA
ATOM     32  C   UNL     1      10.855  -7.636  -3.344  0.00  0.00    +0.111 A 
ATOM     33  C   UNL     1       9.882  -6.663  -3.470  0.00  0.00    +0.025 A 
ENDBRANCH  27  28
ENDBRANCH  26  27
ENDBRANCH   3  26
TORSDOF 6
