REMARK  Name = ZINC00752508
REMARK  5 active torsions:
REMARK  status: ('A' for Active; 'I' for Inactive)
REMARK    1  A    between atoms: C_1  and  C_2
REMARK    2  A    between atoms: C_7  and  C_15
REMARK    3  A    between atoms: C_9  and  C_13
REMARK    4  A    between atoms: C_10  and  N_12
REMARK    5  A    between atoms: C_18  and  C_21
REMARK                            x       y       z     vdW  Elec       q    Type
REMARK                         _______ _______ _______ _____ _____    ______ ____
ROOT
ATOM      1  C   UNL     1       2.752  10.886   4.918  0.00  0.00    +0.008 C 
ATOM      2  C   UNL     1       2.061  10.337   3.669  0.00  0.00    +0.001 C 
ATOM      3  C   UNL     1       2.549  11.098   2.435  0.00  0.00    +0.078 C 
ATOM      4  C   UNL     1       1.840  10.581   1.205  0.00  0.00    +0.115 C 
ATOM      5  C   UNL     1       0.583  10.107   1.285  0.00  0.00    +0.046 C 
ATOM      6  C   UNL     1      -0.128   9.603   0.053  0.00  0.00    +0.101 C 
ATOM      7  C   UNL     1       0.557  10.117  -1.182  0.00  0.00    +0.098 C 
ATOM      8  C   UNL     1       1.823  10.589  -1.121  0.00  0.00    +0.198 C 
ATOM      9  O   UNL     1       2.505  10.608   0.035  0.00  0.00    -0.445 OA
ATOM     10  C   UNL     1      -0.106  10.063   2.513  0.00  0.00    +0.164 C 
ATOM     11  O   UNL     1      -1.245   9.644   2.543  0.00  0.00    -0.292 OA
ATOM     12  C   UNL     1       0.544  10.527   3.788  0.00  0.00    +0.083 C 
ENDROOT
BRANCH   6  13
ATOM     13  C   UNL     1      -0.108   8.096   0.045  0.00  0.00    -0.035 A 
ATOM     14  C   UNL     1      -1.298   7.391   0.053  0.00  0.00    +0.005 A 
ATOM     15  C   UNL     1      -1.285   6.011   0.045  0.00  0.00    +0.009 A 
ATOM     16  C   UNL     1      -0.070   5.328   0.030  0.00  0.00    -0.018 A 
ATOM     17  C   UNL     1       1.125   6.043   0.029  0.00  0.00    +0.009 A 
ATOM     18  C   UNL     1       1.101   7.423   0.030  0.00  0.00    +0.005 A 
BRANCH  16  19
ATOM     19  C   UNL     1      -0.050   3.844   0.022  0.00  0.00    -0.018 A 
ATOM     20  C   UNL     1       1.164   3.161   0.007  0.00  0.00    +0.008 A 
ATOM     21  C   UNL     1       1.177   1.781   0.000  0.00  0.00    +0.001 A 
ATOM     22  C   UNL     1      -0.013   1.076   0.008  0.00  0.00    +0.000 A 
ATOM     23  C   UNL     1      -1.221   1.748   0.017  0.00  0.00    +0.001 A 
ATOM     24  C   UNL     1      -1.246   3.128   0.030  0.00  0.00    +0.008 A 
ENDBRANCH  16  19
ENDBRANCH   6  13
BRANCH   8  25
ATOM     25  N   UNL     1       2.424  11.056  -2.264  0.00  0.00    -0.328 N 
ATOM     26  H   UNL     1       3.331  11.396  -2.230  0.00  0.00    +0.145 HD
ATOM     27  H   UNL     1       1.940  11.047  -3.104  0.00  0.00    +0.145 HD
ENDBRANCH   8  25
BRANCH   7  28
ATOM     28  C   UNL     1      -0.135  10.108  -2.436  0.00  0.00    +0.101 C 
ATOM     29  N   UNL     1      -0.684  10.101  -3.431  0.00  0.00    -0.191 NA
ENDBRANCH   7  28
TORSDOF 4
