REMARK  Name = ZINC36312957
REMARK  13 active torsions:
REMARK  status: ('A' for Active; 'I' for Inactive)
REMARK    1  A    between atoms: C_1  and  C_2
REMARK    2  A    between atoms: C_7  and  O_8
REMARK    3  A    between atoms: O_8  and  C_9
REMARK    4  A    between atoms: C_9  and  C_10
REMARK    5  A    between atoms: C_10  and  C_12
REMARK    6  A    between atoms: C_10  and  O_38
REMARK    7  A    between atoms: C_12  and  N_13
REMARK    8  A    between atoms: N_13  and  C_14
REMARK    9  A    between atoms: N_13  and  C_31
REMARK   10  A    between atoms: C_14  and  C_15
REMARK   11  A    between atoms: C_16  and  C_25
REMARK   12  A    between atoms: C_19  and  N_20
REMARK   13  A    between atoms: C_31  and  C_32
REMARK                            x       y       z     vdW  Elec       q    Type
REMARK                         _______ _______ _______ _____ _____    ______ ____
ROOT
ATOM      1  N   UNL     1       1.077   0.385   6.551  0.00  0.00    +0.386 N 
ATOM      2  H   UNL     1       1.814   1.074   6.585  0.00  0.00    -0.081 HD
ENDROOT
BRANCH   1   3
ATOM      3  C   UNL     1       1.096  -0.290   5.247  0.00  0.00    -0.043 C 
BRANCH   3   4
ATOM      4  C   UNL     1       1.068   0.756   4.131  0.00  0.00    +0.135 C 
BRANCH   4   5
ATOM      5  O   UNL     1      -0.201   1.412   4.125  0.00  0.00    -0.390 OA
ATOM      6  H   UNL     1      -0.950   0.819   3.978  0.00  0.00    +0.210 HD
ENDBRANCH   4   5
BRANCH   4   7
ATOM      7  C   UNL     1       1.294   0.069   2.782  0.00  0.00    +0.258 C 
BRANCH   7   8
ATOM      8  O   UNL     1       1.384   1.057   1.754  0.00  0.00    -0.489 OA
BRANCH   8  15
ATOM      9  C   UNL     1       1.565   2.994  -0.294  0.00  0.00    +0.047 C 
ATOM     10  C   UNL     1       1.683   1.516  -0.561  0.00  0.00    -0.009 A 
ATOM     11  C   UNL     1       1.893   1.060  -1.849  0.00  0.00    +0.007 A 
ATOM     12  C   UNL     1       2.001  -0.296  -2.094  0.00  0.00    +0.000 A 
ATOM     13  C   UNL     1       1.899  -1.200  -1.052  0.00  0.00    +0.004 A 
ATOM     14  C   UNL     1       1.689  -0.750   0.236  0.00  0.00    +0.046 A 
ATOM     15  C   UNL     1       1.585   0.611   0.486  0.00  0.00    +0.124 A 
ENDBRANCH   8  15
ENDBRANCH   7   8
ENDBRANCH   4   7
ENDBRANCH   3   4
ENDBRANCH   1   3
BRANCH   1  16
ATOM     16  C   UNL     1       1.283  -0.604   7.618  0.00  0.00    -0.035 C 
BRANCH  16  17
ATOM     17  C   UNL     1       2.633  -1.252   7.448  0.00  0.00    +0.025 A 
ATOM     18  C   UNL     1       2.897  -2.446   6.745  0.00  0.00    +0.117 A 
ATOM     19  N   UNL     1       4.186  -2.684   6.821  0.00  0.00    -0.076 NA
ATOM     20  O   UNL     1       4.779  -1.644   7.577  0.00  0.00    -0.339 OA
ATOM     21  C   UNL     1       3.809  -0.787   7.939  0.00  0.00    +0.222 A 
BRANCH  18  22
ATOM     22  C   UNL     1       1.894  -3.286   6.042  0.00  0.00    +0.004 A 
ATOM     23  C   UNL     1       0.667  -3.558   6.642  0.00  0.00    +0.010 A 
ATOM     24  C   UNL     1      -0.262  -4.338   5.984  0.00  0.00    +0.001 A 
ATOM     25  C   UNL     1       0.024  -4.851   4.732  0.00  0.00    +0.000 A 
ATOM     26  C   UNL     1       1.241  -4.584   4.132  0.00  0.00    +0.001 A 
ATOM     27  C   UNL     1       2.175  -3.800   4.778  0.00  0.00    +0.010 A 
ENDBRANCH  18  22
BRANCH  21  28
ATOM     28  N   UNL     1       3.980   0.365   8.684  0.00  0.00    -0.299 N 
ATOM     29  C   UNL     1       2.901   1.228   9.187  0.00  0.00    +0.108 C 
ATOM     30  C   UNL     1       3.565   2.402   9.938  0.00  0.00    +0.020 C 
ATOM     31  C   UNL     1       4.993   2.438   9.332  0.00  0.00    +0.020 C 
ATOM     32  C   UNL     1       5.274   0.928   9.112  0.00  0.00    +0.108 C 
ENDBRANCH  21  28
ENDBRANCH  16  17
ENDBRANCH   1  16
BRANCH   1  33
ATOM     33  C   UNL     1      -0.220   1.047   6.742  0.00  0.00    -0.046 C 
BRANCH  33  34
ATOM     34  C   UNL     1      -0.207   1.825   8.059  0.00  0.00    +0.102 C 
ATOM     35  C   UNL     1      -1.603   2.429   8.324  0.00  0.00    +0.032 C 
ATOM     36  C   UNL     1      -1.253   3.823   8.913  0.00  0.00    +0.030 C 
ATOM     37  C   UNL     1       0.036   4.161   8.122  0.00  0.00    +0.160 C 
ATOM     38  O   UNL     1       0.726   2.908   7.975  0.00  0.00    -0.378 OA
ENDBRANCH  33  34
ENDBRANCH   1  33
TORSDOF 12
