REMARK  Name = ZINC06299066
REMARK  13 active torsions:
REMARK  status: ('A' for Active; 'I' for Inactive)
REMARK    1  A    between atoms: C_1  and  C_2
REMARK    2  A    between atoms: C_2  and  C_4
REMARK    3  A    between atoms: C_2  and  C_13
REMARK    4  A    between atoms: C_4  and  C_5
REMARK    5  A    between atoms: C_5  and  C_6
REMARK    6  A    between atoms: C_6  and  C_8
REMARK    7  A    between atoms: C_6  and  O_12
REMARK    8  A    between atoms: C_8  and  C_9
REMARK    9  A    between atoms: C_8  and  C_10
REMARK   10  A    between atoms: C_8  and  O_11
REMARK   11  A    between atoms: C_19  and  C_37
REMARK   12  A    between atoms: C_29  and  C_36
REMARK   13  A    between atoms: C_32  and  O_35
REMARK                            x       y       z     vdW  Elec       q    Type
REMARK                         _______ _______ _______ _____ _____    ______ ____
ROOT
ATOM      1  C   UNL     1      -0.024   1.113  -2.542  0.00  0.00    -0.002 C 
ATOM      2  C   UNL     1       0.041  -0.423  -2.724  0.00  0.00    +0.004 C 
ATOM      3  C   UNL     1      -0.410  -0.715  -4.181  0.00  0.00    +0.004 C 
ATOM      4  C   UNL     1      -0.339   0.666  -4.849  0.00  0.00    -0.001 C 
ATOM      5  C   UNL     1      -0.879   1.589  -3.738  0.00  0.00    -0.026 C 
ATOM      6  C   UNL     1      -0.692   3.043  -4.093  0.00  0.00    +0.007 C 
ATOM      7  C   UNL     1      -0.841   3.263  -5.606  0.00  0.00    +0.005 C 
ATOM      8  C   UNL     1      -1.743   2.202  -6.221  0.00  0.00    +0.003 C 
ATOM      9  C   UNL     1      -1.045   0.836  -6.155  0.00  0.00    +0.000 C 
ATOM     10  C   UNL     1      -2.094  -0.232  -6.462  0.00  0.00    +0.031 C 
ATOM     11  C   UNL     1      -2.654   0.079  -7.827  0.00  0.00    -0.027 C 
ATOM     12  C   UNL     1      -2.636   1.262  -8.357  0.00  0.00    -0.065 C 
ATOM     13  C   UNL     1      -2.111   2.499  -7.666  0.00  0.00    -0.008 C 
ATOM     14  C   UNL     1      -0.939   3.047  -8.470  0.00  0.00    +0.014 C 
ATOM     15  C   UNL     1      -0.820   2.305  -9.801  0.00  0.00    +0.032 C 
ATOM     16  C   UNL     1      -2.145   2.260 -10.553  0.00  0.00    +0.119 C 
ATOM     17  C   UNL     1      -3.183   1.456  -9.761  0.00  0.00    +0.062 C 
ATOM     18  C   UNL     1      -3.227   3.549  -7.653  0.00  0.00    +0.016 C 
ATOM     19  C   UNL     1      -2.337   1.292  -3.381  0.00  0.00    +0.012 C 
ENDROOT
BRANCH   1  21
ATOM     20  C   UNL     1      -0.728   2.989  -1.053  0.00  0.00    +0.008 C 
ATOM     21  C   UNL     1      -0.724   1.470  -1.233  0.00  0.00    -0.010 C 
BRANCH  21  22
ATOM     22  C   UNL     1       0.018   0.819  -0.064  0.00  0.00    +0.006 C 
BRANCH  22  23
ATOM     23  C   UNL     1      -0.753   1.072   1.234  0.00  0.00    +0.034 C 
BRANCH  23  24
ATOM     24  C   UNL     1      -0.011   0.422   2.403  0.00  0.00    +0.146 C 
BRANCH  24  25
ATOM     25  C   UNL     1      -0.713   0.778   3.714  0.00  0.00    +0.086 C 
ATOM     26  C   UNL     1       0.029   0.128   4.884  0.00  0.00    +0.043 C 
ATOM     27  C   UNL     1      -0.716   2.298   3.894  0.00  0.00    +0.043 C 
BRANCH  25  28
ATOM     28  O   UNL     1      -2.059   0.300   3.680  0.00  0.00    -0.387 OA
ATOM     29  H   UNL     1      -2.133  -0.657   3.568  0.00  0.00    +0.210 HD
ENDBRANCH  25  28
ENDBRANCH  24  25
BRANCH  24  30
ATOM     30  O   UNL     1      -0.008  -0.998   2.235  0.00  0.00    -0.389 OA
ATOM     31  H   UNL     1      -0.890  -1.392   2.203  0.00  0.00    +0.210 HD
ENDBRANCH  24  30
ENDBRANCH  23  24
ENDBRANCH  22  23
ENDBRANCH  21  22
ENDBRANCH   1  21
BRANCH  16  32
ATOM     32  O   UNL     1      -2.625   3.588 -10.773  0.00  0.00    -0.391 OA
ATOM     33  H   UNL     1      -3.453   3.629 -11.271  0.00  0.00    +0.210 HD
ENDBRANCH  16  32
TORSDOF 8
