REMARK  Name = ZINC08912093
REMARK  12 active torsions:
REMARK  status: ('A' for Active; 'I' for Inactive)
REMARK    1  A    between atoms: C_1  and  C_2
REMARK    2  A    between atoms: C_2  and  O_3
REMARK    3  A    between atoms: O_3  and  C_4
REMARK    4  A    between atoms: C_7  and  C_13
REMARK    5  A    between atoms: C_9  and  O_10
REMARK    6  A    between atoms: O_10  and  C_11
REMARK    7  A    between atoms: C_11  and  C_12
REMARK    8  A    between atoms: C_13  and  C_14
REMARK    9  A    between atoms: C_14  and  N_15
REMARK   10  A    between atoms: C_16  and  C_18
REMARK   11  A    between atoms: C_19  and  C_38
REMARK   12  A    between atoms: C_27  and  O_37
REMARK                            x       y       z     vdW  Elec       q    Type
REMARK                         _______ _______ _______ _____ _____    ______ ____
ROOT
ATOM      1  C   UNL     1       0.329  -0.992   0.981  0.00  0.00    +0.193 A 
ATOM      2  C   UNL     1       0.145  -0.128  -0.051  0.00  0.00    +0.008 A 
ATOM      3  C   UNL     1       0.021  -0.953  -1.252  0.00  0.00    +0.033 A 
ATOM      4  C   UNL     1       0.156  -2.283  -0.818  0.00  0.00    +0.137 A 
ATOM      5  O   UNL     1       0.333  -2.259   0.518  0.00  0.00    -0.450 OA
ATOM      6  C   UNL     1       0.087  -3.311  -1.750  0.00  0.00    +0.050 A 
ATOM      7  C   UNL     1      -0.103  -3.019  -3.081  0.00  0.00    +0.049 A 
ATOM      8  C   UNL     1      -0.233  -1.699  -3.518  0.00  0.00    +0.128 A 
ATOM      9  C   UNL     1      -0.172  -0.666  -2.609  0.00  0.00    +0.034 A 
ATOM     10  C   UNL     1      -0.319   0.771  -3.040  0.00  0.00    +0.152 C 
ATOM     11  C   UNL     1      -0.074   0.888  -4.546  0.00  0.00    +0.084 C 
ATOM     12  C   UNL     1      -0.897  -0.195  -5.253  0.00  0.00    +0.113 C 
ATOM     13  O   UNL     1      -0.410  -1.474  -4.847  0.00  0.00    -0.485 OA
ATOM     14  C   UNL     1      -2.369  -0.053  -4.865  0.00  0.00    +0.048 C 
ATOM     15  C   UNL     1      -3.190  -1.132  -5.574  0.00  0.00    +0.004 C 
ATOM     16  C   UNL     1      -3.042  -0.973  -7.089  0.00  0.00    +0.000 C 
ATOM     17  C   UNL     1      -1.568  -1.120  -7.474  0.00  0.00    +0.004 C 
ATOM     18  C   UNL     1      -0.746  -0.041  -6.767  0.00  0.00    +0.048 C 
ATOM     19  C   UNL     1       0.076   1.376   0.027  0.00  0.00    +0.048 C 
ENDROOT
BRANCH   1  21
ATOM     20  N   UNL     1       0.674  -1.551   3.332  0.00  0.00    -0.309 N 
ATOM     21  C   UNL     1       0.498  -0.604   2.389  0.00  0.00    +0.280 C 
ATOM     22  O   UNL     1       0.478   0.571   2.703  0.00  0.00    -0.267 OA
ATOM     23  H   UNL     1       0.690  -2.488   3.081  0.00  0.00    +0.149 HD
BRANCH  20  24
ATOM     24  C   UNL     1       0.843  -1.165   4.735  0.00  0.00    +0.109 C 
BRANCH  24  25
ATOM     25  C   UNL     1       1.023  -2.420   5.591  0.00  0.00    +0.054 C 
BRANCH  25  29
ATOM     26  C   UNL     1       1.508  -1.293   9.688  0.00  0.00    +0.162 A 
ATOM     27  C   UNL     1       0.243  -1.539   9.179  0.00  0.00    +0.050 A 
ATOM     28  C   UNL     1       0.090  -1.903   7.854  0.00  0.00    +0.007 A 
ATOM     29  C   UNL     1       1.196  -2.023   7.034  0.00  0.00    -0.042 A 
ATOM     30  C   UNL     1       2.462  -1.784   7.537  0.00  0.00    +0.053 A 
ATOM     31  C   UNL     1       2.622  -1.414   8.863  0.00  0.00    +0.162 A 
BRANCH  26  32
ATOM     32  O   UNL     1       1.661  -0.936  10.991  0.00  0.00    -0.489 OA
BRANCH  32  34
ATOM     33  C   UNL     1       0.842  -0.422  13.206  0.00  0.00    +0.048 C 
ATOM     34  C   UNL     1       0.473  -0.832  11.779  0.00  0.00    +0.226 C 
ENDBRANCH  32  34
ENDBRANCH  26  32
BRANCH  31  35
ATOM     35  O   UNL     1       3.866  -1.174   9.358  0.00  0.00    -0.489 OA
BRANCH  35  36
ATOM     36  C   UNL     1       4.963  -1.317   8.453  0.00  0.00    +0.226 C 
ATOM     37  C   UNL     1       6.271  -1.009   9.184  0.00  0.00    +0.048 C 
ENDBRANCH  35  36
ENDBRANCH  31  35
ENDBRANCH  25  29
ENDBRANCH  24  25
ENDBRANCH  20  24
ENDBRANCH   1  21
BRANCH  10  38
ATOM     38  O   UNL     1       0.632   1.576  -2.340  0.00  0.00    -0.387 OA
ATOM     39  H   UNL     1       0.582   2.518  -2.552  0.00  0.00    +0.210 HD
ENDBRANCH  10  38
TORSDOF 9
