REMARK  Name = ZINC36299993
REMARK  6 active torsions:
REMARK  status: ('A' for Active; 'I' for Inactive)
REMARK    1  A    between atoms: C_1  and  C_2
REMARK    2  A    between atoms: C_5  and  C_20
REMARK    3  A    between atoms: C_6  and  S_9
REMARK    4  A    between atoms: S_9  and  N_12
REMARK    5  A    between atoms: N_12  and  C_13
REMARK    6  A    between atoms: N_12  and  C_14
REMARK                            x       y       z     vdW  Elec       q    Type
REMARK                         _______ _______ _______ _____ _____    ______ ____
ROOT
ATOM      1  S   UNL     1      -0.409  -2.657   2.877  0.00  0.00    +0.063 S 
ATOM      2  O   UNL     1      -0.980  -1.531   3.528  0.00  0.00    -0.153 OA
ATOM      3  O   UNL     1      -1.095  -3.895   2.752  0.00  0.00    -0.153 OA
ENDROOT
BRANCH   1   9
ATOM      4  C   UNL     1       0.659  -3.699  -2.134  0.00  0.00    +0.045 C 
ATOM      5  C   UNL     1       0.483  -2.676  -1.043  0.00  0.00    -0.029 A 
ATOM      6  C   UNL     1       0.642  -1.332  -1.323  0.00  0.00    +0.025 A 
ATOM      7  C   UNL     1       0.480  -0.392  -0.321  0.00  0.00    +0.046 A 
ATOM      8  C   UNL     1       0.159  -0.797   0.962  0.00  0.00    -0.004 A 
ATOM      9  C   UNL     1      -0.000  -2.141   1.243  0.00  0.00    +0.128 A 
ATOM     10  C   UNL     1       0.156  -3.081   0.239  0.00  0.00    +0.071 A 
ATOM     11 CL   UNL     1      -0.051  -4.768   0.590  0.00  0.00    -0.081 Cl
ATOM     12  C   UNL     1      -0.017   0.226   2.054  0.00  0.00    +0.047 C 
ATOM     13 CL   UNL     1       0.680   1.296  -0.674  0.00  0.00    -0.083 Cl
ENDBRANCH   1   9
BRANCH   1  14
ATOM     14  N   UNL     1       1.015  -2.983   3.658  0.00  0.00    -0.177 NA
ATOM     15  C   UNL     1       1.610  -1.980   4.545  0.00  0.00    +0.132 C 
BRANCH  14  16
ATOM     16  C   UNL     1       1.680  -4.274   3.462  0.00  0.00    +0.076 C 
ATOM     17  C   UNL     1       1.811  -4.992   4.808  0.00  0.00    +0.001 C 
ATOM     18  C   UNL     1       2.575  -6.302   4.609  0.00  0.00    -0.081 C 
ATOM     19  N   UNL     1       3.912  -6.016   4.073  0.00  0.00    +0.379 N 
ATOM     20  C   UNL     1       3.795  -5.392   2.749  0.00  0.00    -0.081 C 
ATOM     21  C   UNL     1       3.077  -4.047   2.877  0.00  0.00    +0.001 C 
ATOM     22  H   UNL     1       4.396  -5.389   4.697  0.00  0.00    -0.086 HD
ATOM     23  H   UNL     1       4.432  -6.877   3.993  0.00  0.00    -0.086 HD
ENDBRANCH  14  16
ENDBRANCH   1  14
TORSDOF 3
