REMARK  Name = ZINC14574099
REMARK  12 active torsions:
REMARK  status: ('A' for Active; 'I' for Inactive)
REMARK    1  A    between atoms: C_1  and  C_2
REMARK    2  A    between atoms: C_2  and  N_67
REMARK    3  A    between atoms: C_3  and  C_4
REMARK    4  A    between atoms: C_3  and  N_67
REMARK    5  A    between atoms: C_5  and  C_7
REMARK    6  A    between atoms: C_5  and  C_27
REMARK    7  A    between atoms: C_5  and  N_67
REMARK    8  A    between atoms: C_7  and  N_8
REMARK    9  A    between atoms: C_9  and  C_11
REMARK   10  A    between atoms: N_14  and  S_17
REMARK   11  A    between atoms: S_17  and  C_20
REMARK   12  A    between atoms: C_23  and  C_26
REMARK                            x       y       z     vdW  Elec       q    Type
REMARK                         _______ _______ _______ _____ _____    ______ ____
ROOT
ATOM      1  N   UNL     1      -0.719  -2.201  -6.135  0.00  0.00    -0.316 N 
ATOM      2  C   UNL     1       0.116  -2.075  -5.085  0.00  0.00    +0.216 C 
ATOM      3  O   UNL     1       0.970  -1.213  -5.089  0.00  0.00    -0.276 OA
ATOM      4  H   UNL     1      -1.401  -2.891  -6.132  0.00  0.00    +0.149 HD
ENDROOT
BRANCH   2   5
ATOM      5  C   UNL     1      -0.010  -3.005  -3.906  0.00  0.00    +0.077 C 
ATOM      6  C   UNL     1       1.050  -2.650  -2.861  0.00  0.00    +0.030 C 
ATOM      7  C   UNL     1       0.942  -3.619  -1.679  0.00  0.00    +0.110 C 
ATOM      8  N   UNL     1      -0.437  -3.594  -1.173  0.00  0.00    -0.177 NA
ATOM      9  C   UNL     1      -1.540  -3.839  -2.113  0.00  0.00    +0.110 C 
ATOM     10  C   UNL     1      -1.404  -2.862  -3.291  0.00  0.00    +0.030 C 
BRANCH   8  11
ATOM     11  S   UNL     1      -0.743  -3.303   0.428  0.00  0.00    +0.061 S 
ATOM     12  O   UNL     1       0.433  -3.666   1.139  0.00  0.00    -0.153 OA
ATOM     13  O   UNL     1      -2.012  -3.878   0.711  0.00  0.00    -0.153 OA
BRANCH  11  14
ATOM     14  C   UNL     1      -0.926  -1.561   0.615  0.00  0.00    +0.105 A 
ATOM     15  C   UNL     1      -2.173  -0.979   0.483  0.00  0.00    +0.029 A 
ATOM     16  C   UNL     1      -2.317   0.388   0.629  0.00  0.00    +0.005 A 
ATOM     17  C   UNL     1      -1.214   1.173   0.909  0.00  0.00    -0.050 A 
ATOM     18  C   UNL     1       0.033   0.591   1.042  0.00  0.00    +0.005 A 
ATOM     19  C   UNL     1       0.177  -0.776   0.895  0.00  0.00    +0.029 A 
ATOM     20  C   UNL     1      -1.371   2.664   1.069  0.00  0.00    +0.044 C 
ENDBRANCH  11  14
ENDBRANCH   8  11
ENDBRANCH   2   5
BRANCH   1  21
ATOM     21  C   UNL     1      -0.597  -1.297  -7.282  0.00  0.00    +0.093 C 
BRANCH  21  22
ATOM     22  C   UNL     1      -1.551  -1.747  -8.390  0.00  0.00    -0.019 C 
BRANCH  22  23
ATOM     23  C   UNL     1      -1.444  -0.801  -9.559  0.00  0.00    -0.041 A 
ATOM     24  C   UNL     1      -0.771  -1.189 -10.702  0.00  0.00    +0.003 A 
ATOM     25  C   UNL     1      -0.676  -0.324 -11.776  0.00  0.00    +0.000 A 
ATOM     26  C   UNL     1      -1.247   0.933 -11.703  0.00  0.00    +0.001 A 
ATOM     27  C   UNL     1      -1.916   1.324 -10.559  0.00  0.00    +0.020 A 
ATOM     28  C   UNL     1      -2.015   0.457  -9.486  0.00  0.00    +0.043 A 
ATOM     29 CL   UNL     1      -2.854   0.947  -8.047  0.00  0.00    -0.083 Cl
ENDBRANCH  22  23
BRANCH  22  30
ATOM     30  N   UNL     1      -1.197  -3.105  -8.852  0.00  0.00    +0.385 N 
ATOM     31  H   UNL     1      -1.307  -3.150  -9.871  0.00  0.00    -0.081 HD
BRANCH  30  33
ATOM     32  C   UNL     1       1.121  -2.709  -9.519  0.00  0.00    -0.017 C 
ATOM     33  C   UNL     1       0.208  -3.406  -8.507  0.00  0.00    -0.081 C 
ENDBRANCH  30  33
BRANCH  30  34
ATOM     34  C   UNL     1      -2.094  -4.101  -8.228  0.00  0.00    -0.081 C 
ATOM     35  C   UNL     1      -3.453  -4.044  -8.929  0.00  0.00    -0.017 C 
ENDBRANCH  30  34
ENDBRANCH  22  30
ENDBRANCH  21  22
ENDBRANCH   1  21
TORSDOF 9
