REMARK  Name = ZINC03292811
REMARK  6 active torsions:
REMARK  status: ('A' for Active; 'I' for Inactive)
REMARK    1  A    between atoms: C_6  and  C_7
REMARK    2  A    between atoms: C_7  and  N_8
REMARK    3  A    between atoms: C_9  and  C_11
REMARK    4  A    between atoms: C_11  and  N_12
REMARK    5  A    between atoms: N_12  and  C_13
REMARK    6  A    between atoms: C_14  and  C_22
REMARK                            x       y       z     vdW  Elec       q    Type
REMARK                         _______ _______ _______ _____ _____    ______ ____
ROOT
ATOM      1  N   UNL     1      -1.968   6.940  -1.645  0.00  0.00    -0.329 N 
ATOM      2  H   UNL     1      -1.984   7.646  -0.980  0.00  0.00    +0.147 HD
ENDROOT
BRANCH   1   3
ATOM      3  C   UNL     1      -1.624   5.652  -1.278  0.00  0.00    +0.079 A 
ATOM      4  C   UNL     1      -1.273   5.178  -0.020  0.00  0.00    +0.068 A 
ATOM      5  C   UNL     1      -0.952   3.765   0.098  0.00  0.00    -0.023 A 
ATOM      6  C   UNL     1      -1.032   3.059  -1.049  0.00  0.00    -0.005 A 
ATOM      7  S   UNL     1      -1.525   4.239  -2.274  0.00  0.00    -0.078 S 
ATOM      8  C   UNL     1      -0.761   1.597  -1.232  0.00  0.00    +0.043 C 
ATOM      9  C   UNL     1      -0.013   1.086   0.008  0.00  0.00    +0.005 C 
ATOM     10  C   UNL     1      -0.735   1.583   1.264  0.00  0.00    +0.005 C 
ATOM     11  C   UNL     1      -0.552   3.094   1.406  0.00  0.00    +0.037 C 
BRANCH   4  12
ATOM     12  C   UNL     1      -1.228   6.068   1.143  0.00  0.00    +0.244 C 
ATOM     13  O   UNL     1      -2.222   6.225   1.827  0.00  0.00    -0.270 OA
ATOM     14  N   UNL     1      -0.086   6.712   1.454  0.00  0.00    -0.325 N 
ATOM     15  H   UNL     1       0.706   6.587   0.908  0.00  0.00    +0.145 HD
ATOM     16  H   UNL     1      -0.057   7.302   2.224  0.00  0.00    +0.145 HD
ENDBRANCH   4  12
ENDBRANCH   1   3
BRANCH   1  17
ATOM     17  C   UNL     1      -2.309   7.237  -3.038  0.00  0.00    +0.198 C 
BRANCH  17  19
ATOM     18  N   UNL     1      -2.989   9.206  -4.372  0.00  0.00    -0.310 N 
ATOM     19  C   UNL     1      -2.644   8.701  -3.172  0.00  0.00    +0.230 C 
ATOM     20  O   UNL     1      -2.602   9.424  -2.199  0.00  0.00    -0.274 OA
ATOM     21  H   UNL     1      -3.023   8.628  -5.150  0.00  0.00    +0.149 HD
BRANCH  18  22
ATOM     22  C   UNL     1      -3.315  10.629  -4.502  0.00  0.00    +0.139 C 
BRANCH  22  28
ATOM     23  C   UNL     1      -2.677  11.323  -6.820  0.00  0.00    +0.008 A 
ATOM     24  C   UNL     1      -2.996  11.600  -8.136  0.00  0.00    +0.038 A 
ATOM     25  C   UNL     1      -4.308  11.498  -8.565  0.00  0.00    +0.123 A 
ATOM     26  C   UNL     1      -5.298  11.114  -7.677  0.00  0.00    +0.038 A 
ATOM     27  C   UNL     1      -4.976  10.833  -6.363  0.00  0.00    +0.008 A 
ATOM     28  C   UNL     1      -3.665  10.935  -5.935  0.00  0.00    -0.030 A 
ATOM     29  F   UNL     1      -4.622  11.773  -9.850  0.00  0.00    -0.205 F 
ENDBRANCH  22  28
ENDBRANCH  18  22
ENDBRANCH  17  19
ENDBRANCH   1  17
TORSDOF 6
