REMARK  Name = ZINC21463940
REMARK  9 active torsions:
REMARK  status: ('A' for Active; 'I' for Inactive)
REMARK    1  A    between atoms: C_1  and  C_2
REMARK    2  A    between atoms: C_2  and  C_4
REMARK    3  A    between atoms: C_2  and  N_14
REMARK    4  A    between atoms: C_15  and  C_17
REMARK    5  A    between atoms: C_17  and  O_18
REMARK    6  A    between atoms: O_18  and  C_19
REMARK    7  A    between atoms: C_19  and  C_21
REMARK    8  A    between atoms: C_23  and  S_28
REMARK    9  A    between atoms: S_28  and  N_31
REMARK                            x       y       z     vdW  Elec       q    Type
REMARK                         _______ _______ _______ _____ _____    ______ ____
ROOT
ATOM      1  C   UNL     1       3.010  -4.099  -3.710  0.00  0.00    +0.328 C 
ENDROOT
BRANCH   1   3
ATOM      2  N   UNL     1       2.890  -1.926  -2.534  0.00  0.00    -0.309 N 
ATOM      3  C   UNL     1       2.989  -2.592  -3.702  0.00  0.00    +0.251 C 
ATOM      4  O   UNL     1       3.063  -1.979  -4.746  0.00  0.00    -0.272 OA
ATOM      5  H   UNL     1       2.823  -2.482  -1.588  0.00  0.00    +0.149 HD
BRANCH   2   7
ATOM      6  C   UNL     1       4.305   0.068  -2.537  0.00  0.00    +0.028 C 
ATOM      7  C   UNL     1       2.870  -0.461  -2.526  0.00  0.00    +0.076 C 
BRANCH   7   8
ATOM      8  C   UNL     1       2.154   0.032  -1.268  0.00  0.00    -0.010 C 
ATOM      9  C   UNL     1       0.718  -0.497  -1.257  0.00  0.00    +0.012 C 
ATOM     10  C   UNL     1       0.002  -0.004   0.002  0.00  0.00    -0.010 C 
ATOM     11  C   UNL     1      -0.019   1.526   0.010  0.00  0.00    +0.007 C 
ATOM     12  C   UNL     1       1.417   2.055  -0.000  0.00  0.00    -0.010 C 
ATOM     13  C   UNL     1       2.133   1.562  -1.259  0.00  0.00    +0.012 C 
ATOM     14  C   UNL     1       2.157   1.548   1.239  0.00  0.00    +0.007 C 
ATOM     15  C   UNL     1       2.178   0.019   1.231  0.00  0.00    -0.010 C 
ATOM     16  C   UNL     1       0.742  -0.511   1.242  0.00  0.00    +0.007 C 
ATOM     17  C   UNL     1       2.894  -0.475  -0.028  0.00  0.00    +0.012 C 
ENDBRANCH   7   8
ENDBRANCH   2   7
ENDBRANCH   1   3
BRANCH   1  18
ATOM     18  O   UNL     1       3.123  -4.574  -5.078  0.00  0.00    -0.452 OA
BRANCH  18  19
ATOM     19  C   UNL     1       3.154  -5.909  -5.261  0.00  0.00    +0.341 C 
ATOM     20  O   UNL     1       3.090  -6.655  -4.304  0.00  0.00    -0.245 OA
BRANCH  19  21
ATOM     21  C   UNL     1       3.268  -6.464  -6.624  0.00  0.00    +0.079 A 
ATOM     22  C   UNL     1       3.337  -5.609  -7.727  0.00  0.00    +0.045 A 
ATOM     23  C   UNL     1       3.448  -6.134  -8.997  0.00  0.00    +0.106 A 
ATOM     24  C   UNL     1       3.481  -7.506  -9.182  0.00  0.00    +0.030 A 
ATOM     25  C   UNL     1       3.408  -8.359  -8.097  0.00  0.00    +0.023 A 
ATOM     26  C   UNL     1       3.301  -7.847  -6.818  0.00  0.00    +0.055 A 
ATOM     27 CL   UNL     1       3.210  -8.920  -5.456  0.00  0.00    -0.083 Cl
BRANCH  23  28
ATOM     28  S   UNL     1       3.542  -5.057 -10.388  0.00  0.00    +0.056 S 
ATOM     29  O   UNL     1       4.040  -3.816  -9.908  0.00  0.00    -0.153 OA
ATOM     30  O   UNL     1       4.185  -5.786 -11.424  0.00  0.00    -0.153 OA
BRANCH  28  31
ATOM     31  N   UNL     1       1.991  -4.779 -10.897  0.00  0.00    -0.204 NA
ATOM     32  H   UNL     1       2.006  -4.107 -11.768  0.00  0.00    +0.144 HD
ATOM     33  H   UNL     1       1.416  -4.312 -10.084  0.00  0.00    +0.144 HD
ENDBRANCH  28  31
ENDBRANCH  23  28
ENDBRANCH  19  21
ENDBRANCH  18  19
ENDBRANCH   1  18
TORSDOF 8
