REMARK  Name = ZINC39491737
REMARK  13 active torsions:
REMARK  status: ('A' for Active; 'I' for Inactive)
REMARK    1  A    between atoms: C_1  and  O_2
REMARK    2  A    between atoms: O_2  and  C_3
REMARK    3  A    between atoms: C_3  and  C_5
REMARK    4  A    between atoms: C_11  and  C_30
REMARK    5  A    between atoms: N_13  and  C_14
REMARK    6  A    between atoms: C_14  and  C_15
REMARK    7  A    between atoms: C_15  and  C_16
REMARK    8  A    between atoms: C_15  and  C_23
REMARK    9  A    between atoms: C_21  and  O_22
REMARK   10  A    between atoms: C_28  and  O_29
REMARK   11  A    between atoms: C_30  and  N_31
REMARK   12  A    between atoms: N_31  and  C_32
REMARK   13  A    between atoms: C_37  and  O_38
REMARK                            x       y       z     vdW  Elec       q    Type
REMARK                         _______ _______ _______ _____ _____    ______ ____
ROOT
ATOM      1  C   UNL     1       0.791  -2.139  -0.566  0.00  0.00    +0.060 A 
ATOM      2  C   UNL     1       0.186  -2.996   0.365  0.00  0.00    +0.017 A 
ATOM      3  C   UNL     1       0.200  -4.346   0.179  0.00  0.00    +0.027 A 
ATOM      4  C   UNL     1       0.819  -4.894  -0.944  0.00  0.00    +0.049 A 
ATOM      5  C   UNL     1       1.430  -4.044  -1.887  0.00  0.00    +0.005 A 
ATOM      6  C   UNL     1       1.409  -2.665  -1.697  0.00  0.00    +0.025 A 
ATOM      7  C   UNL     1       1.978  -4.920  -2.926  0.00  0.00    -0.005 A 
ATOM      8  C   UNL     1       1.682  -6.180  -2.570  0.00  0.00    +0.092 A 
ATOM      9  N   UNL     1       0.990  -6.182  -1.389  0.00  0.00    -0.345 N 
ENDROOT
BRANCH   1  10
ATOM     10  C   UNL     1       0.767  -0.680  -0.349  0.00  0.00    +0.339 C 
ATOM     11  O   UNL     1       1.287   0.062  -1.158  0.00  0.00    -0.245 OA
BRANCH  10  13
ATOM     12  C   UNL     1       0.184   1.250   0.892  0.00  0.00    +0.280 C 
ATOM     13  O   UNL     1       0.169  -0.172   0.746  0.00  0.00    -0.464 OA
ENDBRANCH  10  13
ENDBRANCH   1  10
BRANCH   9  14
ATOM     14  C   UNL     1       0.505  -7.381  -0.702  0.00  0.00    +0.135 C 
BRANCH  14  15
ATOM     15  C   UNL     1      -0.951  -7.641  -1.096  0.00  0.00    +0.076 C 
BRANCH  15  16
ATOM     16  C   UNL     1      -1.022  -7.967  -2.565  0.00  0.00    +0.003 A 
ATOM     17  C   UNL     1      -0.240  -8.979  -3.088  0.00  0.00    +0.008 A 
ATOM     18  C   UNL     1      -0.305  -9.279  -4.436  0.00  0.00    +0.001 A 
ATOM     19  C   UNL     1      -1.153  -8.568  -5.264  0.00  0.00    +0.004 A 
ATOM     20  C   UNL     1      -1.938  -7.555  -4.747  0.00  0.00    +0.046 A 
ATOM     21  C   UNL     1      -1.878  -7.256  -3.393  0.00  0.00    +0.121 A 
BRANCH  21  22
ATOM     22  O   UNL     1      -2.653  -6.264  -2.881  0.00  0.00    -0.506 OA
ATOM     23  H   UNL     1      -2.235  -5.392  -2.894  0.00  0.00    +0.292 HD
ENDBRANCH  21  22
ENDBRANCH  15  16
BRANCH  15  24
ATOM     24  C   UNL     1      -1.488  -8.800  -0.297  0.00  0.00    +0.003 A 
ATOM     25  C   UNL     1      -0.814 -10.006  -0.288  0.00  0.00    +0.008 A 
ATOM     26  C   UNL     1      -1.306 -11.069   0.445  0.00  0.00    +0.001 A 
ATOM     27  C   UNL     1      -2.476 -10.930   1.170  0.00  0.00    +0.004 A 
ATOM     28  C   UNL     1      -3.154  -9.727   1.165  0.00  0.00    +0.046 A 
ATOM     29  C   UNL     1      -2.658  -8.656   0.434  0.00  0.00    +0.121 A 
BRANCH  29  30
ATOM     30  O   UNL     1      -3.321  -7.469   0.432  0.00  0.00    -0.506 OA
ATOM     31  H   UNL     1      -3.982  -7.390  -0.269  0.00  0.00    +0.292 HD
ENDBRANCH  29  30
ENDBRANCH  15  24
ENDBRANCH  14  15
ENDBRANCH   9  14
BRANCH   7  32
ATOM     32  C   UNL     1       2.729  -4.489  -4.159  0.00  0.00    +0.139 C 
BRANCH  32  33
ATOM     33  N   UNL     1       4.121  -4.201  -3.807  0.00  0.00    -0.337 N 
ATOM     34  H   UNL     1       4.420  -4.302  -2.889  0.00  0.00    +0.147 HD
BRANCH  33  35
ATOM     35  C   UNL     1       5.020  -3.780  -4.793  0.00  0.00    +0.069 A 
ATOM     36  C   UNL     1       4.593  -3.629  -6.104  0.00  0.00    +0.026 A 
ATOM     37  C   UNL     1       5.482  -3.212  -7.077  0.00  0.00    +0.002 A 
ATOM     38  C   UNL     1       6.798  -2.945  -6.746  0.00  0.00    +0.004 A 
ATOM     39  C   UNL     1       7.231  -3.093  -5.441  0.00  0.00    +0.047 A 
ATOM     40  C   UNL     1       6.345  -3.505  -4.460  0.00  0.00    +0.138 A 
BRANCH  40  41
ATOM     41  O   UNL     1       6.768  -3.646  -3.175  0.00  0.00    -0.505 OA
ATOM     42  H   UNL     1       7.106  -4.528  -2.967  0.00  0.00    +0.292 HD
ENDBRANCH  40  41
ENDBRANCH  33  35
ENDBRANCH  32  33
ENDBRANCH   7  32
TORSDOF 12
