REMARK  Name = ZINC09244246
REMARK  14 active torsions:
REMARK  status: ('A' for Active; 'I' for Inactive)
REMARK    1  A    between atoms: C_1  and  C_2
REMARK    2  A    between atoms: C_2  and  N_71
REMARK    3  A    between atoms: C_3  and  C_4
REMARK    4  A    between atoms: C_3  and  N_71
REMARK    5  A    between atoms: C_5  and  C_6
REMARK    6  A    between atoms: C_5  and  N_71
REMARK    7  A    between atoms: C_6  and  C_7
REMARK    8  A    between atoms: C_7  and  N_8
REMARK    9  A    between atoms: C_9  and  C_28
REMARK   10  A    between atoms: C_12  and  C_13
REMARK   11  A    between atoms: C_12  and  O_23
REMARK   12  A    between atoms: C_32  and  O_34
REMARK   13  A    between atoms: O_34  and  C_35
REMARK   14  A    between atoms: C_35  and  C_36
REMARK                            x       y       z     vdW  Elec       q    Type
REMARK                         _______ _______ _______ _____ _____    ______ ____
ROOT
ATOM      1  N   UNL     1      -7.266   0.518   0.181  0.00  0.00    -0.284 N 
ATOM      2  C   UNL     1      -6.289  -0.567   0.056  0.00  0.00    +0.145 C 
ATOM      3  C   UNL     1      -4.937   0.086  -0.116  0.00  0.00    +0.071 C 
ATOM      4  C   UNL     1      -3.721  -0.552  -0.270  0.00  0.00    +0.133 C 
ATOM      5  C   UNL     1      -5.165   1.469  -0.080  0.00  0.00    +0.249 C 
ATOM      6  O   UNL     1      -4.315   2.336  -0.181  0.00  0.00    -0.282 OA
ATOM      7  C   UNL     1      -6.624   1.695   0.100  0.00  0.00    +0.288 C 
ATOM      8  O   UNL     1      -7.156   2.785   0.168  0.00  0.00    -0.266 OA
ENDROOT
BRANCH   4   9
ATOM      9  C   UNL     1      -2.516   0.230  -0.586  0.00  0.00    +0.021 A 
ATOM     10  C   UNL     1      -2.487   1.050  -1.720  0.00  0.00    +0.015 A 
ATOM     11  C   UNL     1      -1.356   1.777  -2.014  0.00  0.00    +0.050 A 
ATOM     12  C   UNL     1      -0.241   1.705  -1.185  0.00  0.00    +0.162 A 
ATOM     13  C   UNL     1      -0.263   0.892  -0.053  0.00  0.00    +0.163 A 
ATOM     14  C   UNL     1      -1.393   0.156   0.246  0.00  0.00    +0.061 A 
ATOM     15  O   UNL     1       0.820   0.813   0.767  0.00  0.00    -0.485 OA
ATOM     16  C   UNL     1       2.066   1.273   0.234  0.00  0.00    +0.270 C 
ATOM     17  C   UNL     1       1.825   2.624  -0.452  0.00  0.00    +0.270 C 
ATOM     18  O   UNL     1       0.865   2.432  -1.497  0.00  0.00    -0.485 OA
ENDBRANCH   4   9
BRANCH   2  19
ATOM     19  C   UNL     1      -6.609  -1.415  -1.149  0.00  0.00    -0.019 A 
ATOM     20  C   UNL     1      -7.059  -0.819  -2.313  0.00  0.00    +0.006 A 
ATOM     21  C   UNL     1      -7.353  -1.594  -3.420  0.00  0.00    +0.004 A 
ATOM     22  C   UNL     1      -7.197  -2.966  -3.365  0.00  0.00    +0.045 A 
ATOM     23  C   UNL     1      -6.747  -3.566  -2.198  0.00  0.00    +0.121 A 
ATOM     24  C   UNL     1      -6.448  -2.785  -1.090  0.00  0.00    +0.051 A 
BRANCH  23  25
ATOM     25  O   UNL     1      -6.593  -4.915  -2.142  0.00  0.00    -0.488 OA
BRANCH  25  26
ATOM     26  C   UNL     1      -6.914  -5.654  -3.322  0.00  0.00    +0.256 C 
BRANCH  26  27
ATOM     27  C   UNL     1      -6.683  -7.122  -3.073  0.00  0.00    +0.006 C 
ATOM     28  C   UNL     1      -7.575  -8.000  -3.461  0.00  0.00    +0.007 C 
ENDBRANCH  26  27
ENDBRANCH  25  26
ENDBRANCH  23  25
ENDBRANCH   2  19
BRANCH   4  29
ATOM     29  O   UNL     1      -3.640  -1.893  -0.132  0.00  0.00    -0.506 OA
ATOM     30  H   UNL     1      -2.694  -2.185  -0.275  0.00  0.00    +0.292 HD
ENDBRANCH   4  29
BRANCH   1  31
ATOM     31  C   UNL     1      -8.710   0.347   0.364  0.00  0.00    +0.107 C 
BRANCH  31  32
ATOM     32  C   UNL     1      -9.030   0.286   1.859  0.00  0.00    +0.000 C 
BRANCH  32  33
ATOM     33  C   UNL     1     -10.538   0.108   2.050  0.00  0.00    -0.077 C 
BRANCH  33  34
ATOM     34  N   UNL     1     -10.829   0.029   3.497  0.00  0.00    +0.379 N 
ATOM     35  H   UNL     1     -10.221  -0.681   3.922  0.00  0.00    -0.082 HD
BRANCH  34  37
ATOM     36  C   UNL     1     -11.480   2.413   3.562  0.00  0.00    -0.017 C 
ATOM     37  C   UNL     1     -10.560   1.334   4.138  0.00  0.00    -0.082 C 
ENDBRANCH  34  37
BRANCH  34  38
ATOM     38  C   UNL     1     -12.240  -0.356   3.709  0.00  0.00    -0.082 C 
ATOM     39  C   UNL     1     -12.422  -0.774   5.170  0.00  0.00    -0.017 C 
ENDBRANCH  34  38
ENDBRANCH  33  34
ENDBRANCH  32  33
ENDBRANCH  31  32
ENDBRANCH   1  31
TORSDOF 12
