REMARK  Name = ZINC58761798
REMARK  11 active torsions:
REMARK  status: ('A' for Active; 'I' for Inactive)
REMARK    1  A    between atoms: C_1  and  C_2
REMARK    2  A    between atoms: C_2  and  C_3
REMARK    3  A    between atoms: C_2  and  C_4
REMARK    4  A    between atoms: C_4  and  C_5
REMARK    5  A    between atoms: C_5  and  C_7
REMARK    6  A    between atoms: C_5  and  N_23
REMARK    7  A    between atoms: N_9  and  C_10
REMARK    8  A    between atoms: C_17  and  C_19
REMARK    9  A    between atoms: C_19  and  C_20
REMARK   10  A    between atoms: C_19  and  C_21
REMARK   11  A    between atoms: C_19  and  C_22
REMARK                            x       y       z     vdW  Elec       q    Type
REMARK                         _______ _______ _______ _____ _____    ______ ____
ROOT
ATOM      1  C   UNL     1      -3.583  -0.544  -1.225  0.00  0.00    +0.238 C 
ATOM      2  O   UNL     1      -3.950  -1.553  -1.790  0.00  0.00    -0.273 OA
ATOM      3  N   UNL     1      -4.471   0.210  -0.548  0.00  0.00    -0.284 N 
ATOM      4  H   UNL     1      -4.168   0.980  -0.041  0.00  0.00    +0.155 HD
ENDROOT
BRANCH   3   5
ATOM      5  C   UNL     1      -5.833  -0.116  -0.577  0.00  0.00    +0.036 A 
ATOM      6  C   UNL     1      -6.226  -1.452  -0.611  0.00  0.00    +0.027 A 
ATOM      7  C   UNL     1      -7.563  -1.786  -0.640  0.00  0.00    +0.050 A 
ATOM      8  C   UNL     1      -8.526  -0.789  -0.635  0.00  0.00    +0.155 A 
ATOM      9  C   UNL     1      -8.139   0.559  -0.601  0.00  0.00    +0.111 A 
ATOM     10  C   UNL     1      -6.783   0.889  -0.567  0.00  0.00    +0.055 A 
ATOM     11  N   UNL     1      -9.285   1.292  -0.606  0.00  0.00    -0.213 NA
ATOM     12  C   UNL     1     -10.300   0.482  -0.640  0.00  0.00    +0.202 A 
ATOM     13  O   UNL     1      -9.878  -0.792  -0.658  0.00  0.00    -0.439 OA
BRANCH  12  14
ATOM     14  C   UNL     1     -11.745   0.911  -0.656  0.00  0.00    +0.039 C 
ATOM     15  C   UNL     1     -12.007   1.772  -1.893  0.00  0.00    +0.020 C 
ATOM     16  C   UNL     1     -12.644  -0.327  -0.697  0.00  0.00    +0.020 C 
ATOM     17  C   UNL     1     -12.050   1.722   0.605  0.00  0.00    +0.020 C 
ENDBRANCH  12  14
ENDBRANCH   3   5
BRANCH   1  18
ATOM     18  C   UNL     1      -2.134  -0.135  -1.280  0.00  0.00    +0.161 C 
BRANCH  18  19
ATOM     19  N   UNL     1      -1.483  -0.794  -2.414  0.00  0.00    -0.288 N 
ATOM     20  C   UNL     1      -1.443  -2.140  -2.479  0.00  0.00    +0.298 C 
ATOM     21  O   UNL     1      -1.948  -2.806  -1.597  0.00  0.00    -0.253 OA
ATOM     22  N   UNL     1      -0.844  -2.747  -3.523  0.00  0.00    -0.313 N 
ATOM     23  H   UNL     1      -1.080  -0.263  -3.118  0.00  0.00    +0.151 HD
ATOM     24  H   UNL     1      -0.441  -2.215  -4.227  0.00  0.00    +0.146 HD
ATOM     25  H   UNL     1      -0.816  -3.715  -3.570  0.00  0.00    +0.146 HD
ENDBRANCH  18  19
BRANCH  18  26
ATOM     26  C   UNL     1      -1.438  -0.547   0.018  0.00  0.00    +0.034 C 
BRANCH  26  28
ATOM     27  C   UNL     1      -0.016   1.508   0.033  0.00  0.00    +0.007 C 
ATOM     28  C   UNL     1      -0.001  -0.022   0.016  0.00  0.00    -0.015 C 
ATOM     29  C   UNL     1       0.734  -0.539   1.255  0.00  0.00    +0.007 C 
ENDBRANCH  26  28
ENDBRANCH  18  26
ENDBRANCH   1  18
TORSDOF 6
