REMARK  Name = ZINC59409111
REMARK  7 active torsions:
REMARK  status: ('A' for Active; 'I' for Inactive)
REMARK    1  A    between atoms: C_4  and  C_7
REMARK    2  A    between atoms: C_7  and  N_8
REMARK    3  A    between atoms: N_8  and  C_9
REMARK    4  A    between atoms: N_8  and  C_25
REMARK    5  A    between atoms: C_9  and  C_10
REMARK    6  A    between atoms: N_12  and  C_13
REMARK    7  A    between atoms: C_14  and  C_22
REMARK                            x       y       z     vdW  Elec       q    Type
REMARK                         _______ _______ _______ _____ _____    ______ ____
ROOT
ATOM      1  C   UNL     1       3.808  -3.958  -3.519  0.00  0.00    +0.201 C 
ATOM      2  O   UNL     1       3.353  -4.518  -2.544  0.00  0.00    -0.278 OA
ATOM      3  N   UNL     1       4.365  -4.680  -4.512  0.00  0.00    -0.281 N 
ATOM      4  H   UNL     1       4.729  -4.233  -5.292  0.00  0.00    +0.155 HD
ENDROOT
BRANCH   3   5
ATOM      5  C   UNL     1       4.417  -6.063  -4.419  0.00  0.00    +0.084 A 
ATOM      6  C   UNL     1       4.952  -6.959  -5.331  0.00  0.00    +0.068 A 
ATOM      7  C   UNL     1       4.881  -8.370  -4.995  0.00  0.00    -0.023 A 
ATOM      8  C   UNL     1       4.289  -8.627  -3.809  0.00  0.00    -0.004 A 
ATOM      9  S   UNL     1       3.854  -7.035  -3.171  0.00  0.00    -0.077 S 
ATOM     10  C   UNL     1       4.064  -9.970  -3.187  0.00  0.00    +0.043 C 
ATOM     11  C   UNL     1       4.268 -11.042  -4.269  0.00  0.00    +0.005 C 
ATOM     12  C   UNL     1       5.574 -10.751  -5.014  0.00  0.00    +0.005 C 
ATOM     13  C   UNL     1       5.416  -9.493  -5.871  0.00  0.00    +0.037 C 
BRANCH   6  14
ATOM     14  C   UNL     1       5.563  -6.501  -6.583  0.00  0.00    +0.244 C 
ATOM     15  O   UNL     1       6.752  -6.244  -6.621  0.00  0.00    -0.270 OA
ATOM     16  N   UNL     1       4.808  -6.366  -7.691  0.00  0.00    -0.325 N 
ATOM     17  H   UNL     1       3.860  -6.571  -7.660  0.00  0.00    +0.145 HD
ATOM     18  H   UNL     1       5.212  -6.063  -8.519  0.00  0.00    +0.145 HD
ENDBRANCH   6  14
ENDBRANCH   3   5
BRANCH   1  19
ATOM     19  C   UNL     1       3.751  -2.456  -3.621  0.00  0.00    +0.019 C 
BRANCH  19  20
ATOM     20  N   UNL     1       3.102  -1.908  -2.422  0.00  0.00    +0.387 N 
ATOM     21  H   UNL     1       2.197  -2.338  -2.304  0.00  0.00    -0.081 HD
BRANCH  20  22
ATOM     22  C   UNL     1       3.935  -2.187  -1.244  0.00  0.00    -0.068 C 
ATOM     23  C   UNL     1       3.496  -3.326  -0.323  0.00  0.00    -0.017 C 
ATOM     24  C   UNL     1       3.341  -1.873   0.130  0.00  0.00    -0.017 C 
ENDBRANCH  20  22
BRANCH  20  25
ATOM     25  C   UNL     1       2.939  -0.456  -2.574  0.00  0.00    -0.074 C 
BRANCH  25  29
ATOM     26  C   UNL     1      -0.313   1.409  -0.412  0.00  0.00    +0.000 C 
ATOM     27  C   UNL     1       1.036   2.130  -0.449  0.00  0.00    +0.000 C 
ATOM     28  C   UNL     1       1.873   1.587  -1.609  0.00  0.00    +0.002 C 
ATOM     29  C   UNL     1       2.102   0.087  -1.414  0.00  0.00    -0.028 C 
ATOM     30  C   UNL     1       0.753  -0.634  -1.377  0.00  0.00    +0.002 C 
ATOM     31  C   UNL     1      -0.084  -0.091  -0.217  0.00  0.00    +0.000 C 
ENDBRANCH  25  29
ENDBRANCH  20  25
ENDBRANCH  19  20
ENDBRANCH   1  19
TORSDOF 7
