REMARK  Name = ZINC57049692
REMARK  12 active torsions:
REMARK  status: ('A' for Active; 'I' for Inactive)
REMARK    1  A    between atoms: C_1  and  C_2
REMARK    2  A    between atoms: C_5  and  O_8
REMARK    3  A    between atoms: O_8  and  C_9
REMARK    4  A    between atoms: C_9  and  C_10
REMARK    5  A    between atoms: C_10  and  C_11
REMARK    6  A    between atoms: C_11  and  O_12
REMARK    7  A    between atoms: O_12  and  C_13
REMARK    8  A    between atoms: C_14  and  C_33
REMARK    9  A    between atoms: C_16  and  C_21
REMARK   10  A    between atoms: C_18  and  O_19
REMARK   11  A    between atoms: O_19  and  C_20
REMARK   12  A    between atoms: C_33  and  C_34
REMARK                            x       y       z     vdW  Elec       q    Type
REMARK                         _______ _______ _______ _____ _____    ______ ____
ROOT
ATOM      1  C   UNL     1       0.177  -9.381   3.848  0.00  0.00    +0.165 A 
ATOM      2  C   UNL     1       1.368 -10.035   4.138  0.00  0.00    +0.002 A 
ATOM      3  C   UNL     1       1.433 -10.922   5.189  0.00  0.00    +0.015 A 
ATOM      4  C   UNL     1       0.294 -11.166   5.970  0.00  0.00    -0.020 A 
ATOM      5  C   UNL     1      -0.906 -10.505   5.676  0.00  0.00    +0.057 A 
ATOM      6  C   UNL     1      -0.959  -9.614   4.623  0.00  0.00    +0.162 A 
ENDROOT
BRANCH   4   7
ATOM      7  C   UNL     1       0.359 -12.109   7.089  0.00  0.00    +0.024 C 
ATOM      8  C   UNL     1       1.500 -12.190   7.855  0.00  0.00    +0.081 C 
ATOM      9  C   UNL     1       1.686 -13.259   8.877  0.00  0.00    +0.144 C 
ATOM     10  N   UNL     1       0.706 -13.752   9.588  0.00  0.00    -0.282 NA
ATOM     11  N   UNL     1       3.023 -13.688   9.002  0.00  0.00    -0.285 N 
ATOM     12  C   UNL     1       3.329 -14.892   9.352  0.00  0.00    +0.079 C 
ATOM     13  C   UNL     1       4.811 -15.229   9.443  0.00  0.00    +0.122 C 
ATOM     14  S   UNL     1       5.510 -13.534   9.235  0.00  0.00    -0.084 S 
ATOM     15  C   UNL     1       4.002 -12.767   8.684  0.00  0.00    +0.167 C 
ATOM     16  N   UNL     1       3.844 -11.606   8.103  0.00  0.00    -0.152 NA
ATOM     17  C   UNL     1       2.614 -11.223   7.704  0.00  0.00    +0.273 C 
ATOM     18  O   UNL     1       2.425 -10.113   7.237  0.00  0.00    -0.268 OA
ATOM     19  H   UNL     1      -0.198 -13.421   9.462  0.00  0.00    +0.188 HD
ENDBRANCH   4   7
BRANCH   6  20
ATOM     20  O   UNL     1      -2.121  -8.966   4.338  0.00  0.00    -0.491 OA
ATOM     21  C   UNL     1      -3.244  -9.252   5.173  0.00  0.00    +0.277 C 
ENDBRANCH   6  20
BRANCH   1  22
ATOM     22  O   UNL     1       0.120  -8.509   2.809  0.00  0.00    -0.488 OA
BRANCH  22  23
ATOM     23  C   UNL     1      -0.353  -9.016   1.560  0.00  0.00    +0.232 C 
BRANCH  23  24
ATOM     24  C   UNL     1      -0.463  -7.870   0.552  0.00  0.00    +0.082 C 
BRANCH  24  25
ATOM     25  C   UNL     1      -0.971  -8.414  -0.785  0.00  0.00    +0.232 C 
BRANCH  25  26
ATOM     26  O   UNL     1      -1.073  -7.344  -1.726  0.00  0.00    -0.492 OA
BRANCH  26  31
ATOM     27  C   UNL     1      -2.892  -8.649  -6.894  0.00  0.00    +0.044 C 
ATOM     28  C   UNL     1      -2.406  -8.300  -5.511  0.00  0.00    -0.050 A 
ATOM     29  C   UNL     1      -2.083  -6.991  -5.204  0.00  0.00    +0.007 A 
ATOM     30  C   UNL     1      -1.636  -6.668  -3.937  0.00  0.00    +0.046 A 
ATOM     31  C   UNL     1      -1.513  -7.659  -2.973  0.00  0.00    +0.121 A 
ATOM     32  C   UNL     1      -1.838  -8.971  -3.284  0.00  0.00    +0.046 A 
ATOM     33  C   UNL     1      -2.289  -9.287  -4.551  0.00  0.00    +0.007 A 
ENDBRANCH  26  31
ENDBRANCH  25  26
ENDBRANCH  24  25
ENDBRANCH  23  24
ENDBRANCH  22  23
ENDBRANCH   1  22
BRANCH   2  34
ATOM     34  C   UNL     1       2.593  -9.774   3.299  0.00  0.00    +0.065 C 
BRANCH  34  35
ATOM     35  C   UNL     1       3.309  -8.555   3.821  0.00  0.00    -0.030 C 
ATOM     36  C   UNL     1       4.551  -8.649   4.228  0.00  0.00    +0.004 C 
ENDBRANCH  34  35
ENDBRANCH   2  34
TORSDOF 10
