REMARK  Name = ZINC39431156
REMARK  6 active torsions:
REMARK  status: ('A' for Active; 'I' for Inactive)
REMARK    1  A    between atoms: C_1  and  C_2
REMARK    2  A    between atoms: C_2  and  C_4
REMARK    3  A    between atoms: C_2  and  S_16
REMARK    4  A    between atoms: S_16  and  C_17
REMARK    5  A    between atoms: C_21  and  C_31
REMARK    6  A    between atoms: N_23  and  C_24
REMARK                            x       y       z     vdW  Elec       q    Type
REMARK                         _______ _______ _______ _____ _____    ______ ____
ROOT
ATOM      1  C   UNL     1       2.355   0.109  -1.271  0.00  0.00    +0.274 C 
ATOM      2  N   UNL     1       3.055  -0.495  -0.136  0.00  0.00    -0.180 NA
ATOM      3  N   UNL     1       3.357   0.342   0.713  0.00  0.00    -0.286 N 
ATOM      4  C   UNL     1       2.923   1.686   0.329  0.00  0.00    +0.218 C 
ATOM      5  N   UNL     1       2.260   1.551  -0.981  0.00  0.00    -0.273 N 
ATOM      6  H   UNL     1       3.824   0.136   1.537  0.00  0.00    +0.185 HD
ENDROOT
BRANCH   5   7
ATOM      7  C   UNL     1       1.677   2.552  -1.763  0.00  0.00    +0.034 A 
ATOM      8  C   UNL     1       1.768   3.882  -1.371  0.00  0.00    +0.026 A 
ATOM      9  C   UNL     1       1.192   4.870  -2.146  0.00  0.00    +0.040 A 
ATOM     10  C   UNL     1       0.524   4.536  -3.312  0.00  0.00    +0.124 A 
ATOM     11  C   UNL     1       0.432   3.211  -3.704  0.00  0.00    +0.040 A 
ATOM     12  C   UNL     1       1.011   2.220  -2.936  0.00  0.00    +0.026 A 
ATOM     13  F   UNL     1      -0.039   5.504  -4.068  0.00  0.00    -0.205 F 
ENDBRANCH   5   7
BRANCH   4  14
ATOM     14  C   UNL     1       1.954   2.228   1.349  0.00  0.00    -0.006 A 
ATOM     15  C   UNL     1       0.729   1.615   1.531  0.00  0.00    +0.010 A 
ATOM     16  C   UNL     1      -0.160   2.110   2.466  0.00  0.00    +0.039 A 
ATOM     17  C   UNL     1       0.177   3.222   3.220  0.00  0.00    +0.123 A 
ATOM     18  C   UNL     1       1.404   3.835   3.036  0.00  0.00    +0.039 A 
ATOM     19  C   UNL     1       2.294   3.335   2.104  0.00  0.00    +0.010 A 
ATOM     20  F   UNL     1      -0.692   3.707   4.133  0.00  0.00    -0.205 F 
ENDBRANCH   4  14
BRANCH   1  21
ATOM     21  S   UNL     1       0.695  -0.605  -1.431  0.00  0.00    -0.103 S 
BRANCH  21  23
ATOM     22  C   UNL     1       1.744  -3.128  -1.289  0.00  0.00    +0.027 C 
ATOM     23  C   UNL     1       0.982  -2.203  -2.240  0.00  0.00    +0.113 C 
BRANCH  23  24
ATOM     24  C   UNL     1      -0.342  -2.830  -2.597  0.00  0.00    +0.123 A 
ATOM     25  N   UNL     1      -0.341  -4.085  -3.116  0.00  0.00    -0.309 N 
ATOM     26  H   UNL     1       0.500  -4.551  -3.247  0.00  0.00    +0.170 HD
ATOM     27  C   UNL     1      -1.503  -4.692  -3.452  0.00  0.00    +0.259 A 
ATOM     28  O   UNL     1      -1.518  -5.817  -3.918  0.00  0.00    -0.267 OA
ATOM     29  C   UNL     1      -2.748  -3.940  -3.233  0.00  0.00    +0.065 A 
ATOM     30  C   UNL     1      -3.996  -4.474  -3.546  0.00  0.00    +0.015 A 
ATOM     31  C   UNL     1      -5.130  -3.725  -3.321  0.00  0.00    +0.001 A 
ATOM     32  C   UNL     1      -5.038  -2.447  -2.786  0.00  0.00    +0.002 A 
ATOM     33  C   UNL     1      -3.814  -1.901  -2.471  0.00  0.00    +0.028 A 
ATOM     34  C   UNL     1      -2.650  -2.641  -2.689  0.00  0.00    +0.078 A 
ATOM     35  N   UNL     1      -1.424  -2.144  -2.388  0.00  0.00    -0.233 NA
ENDBRANCH  23  24
ENDBRANCH  21  23
ENDBRANCH   1  21
TORSDOF 5
