REMARK  Name = ZINC23469530
REMARK  12 active torsions:
REMARK  status: ('A' for Active; 'I' for Inactive)
REMARK    1  A    between atoms: C_1  and  C_2
REMARK    2  A    between atoms: C_2  and  C_4
REMARK    3  A    between atoms: C_2  and  O_26
REMARK    4  A    between atoms: C_4  and  N_5
REMARK    5  A    between atoms: N_5  and  C_6
REMARK    6  A    between atoms: C_6  and  C_7
REMARK    7  A    between atoms: C_7  and  N_8
REMARK    8  A    between atoms: N_8  and  C_9
REMARK    9  A    between atoms: C_9  and  C_10
REMARK   10  A    between atoms: C_15  and  O_16
REMARK   11  A    between atoms: O_16  and  C_17
REMARK   12  A    between atoms: C_17  and  C_18
REMARK                            x       y       z     vdW  Elec       q    Type
REMARK                         _______ _______ _______ _____ _____    ______ ____
ROOT
ATOM      1  C   UNL     1       2.953  -6.451   4.818  0.00  0.00    -0.022 A 
ATOM      2  C   UNL     1       4.271  -6.853   4.720  0.00  0.00    +0.020 A 
ATOM      3  C   UNL     1       4.940  -7.312   5.840  0.00  0.00    +0.018 A 
ATOM      4  C   UNL     1       4.292  -7.368   7.061  0.00  0.00    +0.019 A 
ATOM      5  C   UNL     1       2.974  -6.966   7.164  0.00  0.00    +0.047 A 
ATOM      6  C   UNL     1       2.302  -6.501   6.042  0.00  0.00    +0.122 A 
ATOM      7 BR   UNL     1       6.744  -7.863   5.703  0.00  0.00    -0.050 Br
ENDROOT
BRANCH   1   8
ATOM      8  C   UNL     1       2.224  -5.952   3.597  0.00  0.00    -0.043 C 
BRANCH   8   9
ATOM      9  N   UNL     1       2.204  -4.483   3.605  0.00  0.00    +0.381 N 
ATOM     10  H   UNL     1       3.150  -4.134   3.598  0.00  0.00    -0.086 HD
ATOM     11  H   UNL     1       1.731  -4.157   4.435  0.00  0.00    -0.086 HD
BRANCH   9  12
ATOM     12  C   UNL     1       1.493  -3.996   2.415  0.00  0.00    -0.102 C 
BRANCH  12  13
ATOM     13  C   UNL     1       1.472  -2.466   2.424  0.00  0.00    -0.102 C 
BRANCH  13  14
ATOM     14  N   UNL     1       0.762  -1.980   1.234  0.00  0.00    +0.379 N 
ATOM     15  H   UNL     1      -0.185  -2.329   1.241  0.00  0.00    -0.086 HD
ATOM     16  H   UNL     1       1.234  -2.305   0.403  0.00  0.00    -0.086 HD
BRANCH  14  17
ATOM     17  C   UNL     1       0.742  -0.511   1.242  0.00  0.00    -0.051 C 
BRANCH  17  19
ATOM     18  C   UNL     1      -0.019   1.526   0.010  0.00  0.00    +0.035 C 
ATOM     19  C   UNL     1       0.002  -0.004   0.002  0.00  0.00    +0.095 C 
BRANCH  19  20
ATOM     20  O   UNL     1       0.671  -0.465  -1.174  0.00  0.00    -0.394 OA
ATOM     21  H   UNL     1       1.588  -0.167  -1.247  0.00  0.00    +0.210 HD
ENDBRANCH  19  20
ENDBRANCH  17  19
ENDBRANCH  14  17
ENDBRANCH  13  14
ENDBRANCH  12  13
ENDBRANCH   9  12
ENDBRANCH   8   9
ENDBRANCH   1   8
BRANCH   6  22
ATOM     22  O   UNL     1       1.007  -6.101   6.142  0.00  0.00    -0.487 OA
BRANCH  22  23
ATOM     23  C   UNL     1       0.402  -6.180   7.434  0.00  0.00    +0.266 C 
BRANCH  23  24
ATOM     24  C   UNL     1      -1.024  -5.698   7.351  0.00  0.00    +0.008 A 
ATOM     25  C   UNL     1      -1.542  -5.277   6.140  0.00  0.00    +0.008 A 
ATOM     26  C   UNL     1      -2.849  -4.834   6.063  0.00  0.00    +0.000 A 
ATOM     27  C   UNL     1      -3.640  -4.813   7.197  0.00  0.00    +0.001 A 
ATOM     28  C   UNL     1      -3.123  -5.234   8.408  0.00  0.00    +0.020 A 
ATOM     29  C   UNL     1      -1.816  -5.683   8.484  0.00  0.00    +0.047 A 
ATOM     30 CL   UNL     1      -1.169  -6.218  10.004  0.00  0.00    -0.083 Cl
ENDBRANCH  23  24
ENDBRANCH  22  23
ENDBRANCH   6  22
TORSDOF 11
