REMARK  Name = ZINC02488261
REMARK  5 active torsions:
REMARK  status: ('A' for Active; 'I' for Inactive)
REMARK    1  A    between atoms: C_1  and  O_2
REMARK    2  A    between atoms: O_2  and  C_3
REMARK    3  A    between atoms: C_6  and  O_21
REMARK    4  A    between atoms: C_7  and  N_9
REMARK    5  A    between atoms: O_21  and  C_22
REMARK                            x       y       z     vdW  Elec       q    Type
REMARK                         _______ _______ _______ _____ _____    ______ ____
ROOT
ATOM      1  N   UNL     1       1.325  -3.974  -2.293  0.00  0.00    -0.215 NA
ATOM      2  C   UNL     1       0.879  -4.705  -1.299  0.00  0.00    +0.189 C 
ATOM      3  N   UNL     1       1.009  -6.087  -1.288  0.00  0.00    -0.296 N 
ATOM      4  C   UNL     1      -0.156  -6.862  -0.845  0.00  0.00    +0.101 C 
ATOM      5  C   UNL     1      -1.200  -6.934  -1.970  0.00  0.00    +0.045 C 
ATOM      6  C   UNL     1      -0.923  -8.297  -2.655  0.00  0.00    +0.004 C 
ATOM      7  C   UNL     1      -0.559  -9.214  -1.460  0.00  0.00    +0.004 C 
ATOM      8  C   UNL     1       0.257  -8.302  -0.518  0.00  0.00    +0.045 C 
ATOM      9  N   UNL     1      -0.736  -6.218   0.340  0.00  0.00    -0.298 N 
ATOM     10  C   UNL     1      -0.848  -4.833   0.313  0.00  0.00    +0.159 C 
ATOM     11  N   UNL     1       0.254  -4.138  -0.192  0.00  0.00    -0.262 N 
ATOM     12  N   UNL     1      -1.915  -4.219   0.738  0.00  0.00    -0.375 N 
ATOM     13  H   UNL     1      -1.029  -6.735   1.106  0.00  0.00    +0.151 HD
ATOM     14  H   UNL     1      -2.662  -4.730   1.086  0.00  0.00    +0.158 HD
ATOM     15  H   UNL     1       1.833  -6.521  -1.561  0.00  0.00    +0.151 HD
ATOM     16  H   UNL     1       0.565  -3.308   0.203  0.00  0.00    +0.157 HD
ATOM     17  H   UNL     1      -1.963  -3.251   0.706  0.00  0.00    +0.158 HD
ENDROOT
BRANCH   1  22
ATOM     18  C   UNL     1      -0.466  -0.788  -2.150  0.00  0.00    +0.122 A 
ATOM     19  C   UNL     1       0.575   0.103  -2.373  0.00  0.00    +0.049 A 
ATOM     20  C   UNL     1       1.863  -0.364  -2.569  0.00  0.00    +0.051 A 
ATOM     21  C   UNL     1       2.121  -1.722  -2.543  0.00  0.00    +0.146 A 
ATOM     22  C   UNL     1       1.076  -2.626  -2.319  0.00  0.00    +0.112 A 
ATOM     23  C   UNL     1      -0.219  -2.150  -2.116  0.00  0.00    +0.077 A 
BRANCH  18  25
ATOM     24  C   UNL     1      -1.911   1.095  -2.007  0.00  0.00    +0.277 C 
ATOM     25  O   UNL     1      -1.728  -0.322  -1.959  0.00  0.00    -0.495 OA
ENDBRANCH  18  25
BRANCH  21  26
ATOM     26  O   UNL     1       3.387  -2.180  -2.737  0.00  0.00    -0.493 OA
ATOM     27  C   UNL     1       4.403  -1.200  -2.961  0.00  0.00    +0.277 C 
ENDBRANCH  21  26
ENDBRANCH   1  22
TORSDOF 3
