REMARK  Name = ZINC63513795
REMARK  6 active torsions:
REMARK  status: ('A' for Active; 'I' for Inactive)
REMARK    1  A    between atoms: C_1  and  N_2
REMARK    2  A    between atoms: N_12  and  C_17
REMARK    3  A    between atoms: C_17  and  C_18
REMARK    4  A    between atoms: N_20  and  C_21
REMARK    5  A    between atoms: C_21  and  C_22
REMARK    6  A    between atoms: C_22  and  C_23
REMARK                            x       y       z     vdW  Elec       q    Type
REMARK                         _______ _______ _______ _____ _____    ______ ____
ROOT
ATOM      1  C   UNL     1       2.489  -1.236   4.064  0.00  0.00    +0.226 C 
ENDROOT
BRANCH   1  13
ATOM      2  C   UNL     1      -0.018   1.461   0.010  0.00  0.00    +0.130 C 
ATOM      3  N   UNL     1       0.002  -0.004   0.002  0.00  0.00    -0.317 N 
ATOM      4  C   UNL     1       0.008  -0.815  -1.141  0.00  0.00    +0.038 A 
ATOM      5  C   UNL     1      -0.157  -0.472  -2.478  0.00  0.00    +0.024 A 
ATOM      6  C   UNL     1      -0.132  -1.446  -3.457  0.00  0.00    +0.002 A 
ATOM      7  C   UNL     1       0.057  -2.774  -3.119  0.00  0.00    +0.001 A 
ATOM      8  C   UNL     1       0.232  -3.135  -1.800  0.00  0.00    +0.010 A 
ATOM      9  C   UNL     1       0.217  -2.161  -0.799  0.00  0.00    +0.003 A 
ATOM     10  C   UNL     1       0.407  -2.233   0.649  0.00  0.00    +0.006 C 
ATOM     11  C   UNL     1       0.851  -3.198   1.461  0.00  0.00    +0.094 C 
ATOM     12  N   UNL     1       0.971  -2.782   2.802  0.00  0.00    -0.268 N 
ATOM     13  N   UNL     1       1.506  -1.488   3.009  0.00  0.00    -0.212 N 
ATOM     14  C   UNL     1       1.074  -0.481   2.192  0.00  0.00    +0.257 C 
ATOM     15  O   UNL     1       1.512   0.647   2.274  0.00  0.00    -0.272 OA
ATOM     16  C   UNL     1       0.025  -0.859   1.181  0.00  0.00    +0.193 C 
ATOM     17  H   UNL     1       0.703  -3.349   3.541  0.00  0.00    +0.170 HD
ENDBRANCH   1  13
BRANCH   1  18
ATOM     18  C   UNL     1       1.775  -0.861   5.337  0.00  0.00    +0.232 C 
ATOM     19  O   UNL     1       0.564  -0.809   5.360  0.00  0.00    -0.274 OA
ATOM     20  N   UNL     1       2.483  -0.583   6.450  0.00  0.00    -0.314 N 
ATOM     21  H   UNL     1       3.452  -0.624   6.432  0.00  0.00    +0.149 HD
BRANCH  20  22
ATOM     22  C   UNL     1       1.788  -0.218   7.688  0.00  0.00    +0.108 C 
BRANCH  22  23
ATOM     23  C   UNL     1       2.816   0.045   8.790  0.00  0.00    +0.052 C 
BRANCH  23  24
ATOM     24  C   UNL     1       2.102   0.420  10.063  0.00  0.00    -0.040 C 
ATOM     25  C   UNL     1       1.765  -0.405  11.080  0.00  0.00    -0.001 A 
ATOM     26  C   UNL     1       1.955  -1.844  11.297  0.00  0.00    +0.010 A 
ATOM     27  C   UNL     1       1.498  -2.401  12.442  0.00  0.00    +0.001 A 
ATOM     28  C   UNL     1       0.849  -1.640  13.424  0.00  0.00    +0.002 A 
ATOM     29  C   UNL     1       0.637  -0.313  13.296  0.00  0.00    +0.026 A 
ATOM     30  C   UNL     1       1.077   0.376  12.133  0.00  0.00    +0.043 A 
ATOM     31  N   UNL     1       0.992   1.636  11.780  0.00  0.00    -0.380 N 
ATOM     32  C   UNL     1       1.622   1.797  10.465  0.00  0.00    +0.144 C 
ATOM     33  H   UNL     1       0.584   2.344  12.303  0.00  0.00    +0.160 HD
ENDBRANCH  23  24
ENDBRANCH  22  23
ENDBRANCH  20  22
ENDBRANCH   1  18
TORSDOF 5
