REMARK  Name = ZINC39685713
REMARK  14 active torsions:
REMARK  status: ('A' for Active; 'I' for Inactive)
REMARK    1  A    between atoms: C_1  and  C_2
REMARK    2  A    between atoms: C_2  and  C_3
REMARK    3  A    between atoms: C_2  and  C_4
REMARK    4  A    between atoms: C_4  and  C_6
REMARK    5  A    between atoms: C_4  and  N_13
REMARK    6  A    between atoms: N_8  and  C_9
REMARK    7  A    between atoms: C_9  and  C_10
REMARK    8  A    between atoms: C_9  and  C_11
REMARK    9  A    between atoms: C_9  and  C_12
REMARK   10  A    between atoms: C_14  and  C_16
REMARK   11  A    between atoms: C_27  and  C_29
REMARK   12  A    between atoms: C_34  and  O_35
REMARK   13  A    between atoms: O_35  and  C_36
REMARK   14  A    between atoms: C_36  and  C_38
REMARK                            x       y       z     vdW  Elec       q    Type
REMARK                         _______ _______ _______ _____ _____    ______ ____
ROOT
ATOM      1  C   UNL     1      -0.572  -0.994  -4.651  0.00  0.00    +0.100 C 
ATOM      2  C   UNL     1      -0.044   0.452  -4.788  0.00  0.00    +0.121 C 
ATOM      3  N   UNL     1       1.304   0.304  -5.386  0.00  0.00    -0.296 N 
ATOM      4  C   UNL     1       1.147  -0.783  -6.382  0.00  0.00    +0.115 C 
ATOM      5  C   UNL     1       0.210  -1.800  -5.701  0.00  0.00    -0.004 C 
ATOM      6  C   UNL     1       1.026  -2.897  -5.025  0.00  0.00    -0.010 C 
ATOM      7  C   UNL     1       1.750  -3.721  -6.094  0.00  0.00    -0.082 C 
ATOM      8  N   UNL     1       0.766  -4.310  -7.010  0.00  0.00    +0.379 N 
ATOM      9  C   UNL     1       0.048  -3.248  -7.725  0.00  0.00    -0.082 C 
ATOM     10  C   UNL     1      -0.747  -2.404  -6.725  0.00  0.00    -0.010 C 
ATOM     11  C   UNL     1       2.419   1.000  -5.091  0.00  0.00    +0.250 C 
ATOM     12  O   UNL     1       3.438   0.813  -5.728  0.00  0.00    -0.270 OA
ATOM     13  H   UNL     1       1.240  -4.901  -7.676  0.00  0.00    -0.086 HD
ATOM     14  H   UNL     1       0.107  -4.863  -6.482  0.00  0.00    -0.086 HD
ENDROOT
BRANCH  11  15
ATOM     15  C   UNL     1       2.405   1.989  -3.996  0.00  0.00    +0.079 A 
ATOM     16  C   UNL     1       1.248   2.726  -3.731  0.00  0.00    +0.017 A 
ATOM     17  C   UNL     1       1.240   3.647  -2.706  0.00  0.00    +0.001 A 
ATOM     18  C   UNL     1       2.375   3.846  -1.937  0.00  0.00    +0.004 A 
ATOM     19  C   UNL     1       3.525   3.124  -2.188  0.00  0.00    +0.047 A 
ATOM     20  C   UNL     1       3.549   2.189  -3.212  0.00  0.00    +0.144 A 
BRANCH  20  21
ATOM     21  O   UNL     1       4.676   1.475  -3.457  0.00  0.00    -0.425 OA
BRANCH  21  22
ATOM     22  C   UNL     1       4.783   0.255  -2.905  0.00  0.00    +0.309 C 
ATOM     23  O   UNL     1       3.859  -0.207  -2.278  0.00  0.00    -0.251 OA
ATOM     24  C   UNL     1       6.054  -0.537  -3.067  0.00  0.00    +0.136 C 
ENDBRANCH  21  22
ENDBRANCH  20  21
ENDBRANCH  11  15
BRANCH   1  26
ATOM     25  N   UNL     1      -1.046  -2.525  -2.767  0.00  0.00    -0.303 N 
ATOM     26  C   UNL     1      -0.294  -1.525  -3.268  0.00  0.00    +0.219 C 
ATOM     27  O   UNL     1       0.606  -1.053  -2.607  0.00  0.00    -0.275 OA
ATOM     28  H   UNL     1      -1.766  -2.902  -3.296  0.00  0.00    +0.149 HD
BRANCH  25  29
ATOM     29  C   UNL     1      -0.777  -3.041  -1.423  0.00  0.00    +0.161 C 
BRANCH  29  30
ATOM     30  C   UNL     1      -1.270  -4.462  -1.322  0.00  0.00    +0.234 C 
ATOM     31  O   UNL     1      -1.963  -4.927  -2.202  0.00  0.00    -0.274 OA
ATOM     32  N   UNL     1      -0.941  -5.215  -0.254  0.00  0.00    -0.309 N 
ATOM     33  H   UNL     1      -0.332  -4.867   0.416  0.00  0.00    +0.149 HD
BRANCH  32  34
ATOM     34  C   UNL     1      -1.503  -6.560  -0.105  0.00  0.00    +0.026 C 
ATOM     35  C   UNL     1      -1.095  -7.419  -1.304  0.00  0.00    +0.031 C 
ATOM     36  C   UNL     1      -0.973  -7.195   1.182  0.00  0.00    +0.031 C 
ATOM     37  C   UNL     1      -3.029  -6.470  -0.038  0.00  0.00    +0.031 C 
ENDBRANCH  32  34
ENDBRANCH  29  30
BRANCH  29  39
ATOM     38  C   UNL     1      -0.893  -0.771  -0.385  0.00  0.00    +0.009 C 
ATOM     39  C   UNL     1      -1.500  -2.176  -0.389  0.00  0.00    +0.012 C 
ATOM     40  C   UNL     1      -2.985  -2.088  -0.747  0.00  0.00    +0.009 C 
ENDBRANCH  29  39
ENDBRANCH  25  29
ENDBRANCH   1  26
TORSDOF 8
