REMARK  Name = ZINC63302918
REMARK  6 active torsions:
REMARK  status: ('A' for Active; 'I' for Inactive)
REMARK    1  A    between atoms: C_1  and  C_2
REMARK    2  A    between atoms: C_2  and  C_26
REMARK    3  A    between atoms: C_9  and  N_15
REMARK    4  A    between atoms: C_11  and  C_13
REMARK    5  A    between atoms: N_15  and  C_16
REMARK    6  A    between atoms: C_16  and  C_17
REMARK                            x       y       z     vdW  Elec       q    Type
REMARK                         _______ _______ _______ _____ _____    ______ ____
ROOT
ATOM      1  C   UNL     1      -0.019   1.526   0.010  0.00  0.00    +0.041 C 
ATOM      2  C   UNL     1       0.002  -0.004   0.002  0.00  0.00    +0.068 C 
ATOM      3  C   UNL     1      -1.434  -0.533   0.007  0.00  0.00    +0.067 C 
ATOM      4  C   UNL     1      -2.050  -0.238   1.374  0.00  0.00    -0.036 C 
ATOM      5  C   UNL     1      -1.264   0.061   2.405  0.00  0.00    +0.013 C 
ATOM      6  C   UNL     1       0.237   0.126   2.379  0.00  0.00    +0.202 C 
ATOM      7  O   UNL     1       0.694  -0.477   1.161  0.00  0.00    -0.369 OA
ATOM      8  S   UNL     1      -2.318   0.383   3.796  0.00  0.00    -0.107 S 
ATOM      9  C   UNL     1      -3.923   0.497   2.897  0.00  0.00    +0.138 C 
ATOM     10  C   UNL     1      -3.534  -0.288   1.619  0.00  0.00    +0.146 C 
ATOM     11  C   UNL     1       0.720  -0.497  -1.256  0.00  0.00    +0.041 C 
ENDROOT
BRANCH  10  12
ATOM     12  C   UNL     1      -3.950  -1.692   1.771  0.00  0.00    +0.073 C 
ATOM     13  N   UNL     1      -4.271  -2.775   1.888  0.00  0.00    -0.196 NA
ENDBRANCH  10  12
BRANCH   9  14
ATOM     14  N   UNL     1      -4.270   1.891   2.590  0.00  0.00    -0.299 NA
ATOM     15  H   UNL     1      -3.462   2.490   2.664  0.00  0.00    +0.123 HD
BRANCH  14  16
ATOM     16  C   UNL     1      -5.358   2.365   3.455  0.00  0.00    +0.115 C 
BRANCH  16  17
ATOM     17  C   UNL     1      -5.687   3.795   3.112  0.00  0.00    -0.028 C 
ATOM     18  C   UNL     1      -6.657   4.228   2.274  0.00  0.00    +0.000 A 
ATOM     19  C   UNL     1      -7.657   3.524   1.463  0.00  0.00    +0.010 A 
ATOM     20  C   UNL     1      -8.514   4.247   0.707  0.00  0.00    +0.001 A 
ATOM     21  C   UNL     1      -8.471   5.648   0.678  0.00  0.00    +0.002 A 
ATOM     22  C   UNL     1      -7.580   6.365   1.395  0.00  0.00    +0.026 A 
ATOM     23  C   UNL     1      -6.632   5.708   2.227  0.00  0.00    +0.043 A 
ATOM     24  N   UNL     1      -5.683   6.171   3.004  0.00  0.00    -0.380 N 
ATOM     25  C   UNL     1      -5.003   5.037   3.638  0.00  0.00    +0.146 C 
ATOM     26  H   UNL     1      -5.470   7.107   3.140  0.00  0.00    +0.160 HD
ENDBRANCH  16  17
ENDBRANCH  14  16
ENDBRANCH   9  14
TORSDOF 4
