REMARK  Name = ZINC36834448
REMARK  9 active torsions:
REMARK  status: ('A' for Active; 'I' for Inactive)
REMARK    1  A    between atoms: C_1  and  C_2
REMARK    2  A    between atoms: C_2  and  C_4
REMARK    3  A    between atoms: C_2  and  N_14
REMARK    4  A    between atoms: C_7  and  S_10
REMARK    5  A    between atoms: S_10  and  C_13
REMARK    6  A    between atoms: C_15  and  C_17
REMARK    7  A    between atoms: C_21  and  C_22
REMARK    8  A    between atoms: C_22  and  C_23
REMARK    9  A    between atoms: C_22  and  C_24
REMARK                            x       y       z     vdW  Elec       q    Type
REMARK                         _______ _______ _______ _____ _____    ______ ____
ROOT
ATOM      1  N   UNL     1       0.635  -0.481   0.989  0.00  0.00    -0.305 N 
ATOM      2  C   UNL     1      -0.036  -0.688   2.139  0.00  0.00    +0.248 C 
ATOM      3  O   UNL     1      -1.203  -0.357   2.230  0.00  0.00    -0.270 OA
ATOM      4  H   UNL     1       1.565  -0.745   0.916  0.00  0.00    +0.150 HD
ENDROOT
BRANCH   2   5
ATOM      5  C   UNL     1       0.643  -1.316   3.287  0.00  0.00    +0.078 A 
ATOM      6  C   UNL     1       1.951  -1.852   3.296  0.00  0.00    +0.148 A 
ATOM      7  N   UNL     1       2.190  -2.316   4.492  0.00  0.00    -0.172 NA
ATOM      8  N   UNL     1       1.064  -2.103   5.294  0.00  0.00    -0.218 N 
ATOM      9  C   UNL     1       0.124  -1.486   4.554  0.00  0.00    +0.061 A 
ATOM     10  C   UNL     1       0.938  -2.464   6.639  0.00  0.00    +0.154 A 
ATOM     11  C   UNL     1       1.682  -3.526   7.139  0.00  0.00    +0.048 A 
ATOM     12  C   UNL     1       1.549  -3.873   8.472  0.00  0.00    +0.005 A 
ATOM     13  C   UNL     1       0.672  -3.142   9.262  0.00  0.00    +0.020 A 
ATOM     14  C   UNL     1      -0.036  -2.098   8.698  0.00  0.00    +0.113 A 
ATOM     15  N   UNL     1       0.116  -1.788   7.425  0.00  0.00    -0.236 NA
BRANCH   9  16
ATOM     16  C   UNL     1      -1.244  -1.062   5.022  0.00  0.00    +0.032 C 
ATOM     17  C   UNL     1      -1.414   0.443   4.804  0.00  0.00    +0.014 C 
ATOM     18  C   UNL     1      -2.312  -1.815   4.226  0.00  0.00    +0.014 C 
ENDBRANCH   9  16
ENDBRANCH   2   5
BRANCH   1  20
ATOM     19  C   UNL     1       0.023   1.666  -0.011  0.00  0.00    +0.033 C 
ATOM     20  C   UNL     1      -0.041   0.144  -0.151  0.00  0.00    +0.100 C 
BRANCH  20  21
ATOM     21  C   UNL     1       0.642  -0.272  -1.429  0.00  0.00    -0.027 A 
ATOM     22  C   UNL     1       2.020  -0.365  -1.477  0.00  0.00    +0.007 A 
ATOM     23  C   UNL     1       2.647  -0.747  -2.649  0.00  0.00    +0.027 A 
ATOM     24  C   UNL     1       1.894  -1.035  -3.772  0.00  0.00    +0.088 A 
ATOM     25  C   UNL     1       0.516  -0.942  -3.724  0.00  0.00    +0.027 A 
ATOM     26  C   UNL     1      -0.110  -0.565  -2.551  0.00  0.00    +0.007 A 
BRANCH  24  27
ATOM     27  S   UNL     1       2.693  -1.520  -5.266  0.00  0.00    -0.006 S 
ATOM     28  O   UNL     1       1.791  -1.143  -6.298  0.00  0.00    -0.170 OA
ATOM     29  O   UNL     1       3.988  -0.941  -5.190  0.00  0.00    -0.170 OA
ATOM     30  C   UNL     1       2.809  -3.327  -5.167  0.00  0.00    +0.200 C 
ENDBRANCH  24  27
ENDBRANCH  20  21
ENDBRANCH   1  20
TORSDOF 5
