REMARK  Name = ZINC39729693
REMARK  3 active torsions:
REMARK  status: ('A' for Active; 'I' for Inactive)
REMARK    1  A    between atoms: C_6  and  C_7
REMARK    2  A    between atoms: N_12  and  C_13
REMARK    3  A    between atoms: C_13  and  C_14
REMARK                            x       y       z     vdW  Elec       q    Type
REMARK                         _______ _______ _______ _____ _____    ______ ____
ROOT
ATOM      1  C   UNL     1      -1.478  -0.776  -0.116  0.00  0.00    -0.037 C 
ATOM      2  C   UNL     1      -2.158  -0.653  -1.495  0.00  0.00    -0.013 C 
ATOM      3  C   UNL     1      -3.645  -0.403  -1.131  0.00  0.00    -0.020 C 
ATOM      4  C   UNL     1      -3.513   0.464   0.146  0.00  0.00    -0.077 C 
ATOM      5  N   UNL     1      -2.344  -0.096   0.864  0.00  0.00    +0.390 N 
ATOM      6  H   UNL     1      -1.831   0.649   1.312  0.00  0.00    -0.080 HD
ENDROOT
BRANCH   1  12
ATOM      7  C   UNL     1      -0.027   1.262  -0.069  0.00  0.00    +0.006 A 
ATOM      8  C   UNL     1       1.212   1.873  -0.102  0.00  0.00    +0.049 A 
ATOM      9  C   UNL     1       2.362   1.105  -0.217  0.00  0.00    +0.162 A 
ATOM     10  C   UNL     1       2.264  -0.279  -0.296  0.00  0.00    +0.162 A 
ATOM     11  C   UNL     1       1.017  -0.885  -0.263  0.00  0.00    +0.051 A 
ATOM     12  C   UNL     1      -0.125  -0.115  -0.150  0.00  0.00    -0.057 A 
ATOM     13  O   UNL     1       3.380  -1.051  -0.401  0.00  0.00    -0.485 OA
ATOM     14  C   UNL     1       4.584  -0.390  -0.804  0.00  0.00    +0.270 C 
ATOM     15  C   UNL     1       4.720   0.903   0.011  0.00  0.00    +0.270 C 
ATOM     16  O   UNL     1       3.575   1.721  -0.252  0.00  0.00    -0.485 OA
ENDBRANCH   1  12
BRANCH   5  17
ATOM     17  C   UNL     1      -2.797  -1.059   1.877  0.00  0.00    +0.020 C 
BRANCH  17  18
ATOM     18  C   UNL     1      -3.580  -0.337   2.943  0.00  0.00    +0.201 C 
ATOM     19  O   UNL     1      -3.744   0.863   2.867  0.00  0.00    -0.278 OA
ATOM     20  N   UNL     1      -4.098  -1.023   3.981  0.00  0.00    -0.286 N 
ATOM     21  C   UNL     1      -5.389  -0.956   4.238  0.00  0.00    +0.050 C 
ATOM     22  C   UNL     1      -6.291  -0.241   3.310  0.00  0.00    +0.054 C 
ATOM     23  C   UNL     1      -7.619  -0.178   3.583  0.00  0.00    +0.097 C 
ATOM     24  N   UNL     1      -8.699   0.381   2.965  0.00  0.00    -0.190 NA
ATOM     25  C   UNL     1      -9.763   0.125   3.691  0.00  0.00    +0.369 C 
ATOM     26  O   UNL     1     -11.016   0.531   3.375  0.00  0.00    -0.243 OA
ATOM     27  N   UNL     1      -9.453  -0.590   4.785  0.00  0.00    -0.190 NA
ATOM     28  C   UNL     1      -8.154  -0.822   4.800  0.00  0.00    +0.096 C 
ATOM     29  C   UNL     1      -7.252  -1.528   5.714  0.00  0.00    +0.047 C 
ATOM     30  C   UNL     1      -5.934  -1.598   5.443  0.00  0.00    +0.041 C 
ATOM     31 BR   UNL     1      -4.778  -2.519   6.622  0.00  0.00    -0.048 Br
ATOM     32  H   UNL     1      -3.520  -1.567   4.539  0.00  0.00    +0.155 HD
ENDBRANCH  17  18
ENDBRANCH   5  17
TORSDOF 3
