REMARK  Name = ZINC39911532
REMARK  13 active torsions:
REMARK  status: ('A' for Active; 'I' for Inactive)
REMARK    1  A    between atoms: C_1  and  C_2
REMARK    2  A    between atoms: C_4  and  C_35
REMARK    3  A    between atoms: C_5  and  O_34
REMARK    4  A    between atoms: C_6  and  C_8
REMARK    5  A    between atoms: N_16  and  C_31
REMARK    6  A    between atoms: C_17  and  C_19
REMARK    7  A    between atoms: C_22  and  O_27
REMARK    8  A    between atoms: C_23  and  O_25
REMARK    9  A    between atoms: O_25  and  C_26
REMARK   10  A    between atoms: O_27  and  C_28
REMARK   11  A    between atoms: C_28  and  C_29
REMARK   12  A    between atoms: C_31  and  C_32
REMARK   13  A    between atoms: C_32  and  O_33
REMARK                            x       y       z     vdW  Elec       q    Type
REMARK                         _______ _______ _______ _____ _____    ______ ____
ROOT
ATOM      1  C   UNL     1       0.276  -2.816   3.055  0.00  0.00    +0.102 A 
ATOM      2  C   UNL     1       0.244  -2.053   4.228  0.00  0.00    +0.035 A 
ATOM      3  C   UNL     1       0.695  -2.887   5.233  0.00  0.00    +0.126 A 
ATOM      4  N   UNL     1       0.971  -4.085   4.636  0.00  0.00    -0.272 N 
ATOM      5  H   UNL     1       1.307  -4.871   5.095  0.00  0.00    +0.189 HD
ATOM      6  N   UNL     1       0.715  -4.017   3.378  0.00  0.00    -0.173 NA
ATOM      7  C   UNL     1       0.685  -2.143   6.497  0.00  0.00    +0.266 C 
ATOM      8  O   UNL     1       1.026  -2.596   7.572  0.00  0.00    -0.268 OA
ATOM      9  N   UNL     1       0.246  -0.887   6.297  0.00  0.00    -0.283 N 
ATOM     10  C   UNL     1      -0.065  -0.729   4.871  0.00  0.00    +0.141 C 
ENDROOT
BRANCH   1  16
ATOM     11  C   UNL     1      -1.536   0.733   0.049  0.00  0.00    +0.044 C 
ATOM     12  C   UNL     1      -0.989  -0.656   0.249  0.00  0.00    -0.049 A 
ATOM     13  C   UNL     1      -0.854  -1.507  -0.833  0.00  0.00    +0.010 A 
ATOM     14  C   UNL     1      -0.353  -2.783  -0.659  0.00  0.00    -0.008 A 
ATOM     15  C   UNL     1       0.018  -3.217   0.604  0.00  0.00    +0.129 A 
ATOM     16  C   UNL     1      -0.117  -2.360   1.699  0.00  0.00    +0.044 A 
ATOM     17  C   UNL     1      -0.618  -1.074   1.512  0.00  0.00    +0.017 A 
ATOM     18  C   UNL     1      -0.210  -3.704  -1.844  0.00  0.00    +0.047 C 
BRANCH  15  19
ATOM     19  O   UNL     1       0.509  -4.472   0.776  0.00  0.00    -0.506 OA
ATOM     20  H   UNL     1       1.471  -4.533   0.690  0.00  0.00    +0.292 HD
ENDBRANCH  15  19
ENDBRANCH   1  16
BRANCH  10  21
ATOM     21  C   UNL     1       0.796   0.353   4.270  0.00  0.00    -0.019 A 
ATOM     22  C   UNL     1       2.163   0.170   4.168  0.00  0.00    +0.009 A 
ATOM     23  C   UNL     1       2.957   1.159   3.618  0.00  0.00    +0.050 A 
ATOM     24  C   UNL     1       2.383   2.337   3.167  0.00  0.00    +0.162 A 
ATOM     25  C   UNL     1       1.007   2.521   3.269  0.00  0.00    +0.162 A 
ATOM     26  C   UNL     1       0.217   1.523   3.817  0.00  0.00    +0.055 A 
BRANCH  25  27
ATOM     27  O   UNL     1       0.439   3.675   2.827  0.00  0.00    -0.491 OA
ATOM     28  C   UNL     1      -0.988   3.744   2.846  0.00  0.00    +0.277 C 
ENDBRANCH  25  27
BRANCH  24  29
ATOM     29  O   UNL     1       3.162   3.311   2.626  0.00  0.00    -0.484 OA
BRANCH  29  30
ATOM     30  C   UNL     1       4.566   3.053   2.554  0.00  0.00    +0.256 C 
BRANCH  30  31
ATOM     31  C   UNL     1       5.262   4.235   1.930  0.00  0.00    +0.006 C 
ATOM     32  C   UNL     1       6.367   4.699   2.461  0.00  0.00    +0.007 C 
ENDBRANCH  30  31
ENDBRANCH  29  30
ENDBRANCH  24  29
ENDBRANCH  10  21
BRANCH   9  33
ATOM     33  C   UNL     1       0.102   0.145   7.327  0.00  0.00    +0.137 C 
BRANCH  33  34
ATOM     34  C   UNL     1       1.450   0.833   7.552  0.00  0.00    +0.175 C 
BRANCH  34  35
ATOM     35  O   UNL     1       1.807   1.575   6.384  0.00  0.00    -0.393 OA
ATOM     36  H   UNL     1       2.652   2.039   6.456  0.00  0.00    +0.209 HD
ENDBRANCH  34  35
ENDBRANCH  33  34
ENDBRANCH   9  33
TORSDOF 10
