REMARK  Name = ZINC39677131
REMARK  9 active torsions:
REMARK  status: ('A' for Active; 'I' for Inactive)
REMARK    1  A    between atoms: C_1  and  C_2
REMARK    2  A    between atoms: C_6  and  C_7
REMARK    3  A    between atoms: C_7  and  N_8
REMARK    4  A    between atoms: C_9  and  C_11
REMARK    5  A    between atoms: C_22  and  C_24
REMARK    6  A    between atoms: C_26  and  O_32
REMARK    7  A    between atoms: C_28  and  O_30
REMARK    8  A    between atoms: O_30  and  C_31
REMARK    9  A    between atoms: O_32  and  C_33
REMARK                            x       y       z     vdW  Elec       q    Type
REMARK                         _______ _______ _______ _____ _____    ______ ____
ROOT
ATOM      1  C   UNL     1      -3.696   0.576   4.756  0.00  0.00    +0.100 C 
ATOM      2  C   UNL     1      -4.109  -0.910   4.666  0.00  0.00    +0.121 C 
ATOM      3  N   UNL     1      -3.895  -1.441   6.033  0.00  0.00    -0.296 N 
ATOM      4  C   UNL     1      -4.346  -0.349   6.928  0.00  0.00    +0.115 C 
ATOM      5  C   UNL     1      -3.857   0.942   6.241  0.00  0.00    -0.004 C 
ATOM      6  C   UNL     1      -4.891   2.052   6.403  0.00  0.00    -0.010 C 
ATOM      7  C   UNL     1      -4.990   2.438   7.882  0.00  0.00    -0.082 C 
ATOM      8  N   UNL     1      -3.678   2.890   8.360  0.00  0.00    +0.379 N 
ATOM      9  C   UNL     1      -2.712   1.788   8.288  0.00  0.00    -0.082 C 
ATOM     10  C   UNL     1      -2.516   1.374   6.826  0.00  0.00    -0.010 C 
ATOM     11  C   UNL     1      -3.403  -2.646   6.383  0.00  0.00    +0.247 C 
ATOM     12  O   UNL     1      -2.957  -3.391   5.532  0.00  0.00    -0.270 OA
ATOM     13  H   UNL     1      -3.357   3.656   7.786  0.00  0.00    -0.086 HD
ATOM     14  H   UNL     1      -3.760   3.202   9.317  0.00  0.00    -0.086 HD
ENDROOT
BRANCH  11  15
ATOM     15  C   UNL     1      -3.404  -3.061   7.802  0.00  0.00    +0.044 A 
ATOM     16  C   UNL     1      -4.273  -2.452   8.708  0.00  0.00    +0.059 A 
ATOM     17  C   UNL     1      -4.272  -2.844  10.037  0.00  0.00    +0.124 A 
ATOM     18  C   UNL     1      -3.408  -3.841  10.466  0.00  0.00    +0.091 A 
ATOM     19  C   UNL     1      -2.543  -4.450   9.569  0.00  0.00    +0.124 A 
ATOM     20  C   UNL     1      -2.542  -4.067   8.238  0.00  0.00    +0.059 A 
BRANCH  19  21
ATOM     21  O   UNL     1      -1.699  -5.426   9.995  0.00  0.00    -0.495 OA
ATOM     22  C   UNL     1      -1.757  -5.774  11.380  0.00  0.00    +0.277 C 
ENDBRANCH  19  21
BRANCH  17  23
ATOM     23  O   UNL     1      -5.117  -2.251  10.920  0.00  0.00    -0.495 OA
ATOM     24  C   UNL     1      -5.063  -2.705  12.274  0.00  0.00    +0.277 C 
ENDBRANCH  17  23
ENDBRANCH  11  15
BRANCH   1  26
ATOM     25  N   UNL     1      -1.835   1.943   3.868  0.00  0.00    -0.310 N 
ATOM     26  C   UNL     1      -2.262   0.749   4.325  0.00  0.00    +0.218 C 
ATOM     27  O   UNL     1      -1.493  -0.186   4.389  0.00  0.00    -0.275 OA
ATOM     28  H   UNL     1      -2.451   2.691   3.817  0.00  0.00    +0.149 HD
BRANCH  25  29
ATOM     29  C   UNL     1      -0.442   2.111   3.449  0.00  0.00    +0.147 C 
BRANCH  29  35
ATOM     30  C   UNL     1       0.432   4.495   5.179  0.00  0.00    +0.044 C 
ATOM     31  C   UNL     1       0.160   4.613   3.701  0.00  0.00    -0.039 A 
ATOM     32  C   UNL     1       0.302   5.827   3.056  0.00  0.00    +0.011 A 
ATOM     33  C   UNL     1       0.049   5.898   1.726  0.00  0.00    +0.046 A 
ATOM     34  S   UNL     1      -0.407   4.215   1.346  0.00  0.00    -0.100 S 
ATOM     35  C   UNL     1      -0.224   3.528   2.984  0.00  0.00    +0.010 A 
ENDBRANCH  29  35
ENDBRANCH  25  29
ENDBRANCH   1  26
TORSDOF 6
