REMARK  Name = ZINC08961970
REMARK  6 active torsions:
REMARK  status: ('A' for Active; 'I' for Inactive)
REMARK    1  A    between atoms: C_1  and  C_2
REMARK    2  A    between atoms: C_5  and  C_26
REMARK    3  A    between atoms: C_6  and  S_8
REMARK    4  A    between atoms: S_8  and  N_11
REMARK    5  A    between atoms: N_11  and  C_12
REMARK    6  A    between atoms: C_22  and  C_25
REMARK                            x       y       z     vdW  Elec       q    Type
REMARK                         _______ _______ _______ _____ _____    ______ ____
ROOT
ATOM      1  C   UNL     1      -1.304   1.103   1.659  0.00  0.00    +0.049 A 
ATOM      2  C   UNL     1      -1.247  -0.269   1.432  0.00  0.00    +0.028 A 
ATOM      3  C   UNL     1      -2.211  -1.106   1.960  0.00  0.00    +0.048 A 
ATOM      4  C   UNL     1      -3.242  -0.582   2.721  0.00  0.00    +0.133 A 
ATOM      5  C   UNL     1      -3.307   0.802   2.950  0.00  0.00    +0.080 A 
ATOM      6  C   UNL     1      -2.328   1.641   2.421  0.00  0.00    +0.041 A 
ATOM      7  C   UNL     1      -4.418   1.342   3.756  0.00  0.00    +0.248 C 
ATOM      8  O   UNL     1      -5.054   2.303   3.368  0.00  0.00    -0.270 OA
ATOM      9  N   UNL     1      -4.718   0.748   4.936  0.00  0.00    -0.308 N 
ATOM     10  C   UNL     1      -3.872  -0.339   5.433  0.00  0.00    +0.148 C 
ATOM     11  C   UNL     1      -4.132  -1.624   4.658  0.00  0.00    +0.187 C 
ATOM     12  O   UNL     1      -4.194  -1.388   3.257  0.00  0.00    -0.487 OA
ATOM     13  C   UNL     1      -5.461  -2.225   5.121  0.00  0.00    +0.053 C 
ATOM     14  H   UNL     1      -5.488   1.040   5.448  0.00  0.00    +0.149 HD
ENDROOT
BRANCH   1  15
ATOM     15  N   UNL     1      -0.320   1.940   1.121  0.00  0.00    -0.216 N 
ATOM     16  H   UNL     1       0.087   2.626   1.673  0.00  0.00    +0.174 HD
BRANCH  15  17
ATOM     17  S   UNL     1       0.149   1.760  -0.457  0.00  0.00    +0.073 S 
ATOM     18  O   UNL     1       0.492   0.391  -0.625  0.00  0.00    -0.150 OA
ATOM     19  O   UNL     1       1.062   2.813  -0.732  0.00  0.00    -0.150 OA
BRANCH  17  25
ATOM     20  C   UNL     1      -3.477   0.141  -3.857  0.00  0.00    +0.044 C 
ATOM     21  C   UNL     1      -2.908   1.255  -3.016  0.00  0.00    -0.049 A 
ATOM     22  C   UNL     1      -3.501   2.504  -3.030  0.00  0.00    +0.004 A 
ATOM     23  C   UNL     1      -2.979   3.525  -2.258  0.00  0.00    +0.005 A 
ATOM     24  C   UNL     1      -1.868   3.296  -1.468  0.00  0.00    -0.024 A 
ATOM     25  C   UNL     1      -1.272   2.049  -1.458  0.00  0.00    +0.112 A 
ATOM     26  C   UNL     1      -1.793   1.028  -2.230  0.00  0.00    +0.032 A 
ATOM     27  C   UNL     1      -1.303   4.408  -0.622  0.00  0.00    +0.046 C 
ENDBRANCH  17  25
ENDBRANCH  15  17
ENDBRANCH   1  15
TORSDOF 3
