REMARK  Name = ZINC59165650
REMARK  7 active torsions:
REMARK  status: ('A' for Active; 'I' for Inactive)
REMARK    1  A    between atoms: C_1  and  C_2
REMARK    2  A    between atoms: C_2  and  C_4
REMARK    3  A    between atoms: C_2  and  O_28
REMARK    4  A    between atoms: C_4  and  C_5
REMARK    5  A    between atoms: N_7  and  N_8
REMARK    6  A    between atoms: N_16  and  C_19
REMARK    7  A    between atoms: C_19  and  C_20
REMARK                            x       y       z     vdW  Elec       q    Type
REMARK                         _______ _______ _______ _____ _____    ______ ____
ROOT
ATOM      1  N   UNL     1      -2.558  -4.119  -0.256  0.00  0.00    -0.175 NA
ATOM      2  C   UNL     1      -3.685  -4.789  -0.270  0.00  0.00    +0.153 C 
ATOM      3  C   UNL     1      -3.861  -6.255  -0.385  0.00  0.00    +0.029 A 
ATOM      4  C   UNL     1      -2.969  -7.315  -0.506  0.00  0.00    +0.027 A 
ATOM      5  C   UNL     1      -3.449  -8.607  -0.596  0.00  0.00    +0.019 A 
ATOM      6  C   UNL     1      -4.813  -8.845  -0.565  0.00  0.00    +0.017 A 
ATOM      7  C   UNL     1      -5.706  -7.799  -0.445  0.00  0.00    +0.025 A 
ATOM      8  C   UNL     1      -5.242  -6.491  -0.353  0.00  0.00    +0.046 A 
ATOM      9  N   UNL     1      -5.913  -5.279  -0.228  0.00  0.00    -0.261 N 
ATOM     10  C   UNL     1      -5.055  -4.247  -0.167  0.00  0.00    +0.272 C 
ATOM     11  O   UNL     1      -5.354  -3.073  -0.052  0.00  0.00    -0.268 OA
ATOM     12 BR   UNL     1      -2.241 -10.053  -0.762  0.00  0.00    -0.050 Br
ENDROOT
BRANCH   1  15
ATOM     13  C   UNL     1      -1.416  -2.035  -0.119  0.00  0.00    +0.235 C 
ATOM     14  O   UNL     1      -0.360  -2.623  -0.213  0.00  0.00    -0.274 OA
ATOM     15  N   UNL     1      -2.574  -2.724  -0.133  0.00  0.00    -0.206 N 
ATOM     16  H   UNL     1      -3.419  -2.253  -0.058  0.00  0.00    +0.177 HD
BRANCH  13  17
ATOM     17  C   UNL     1      -1.433  -0.534   0.013  0.00  0.00    +0.128 C 
BRANCH  17  19
ATOM     18  C   UNL     1      -0.019   1.526   0.010  0.00  0.00    +0.038 C 
ATOM     19  C   UNL     1       0.002  -0.004   0.002  0.00  0.00    +0.120 C 
BRANCH  19  20
ATOM     20  O   UNL     1       0.693  -0.477   1.160  0.00  0.00    -0.392 OA
ATOM     21  H   UNL     1       1.611  -0.180   1.219  0.00  0.00    +0.210 HD
ENDBRANCH  19  20
ENDBRANCH  17  19
ENDBRANCH  13  17
ENDBRANCH   1  15
BRANCH   9  22
ATOM     22  C   UNL     1      -7.370  -5.146  -0.163  0.00  0.00    +0.149 C 
BRANCH  22  23
ATOM     23  C   UNL     1      -7.818  -5.218   1.274  0.00  0.00    -0.030 A 
ATOM     24  C   UNL     1      -8.130  -6.441   1.840  0.00  0.00    +0.008 A 
ATOM     25  C   UNL     1      -8.540  -6.508   3.158  0.00  0.00    +0.038 A 
ATOM     26  C   UNL     1      -8.638  -5.351   3.912  0.00  0.00    +0.123 A 
ATOM     27  C   UNL     1      -8.325  -4.128   3.345  0.00  0.00    +0.038 A 
ATOM     28  C   UNL     1      -7.910  -4.063   2.028  0.00  0.00    +0.008 A 
ATOM     29  F   UNL     1      -9.039  -5.416   5.200  0.00  0.00    -0.205 F 
ENDBRANCH  22  23
ENDBRANCH   9  22
TORSDOF 6
