REMARK  Name = ZINC08884294
REMARK  6 active torsions:
REMARK  status: ('A' for Active; 'I' for Inactive)
REMARK    1  A    between atoms: C_4  and  C_7
REMARK    2  A    between atoms: N_9  and  N_10
REMARK    3  A    between atoms: C_11  and  C_13
REMARK    4  A    between atoms: C_13  and  S_14
REMARK    5  A    between atoms: S_14  and  C_15
REMARK    6  A    between atoms: C_21  and  C_26
REMARK                            x       y       z     vdW  Elec       q    Type
REMARK                         _______ _______ _______ _____ _____    ______ ____
ROOT
ATOM      1  S   UNL     1      -3.972  -4.918   0.014  0.00  0.00    -0.078 S 
ENDROOT
BRANCH   1   2
ATOM      2  C   UNL     1      -3.659  -6.652   0.001  0.00  0.00    +0.170 A 
ATOM      3  N   UNL     1      -4.707  -7.526   0.007  0.00  0.00    -0.301 N 
ATOM      4  H   UNL     1      -5.614  -7.182   0.018  0.00  0.00    +0.171 HD
ATOM      5  C   UNL     1      -4.505  -8.856  -0.003  0.00  0.00    +0.261 A 
ATOM      6  O   UNL     1      -5.452  -9.624   0.002  0.00  0.00    -0.267 OA
ATOM      7  C   UNL     1      -3.168  -9.358  -0.019  0.00  0.00    +0.080 A 
ATOM      8  C   UNL     1      -2.703 -10.742  -0.031  0.00  0.00    +0.010 A 
ATOM      9  C   UNL     1      -1.369 -10.981  -0.045  0.00  0.00    +0.057 A 
ATOM     10  S   UNL     1      -0.656  -9.347  -0.043  0.00  0.00    -0.076 S 
ATOM     11  C   UNL     1      -2.150  -8.389  -0.023  0.00  0.00    +0.117 A 
ATOM     12  N   UNL     1      -2.416  -7.088  -0.018  0.00  0.00    -0.216 NA
BRANCH   8  13
ATOM     13  C   UNL     1      -3.668 -11.861  -0.028  0.00  0.00    +0.021 A 
ATOM     14  C   UNL     1      -3.725 -12.954  -0.852  0.00  0.00    +0.016 A 
ATOM     15  C   UNL     1      -4.727 -13.880  -0.654  0.00  0.00    +0.008 A 
ATOM     16  C   UNL     1      -5.629 -13.677   0.339  0.00  0.00    +0.046 A 
ATOM     17  S   UNL     1      -5.068 -12.137   1.045  0.00  0.00    -0.097 S 
ENDBRANCH   8  13
ENDBRANCH   1   2
BRANCH   1  18
ATOM     18  C   UNL     1      -2.274  -4.291   0.001  0.00  0.00    +0.174 C 
BRANCH  18  20
ATOM     19  N   UNL     1      -1.137  -2.095   0.002  0.00  0.00    -0.233 N 
ATOM     20  C   UNL     1      -2.295  -2.784   0.009  0.00  0.00    +0.239 C 
ATOM     21  O   UNL     1      -3.353  -2.192   0.022  0.00  0.00    -0.273 OA
ATOM     22  H   UNL     1      -0.290  -2.568  -0.009  0.00  0.00    +0.173 HD
BRANCH  19  25
ATOM     23  C   UNL     1       0.002  -0.004   0.002  0.00  0.00    +0.260 C 
ATOM     24  O   UNL     1       1.063  -0.597  -0.011  0.00  0.00    -0.269 OA
ATOM     25  N   UNL     1      -1.156  -0.694   0.009  0.00  0.00    -0.230 N 
ATOM     26  H   UNL     1      -2.002  -0.220   0.020  0.00  0.00    +0.173 HD
BRANCH  23  30
ATOM     27  C   UNL     1      -0.056   4.243   0.025  0.00  0.00    +0.000 A 
ATOM     28  C   UNL     1       1.154   3.571   0.010  0.00  0.00    +0.001 A 
ATOM     29  C   UNL     1       1.179   2.192   0.003  0.00  0.00    +0.013 A 
ATOM     30  C   UNL     1      -0.018   1.474   0.010  0.00  0.00    +0.038 A 
ATOM     31  C   UNL     1      -1.234   2.159   0.020  0.00  0.00    +0.013 A 
ATOM     32  C   UNL     1      -1.246   3.538   0.033  0.00  0.00    +0.001 A 
ENDBRANCH  23  30
ENDBRANCH  19  25
ENDBRANCH  18  20
ENDBRANCH   1  18
TORSDOF 6
