REMARK  Name = ZINC38605693
REMARK  11 active torsions:
REMARK  status: ('A' for Active; 'I' for Inactive)
REMARK    1  A    between atoms: C_1  and  C_2
REMARK    2  A    between atoms: C_2  and  O_3
REMARK    3  A    between atoms: O_3  and  C_4
REMARK    4  A    between atoms: C_4  and  C_6
REMARK    5  A    between atoms: C_8  and  N_17
REMARK    6  A    between atoms: C_18  and  C_20
REMARK    7  A    between atoms: C_20  and  C_22
REMARK    8  A    between atoms: C_20  and  N_23
REMARK    9  A    between atoms: N_26  and  C_29
REMARK   10  A    between atoms: C_29  and  C_30
REMARK   11  A    between atoms: C_31  and  C_32
REMARK                            x       y       z     vdW  Elec       q    Type
REMARK                         _______ _______ _______ _____ _____    ______ ____
ROOT
ATOM      1  N   UNL     1      -3.466  -1.564  -2.538  0.00  0.00    -0.285 N 
ATOM      2  C   UNL     1      -4.397  -1.585  -3.512  0.00  0.00    +0.234 C 
ATOM      3  O   UNL     1      -5.234  -2.462  -3.531  0.00  0.00    -0.274 OA
ATOM      4  H   UNL     1      -2.813  -0.847  -2.506  0.00  0.00    +0.155 HD
ENDROOT
BRANCH   1   6
ATOM      5  C   UNL     1      -4.415  -3.699  -1.454  0.00  0.00    +0.234 C 
ATOM      6  C   UNL     1      -3.441  -2.550  -1.597  0.00  0.00    +0.053 C 
ATOM      7  C   UNL     1      -2.520  -2.708  -0.577  0.00  0.00    +0.020 A 
ATOM      8  C   UNL     1      -1.381  -1.958  -0.193  0.00  0.00    +0.050 A 
ATOM      9  C   UNL     1      -0.644  -2.355   0.875  0.00  0.00    +0.124 A 
ATOM     10  C   UNL     1      -0.979  -3.495   1.614  0.00  0.00    +0.040 A 
ATOM     11  C   UNL     1      -2.054  -4.258   1.304  0.00  0.00    +0.029 A 
ATOM     12  C   UNL     1      -2.875  -3.908   0.201  0.00  0.00    +0.045 A 
ATOM     13  N   UNL     1      -3.956  -4.477  -0.298  0.00  0.00    -0.367 N 
ATOM     14  F   UNL     1       0.441  -1.633   1.232  0.00  0.00    -0.205 F 
ATOM     15  H   UNL     1      -4.380  -5.279   0.045  0.00  0.00    +0.161 HD
BRANCH   5  16
ATOM     16  C   UNL     1      -5.805  -3.174  -1.207  0.00  0.00    +0.336 C 
ATOM     17  O   UNL     1      -6.092  -2.705  -0.131  0.00  0.00    -0.248 OA
BRANCH  16  18
ATOM     18  O   UNL     1      -6.725  -3.226  -2.183  0.00  0.00    -0.463 OA
BRANCH  18  20
ATOM     19  C   UNL     1      -8.928  -2.855  -3.105  0.00  0.00    +0.048 C 
ATOM     20  C   UNL     1      -8.023  -2.710  -1.880  0.00  0.00    +0.229 C 
ENDBRANCH  18  20
ENDBRANCH  16  18
ENDBRANCH   5  16
ENDBRANCH   1   6
BRANCH   2  21
ATOM     21  C   UNL     1      -4.398  -0.519  -4.577  0.00  0.00    +0.140 C 
ATOM     22  C   UNL     1      -5.230   0.674  -4.103  0.00  0.00    +0.034 C 
BRANCH  21  23
ATOM     23  N   UNL     1      -4.978  -1.061  -5.812  0.00  0.00    -0.295 NA
ATOM     24  C   UNL     1      -4.240  -2.250  -6.263  0.00  0.00    +0.066 C 
ATOM     25  C   UNL     1      -4.911  -2.818  -7.516  0.00  0.00    -0.063 C 
ATOM     26  N   UNL     1      -4.920  -1.797  -8.572  0.00  0.00    +0.384 N 
ATOM     27  C   UNL     1      -5.680  -0.626  -8.117  0.00  0.00    -0.063 C 
ATOM     28  C   UNL     1      -5.016  -0.040  -6.869  0.00  0.00    +0.066 C 
ATOM     29  H   UNL     1      -3.972  -1.521  -8.781  0.00  0.00    -0.081 HD
BRANCH  26  30
ATOM     30  C   UNL     1      -5.547  -2.348  -9.780  0.00  0.00    -0.051 C 
BRANCH  30  31
ATOM     31  C   UNL     1      -5.446  -1.345 -10.901  0.00  0.00    -0.045 C 
ATOM     32  C   UNL     1      -4.891  -1.693 -12.054  0.00  0.00    +0.002 C 
BRANCH  32  33
ATOM     33  C   UNL     1      -4.793  -0.709 -13.152  0.00  0.00    -0.025 A 
ATOM     34  C   UNL     1      -5.278   0.588 -12.978  0.00  0.00    +0.008 A 
ATOM     35  C   UNL     1      -5.183   1.501 -14.007  0.00  0.00    +0.001 A 
ATOM     36  C   UNL     1      -4.609   1.133 -15.211  0.00  0.00    +0.000 A 
ATOM     37  C   UNL     1      -4.126  -0.151 -15.391  0.00  0.00    +0.001 A 
ATOM     38  C   UNL     1      -4.209  -1.072 -14.367  0.00  0.00    +0.008 A 
ENDBRANCH  32  33
ENDBRANCH  30  31
ENDBRANCH  26  30
ENDBRANCH  21  23
ENDBRANCH   2  21
TORSDOF 9
