REMARK  Name = ZINC65590028
REMARK  7 active torsions:
REMARK  status: ('A' for Active; 'I' for Inactive)
REMARK    1  A    between atoms: C_5  and  N_7
REMARK    2  A    between atoms: N_7  and  S_8
REMARK    3  A    between atoms: S_8  and  C_11
REMARK    4  A    between atoms: C_14  and  N_20
REMARK    5  A    between atoms: C_15  and  N_17
REMARK    6  A    between atoms: N_24  and  C_26
REMARK    7  A    between atoms: C_26  and  C_27
REMARK                            x       y       z     vdW  Elec       q    Type
REMARK                         _______ _______ _______ _____ _____    ______ ____
ROOT
ATOM      1  C   UNL     1       0.018  -2.646  -2.488  0.00  0.00    +0.111 A 
ATOM      2  C   UNL     1      -0.653  -1.616  -3.121  0.00  0.00    +0.031 A 
ATOM      3  C   UNL     1      -0.514  -1.433  -4.482  0.00  0.00    +0.027 A 
ATOM      4  C   UNL     1       0.301  -2.286  -5.217  0.00  0.00    +0.063 A 
ATOM      5  C   UNL     1       0.973  -3.320  -4.578  0.00  0.00    +0.149 A 
ATOM      6  C   UNL     1       0.834  -3.494  -3.214  0.00  0.00    +0.063 A 
ENDROOT
BRANCH   4   7
ATOM      7  N   UNL     1       0.443  -2.105  -6.595  0.00  0.00    -0.296 N 
ATOM      8  C   UNL     1       0.476  -0.812  -7.131  0.00  0.00    +0.145 A 
ATOM      9  C   UNL     1       0.516   0.385  -6.397  0.00  0.00    +0.065 A 
ATOM     10  C   UNL     1       0.539   1.411  -7.277  0.00  0.00    +0.111 A 
ATOM     11  N   UNL     1       0.514   0.889  -8.522  0.00  0.00    -0.261 N 
ATOM     12  N   UNL     1       0.480  -0.507  -8.407  0.00  0.00    -0.156 NA
ATOM     13  H   UNL     1       0.518  -2.875  -7.180  0.00  0.00    +0.154 HD
BRANCH  11  14
ATOM     14  C   UNL     1       0.526   1.649  -9.774  0.00  0.00    +0.238 C 
BRANCH  14  15
ATOM     15  C   UNL     1       1.670   1.181 -10.636  0.00  0.00    +0.232 C 
ATOM     16  O   UNL     1       2.403   0.298 -10.243  0.00  0.00    -0.274 OA
ATOM     17  N   UNL     1       1.878   1.742 -11.844  0.00  0.00    -0.328 N 
ATOM     18  H   UNL     1       1.291   2.447 -12.158  0.00  0.00    +0.145 HD
ATOM     19  H   UNL     1       2.614   1.440 -12.398  0.00  0.00    +0.145 HD
ENDBRANCH  14  15
ENDBRANCH  11  14
ENDBRANCH   4   7
BRANCH   1  20
ATOM     20  S   UNL     1      -0.162  -2.876  -0.750  0.00  0.00    +0.072 S 
ATOM     21  O   UNL     1       0.143  -4.238  -0.486  0.00  0.00    -0.150 OA
ATOM     22  O   UNL     1      -1.406  -2.291  -0.390  0.00  0.00    -0.150 OA
BRANCH  20  23
ATOM     23  N   UNL     1       1.016  -1.976  -0.013  0.00  0.00    -0.215 N 
ATOM     24  H   UNL     1       1.677  -2.409   0.549  0.00  0.00    +0.174 HD
BRANCH  23  29
ATOM     25  C   UNL     1      -0.079   1.499  -0.500  0.00  0.00    +0.002 A 
ATOM     26  C   UNL     1       1.139   2.150  -0.572  0.00  0.00    +0.002 A 
ATOM     27  C   UNL     1       2.317   1.435  -0.459  0.00  0.00    +0.022 A 
ATOM     28  C   UNL     1       2.280   0.066  -0.273  0.00  0.00    +0.063 A 
ATOM     29  C   UNL     1       1.057  -0.591  -0.200  0.00  0.00    +0.066 A 
ATOM     30  C   UNL     1      -0.123   0.131  -0.314  0.00  0.00    +0.026 A 
ATOM     31 CL   UNL     1       3.759  -0.833  -0.132  0.00  0.00    -0.082 Cl
ENDBRANCH  23  29
ENDBRANCH  20  23
ENDBRANCH   1  20
BRANCH   5  32
ATOM     32  N   UNL     1       1.842  -4.232  -5.356  0.00  0.00    +0.058 N 
ATOM     33  O   UNL     1       2.494  -5.077  -4.788  0.00  0.00    -0.126 OA
ATOM     34  O   UNL     1       1.900  -4.131  -6.559  0.00  0.00    -0.126 OA
ENDBRANCH   5  32
TORSDOF 7
