REMARK  Name = ZINC35432044
REMARK  7 active torsions:
REMARK  status: ('A' for Active; 'I' for Inactive)
REMARK    1  A    between atoms: C_1  and  C_2
REMARK    2  A    between atoms: C_5  and  N_8
REMARK    3  A    between atoms: C_17  and  S_18
REMARK    4  A    between atoms: S_18  and  C_19
REMARK    5  A    between atoms: C_19  and  C_20
REMARK    6  A    between atoms: N_22  and  C_23
REMARK    7  A    between atoms: C_33  and  C_35
REMARK                            x       y       z     vdW  Elec       q    Type
REMARK                         _______ _______ _______ _____ _____    ______ ____
ROOT
ATOM      1  N   UNL     1       0.059  -4.171  -0.021  0.00  0.00    -0.255 N 
ATOM      2  C   UNL     1       0.170  -4.837   1.144  0.00  0.00    +0.268 A 
ATOM      3  O   UNL     1       0.254  -4.229   2.197  0.00  0.00    -0.267 OA
ATOM      4  C   UNL     1       0.188  -6.267   1.129  0.00  0.00    +0.076 A 
ATOM      5  C   UNL     1       0.303  -7.184   2.265  0.00  0.00    -0.020 A 
ATOM      6  C   UNL     1       0.294  -8.504   1.986  0.00  0.00    +0.013 A 
ATOM      7  S   UNL     1       0.139  -8.605   0.224  0.00  0.00    -0.072 S 
ATOM      8  C   UNL     1       0.084  -6.868  -0.137  0.00  0.00    +0.117 A 
ATOM      9  N   UNL     1      -0.023  -6.154  -1.252  0.00  0.00    -0.215 NA
ATOM     10  C   UNL     1      -0.043  -4.837  -1.211  0.00  0.00    +0.178 A 
ATOM     11  C   UNL     1       0.390  -9.635   2.967  0.00  0.00    +0.150 C 
ATOM     12  N   UNL     1       0.731  -9.048   4.277  0.00  0.00    -0.297 N 
ATOM     13  C   UNL     1       0.043  -7.807   4.663  0.00  0.00    +0.113 C 
ATOM     14  C   UNL     1       0.433  -6.685   3.701  0.00  0.00    +0.056 C 
ATOM     15  C   UNL     1       1.638  -9.627   5.089  0.00  0.00    +0.213 C 
ATOM     16  O   UNL     1       1.901  -9.125   6.161  0.00  0.00    -0.276 OA
ATOM     17  C   UNL     1       2.325 -10.899   4.664  0.00  0.00    +0.109 C 
ENDROOT
BRANCH   1  22
ATOM     18  C   UNL     1      -0.017   1.503   0.008  0.00  0.00    +0.044 C 
ATOM     19  C   UNL     1       0.003  -0.004   0.001  0.00  0.00    -0.050 A 
ATOM     20  C   UNL     1       1.206  -0.678  -0.111  0.00  0.00    +0.005 A 
ATOM     21  C   UNL     1       1.227  -2.058  -0.118  0.00  0.00    +0.026 A 
ATOM     22  C   UNL     1       0.040  -2.771  -0.013  0.00  0.00    +0.052 A 
ATOM     23  C   UNL     1      -1.166  -2.091   0.099  0.00  0.00    +0.026 A 
ATOM     24  C   UNL     1      -1.180  -0.710   0.111  0.00  0.00    +0.005 A 
ENDBRANCH   1  22
BRANCH  10  25
ATOM     25  S   UNL     1      -0.193  -3.922  -2.709  0.00  0.00    -0.078 S 
BRANCH  25  26
ATOM     26  C   UNL     1      -0.295  -5.198  -3.994  0.00  0.00    +0.173 C 
BRANCH  26  27
ATOM     27  C   UNL     1      -0.429  -4.542  -5.344  0.00  0.00    +0.224 C 
ATOM     28  O   UNL     1      -0.453  -3.332  -5.431  0.00  0.00    -0.275 OA
ATOM     29  N   UNL     1      -0.522  -5.299  -6.455  0.00  0.00    -0.312 N 
ATOM     30  H   UNL     1      -0.502  -6.266  -6.386  0.00  0.00    +0.149 HD
BRANCH  29  31
ATOM     31  C   UNL     1      -0.652  -4.661  -7.768  0.00  0.00    +0.073 C 
ATOM     32  C   UNL     1       0.737  -4.307  -8.302  0.00  0.00    +0.022 C 
ATOM     33  C   UNL     1       0.602  -3.640  -9.673  0.00  0.00    +0.002 C 
ATOM     34  C   UNL     1      -0.087  -4.603 -10.642  0.00  0.00    +0.000 C 
ATOM     35  C   UNL     1      -1.477  -4.957 -10.107  0.00  0.00    +0.002 C 
ATOM     36  C   UNL     1      -1.341  -5.624  -8.737  0.00  0.00    +0.022 C 
ENDBRANCH  29  31
ENDBRANCH  26  27
ENDBRANCH  25  26
ENDBRANCH  10  25
TORSDOF 5
