REMARK  Name = ZINC13363604
REMARK  9 active torsions:
REMARK  status: ('A' for Active; 'I' for Inactive)
REMARK    1  A    between atoms: C_1  and  O_2
REMARK    2  A    between atoms: O_2  and  C_3
REMARK    3  A    between atoms: C_6  and  C_9
REMARK    4  A    between atoms: C_12  and  C_14
REMARK    5  A    between atoms: C_23  and  C_28
REMARK    6  A    between atoms: C_31  and  O_36
REMARK    7  A    between atoms: C_32  and  O_34
REMARK    8  A    between atoms: O_34  and  C_35
REMARK    9  A    between atoms: O_36  and  C_37
REMARK                            x       y       z     vdW  Elec       q    Type
REMARK                         _______ _______ _______ _____ _____    ______ ____
ROOT
ATOM      1  C   UNL     1      -9.535   1.857  -1.137  0.00  0.00    +0.072 A 
ATOM      2  C   UNL     1      -8.877   1.645   0.062  0.00  0.00    +0.029 A 
ATOM      3  C   UNL     1      -7.611   1.015   0.044  0.00  0.00    +0.037 A 
ATOM      4  C   UNL     1      -7.041   0.610  -1.149  0.00  0.00    +0.030 A 
ATOM      5  N   UNL     1      -7.682   0.820  -2.319  0.00  0.00    -0.325 N 
ATOM      6  H   UNL     1      -7.262   0.532  -3.144  0.00  0.00    +0.169 HD
ATOM      7  C   UNL     1      -8.885   1.416  -2.373  0.00  0.00    +0.259 A 
ATOM      8  O   UNL     1      -9.433   1.589  -3.447  0.00  0.00    -0.267 OA
ATOM      9  C   UNL     1      -5.699  -0.074  -1.187  0.00  0.00    +0.062 C 
ATOM     10  C   UNL     1      -4.871   0.257   0.051  0.00  0.00    +0.032 C 
ATOM     11  C   UNL     1      -5.680  -0.091   1.308  0.00  0.00    +0.088 C 
ATOM     12  C   UNL     1      -6.902   0.803   1.317  0.00  0.00    +0.165 C 
ATOM     13  O   UNL     1      -7.284   1.329   2.341  0.00  0.00    -0.292 OA
ENDROOT
BRANCH  10  14
ATOM     14  C   UNL     1      -3.596  -0.546   0.034  0.00  0.00    -0.040 A 
ATOM     15  C   UNL     1      -3.652  -1.928   0.027  0.00  0.00    +0.008 A 
ATOM     16  C   UNL     1      -2.485  -2.669   0.011  0.00  0.00    +0.049 A 
ATOM     17  C   UNL     1      -1.257  -2.028  -0.003  0.00  0.00    +0.161 A 
ATOM     18  C   UNL     1      -1.201  -0.638   0.010  0.00  0.00    +0.162 A 
ATOM     19  C   UNL     1      -2.374   0.099   0.025  0.00  0.00    +0.053 A 
BRANCH  18  20
ATOM     20  O   UNL     1       0.002  -0.004   0.002  0.00  0.00    -0.491 OA
ATOM     21  C   UNL     1      -0.017   1.425   0.010  0.00  0.00    +0.277 C 
ENDBRANCH  18  20
BRANCH  17  22
ATOM     22  O   UNL     1      -0.108  -2.756  -0.023  0.00  0.00    -0.491 OA
ATOM     23  C   UNL     1      -0.242  -4.179  -0.035  0.00  0.00    +0.277 C 
ENDBRANCH  17  22
ENDBRANCH  10  14
BRANCH   1  27
ATOM     24  C   UNL     1     -12.797   3.390  -2.054  0.00  0.00    +0.079 A 
ATOM     25  C   UNL     1     -13.221   3.722  -0.794  0.00  0.00    +0.075 A 
ATOM     26  S   UNL     1     -11.846   3.132   0.186  0.00  0.00    -0.075 S 
ATOM     27  C   UNL     1     -10.858   2.511  -1.169  0.00  0.00    +0.114 A 
ATOM     28  N   UNL     1     -11.626   2.799  -2.209  0.00  0.00    -0.239 NA
BRANCH  24  32
ATOM     29  C   UNL     1     -15.223   4.267  -5.436  0.00  0.00    +0.120 A 
ATOM     30  C   UNL     1     -13.995   3.642  -5.607  0.00  0.00    +0.046 A 
ATOM     31  C   UNL     1     -13.206   3.356  -4.513  0.00  0.00    +0.013 A 
ATOM     32  C   UNL     1     -13.643   3.696  -3.233  0.00  0.00    +0.001 A 
ATOM     33  C   UNL     1     -14.878   4.319  -3.064  0.00  0.00    +0.013 A 
ATOM     34  C   UNL     1     -15.660   4.606  -4.163  0.00  0.00    +0.046 A 
BRANCH  29  36
ATOM     35  C   UNL     1     -17.249   5.191  -6.268  0.00  0.00    +0.277 C 
ATOM     36  O   UNL     1     -15.998   4.547  -6.516  0.00  0.00    -0.495 OA
ENDBRANCH  29  36
ENDBRANCH  24  32
ENDBRANCH   1  27
TORSDOF 6
