REMARK  Name = ZINC35548787
REMARK  7 active torsions:
REMARK  status: ('A' for Active; 'I' for Inactive)
REMARK    1  A    between atoms: C_1  and  C_2
REMARK    2  A    between atoms: C_5  and  C_14
REMARK    3  A    between atoms: C_6  and  C_7
REMARK    4  A    between atoms: C_6  and  C_8
REMARK    5  A    between atoms: N_16  and  N_17
REMARK    6  A    between atoms: C_18  and  C_20
REMARK    7  A    between atoms: C_25  and  N_26
REMARK                            x       y       z     vdW  Elec       q    Type
REMARK                         _______ _______ _______ _____ _____    ______ ____
ROOT
ATOM      1  C   UNL     1       1.065  -4.194   2.349  0.00  0.00    +0.237 C 
ATOM      2  O   UNL     1       1.607  -3.448   3.136  0.00  0.00    -0.274 OA
ATOM      3  N   UNL     1       0.685  -5.426   2.740  0.00  0.00    -0.234 N 
ATOM      4  H   UNL     1       0.251  -6.023   2.111  0.00  0.00    +0.173 HD
ENDROOT
BRANCH   1   9
ATOM      5  C   UNL     1       1.060  -1.078  -1.755  0.00  0.00    +0.020 C 
ATOM      6  C   UNL     1       0.818  -2.342  -0.928  0.00  0.00    +0.033 C 
ATOM      7  C   UNL     1      -0.672  -2.769  -0.759  0.00  0.00    +0.016 C 
ATOM      8  C   UNL     1      -0.675  -3.695   0.479  0.00  0.00    +0.019 C 
ATOM      9  C   UNL     1       0.817  -3.744   0.932  0.00  0.00    +0.073 C 
ATOM     10  C   UNL     1       1.276  -2.286   0.572  0.00  0.00    -0.007 C 
ATOM     11  C   UNL     1       2.790  -2.110   0.705  0.00  0.00    +0.013 C 
ATOM     12  C   UNL     1       0.509  -1.228   1.369  0.00  0.00    +0.013 C 
ATOM     13  C   UNL     1       1.536  -4.546  -0.196  0.00  0.00    +0.139 C 
ATOM     14  C   UNL     1       1.548  -3.605  -1.405  0.00  0.00    +0.154 C 
ATOM     15  O   UNL     1       2.012  -3.813  -2.501  0.00  0.00    -0.296 OA
ATOM     16 BR   UNL     1       3.380  -4.973   0.338  0.00  0.00    -0.079 Br
ENDBRANCH   1   9
BRANCH   3  17
ATOM     17  N   UNL     1       0.915  -5.845   4.057  0.00  0.00    -0.230 N 
ATOM     18  C   UNL     1       0.535  -7.077   4.449  0.00  0.00    +0.262 C 
ATOM     19  O   UNL     1      -0.008  -7.825   3.660  0.00  0.00    -0.269 OA
ATOM     20  H   UNL     1       1.349  -5.248   4.687  0.00  0.00    +0.173 HD
BRANCH  18  21
ATOM     21  C   UNL     1       0.778  -7.519   5.839  0.00  0.00    +0.068 A 
ATOM     22  C   UNL     1       2.058  -7.429   6.389  0.00  0.00    +0.015 A 
ATOM     23  C   UNL     1       2.278  -7.842   7.686  0.00  0.00    +0.001 A 
ATOM     24  C   UNL     1       1.234  -8.345   8.442  0.00  0.00    +0.002 A 
ATOM     25  C   UNL     1      -0.037  -8.438   7.903  0.00  0.00    +0.033 A 
ATOM     26  C   UNL     1      -0.272  -8.022   6.608  0.00  0.00    +0.138 A 
BRANCH  26  27
ATOM     27  N   UNL     1      -1.633  -8.116   6.035  0.00  0.00    +0.057 N 
ATOM     28  O   UNL     1      -2.515  -8.662   6.656  0.00  0.00    -0.126 OA
ATOM     29  O   UNL     1      -1.863  -7.646   4.945  0.00  0.00    -0.126 OA
ENDBRANCH  26  27
ENDBRANCH  18  21
ENDBRANCH   3  17
TORSDOF 4
