REMARK  Name = ZINC64870258
REMARK  7 active torsions:
REMARK  status: ('A' for Active; 'I' for Inactive)
REMARK    1  A    between atoms: C_1  and  O_2
REMARK    2  A    between atoms: O_2  and  C_3
REMARK    3  A    between atoms: C_6  and  C_9
REMARK    4  A    between atoms: C_9  and  N_10
REMARK    5  A    between atoms: C_16  and  C_23
REMARK    6  A    between atoms: C_26  and  C_30
REMARK    7  A    between atoms: C_34  and  C_36
REMARK                            x       y       z     vdW  Elec       q    Type
REMARK                         _______ _______ _______ _____ _____    ______ ____
ROOT
ATOM      1  N   UNL     1       1.529  -2.738   5.315  0.00  0.00    -0.256 N 
ATOM      2  C   UNL     1       1.430  -1.855   6.333  0.00  0.00    +0.265 A 
ATOM      3  O   UNL     1       2.128  -0.860   6.365  0.00  0.00    -0.267 OA
ATOM      4  C   UNL     1       0.454  -2.130   7.403  0.00  0.00    +0.063 A 
ATOM      5  C   UNL     1       0.292  -1.269   8.486  0.00  0.00    +0.016 A 
ATOM      6  C   UNL     1      -0.635  -1.571   9.461  0.00  0.00    +0.008 A 
ATOM      7  C   UNL     1      -1.402  -2.722   9.368  0.00  0.00    -0.000 A 
ATOM      8  C   UNL     1      -1.251  -3.584   8.300  0.00  0.00    +0.034 A 
ATOM      9  C   UNL     1      -0.325  -3.297   7.309  0.00  0.00    +0.056 A 
ATOM     10  N   UNL     1      -0.142  -4.136   6.219  0.00  0.00    -0.307 N 
ATOM     11  H   UNL     1      -0.672  -4.944   6.141  0.00  0.00    +0.170 HD
ATOM     12  C   UNL     1       0.759  -3.836   5.268  0.00  0.00    +0.330 A 
ATOM     13  O   UNL     1       0.885  -4.595   4.326  0.00  0.00    -0.246 OA
ENDROOT
BRANCH   7  14
ATOM     14  C   UNL     1      -2.410  -3.036  10.443  0.00  0.00    +0.242 C 
ATOM     15  N   UNL     1      -2.170  -4.396  10.977  0.00  0.00    -0.265 NA
ATOM     16  C   UNL     1      -3.535  -4.935  11.220  0.00  0.00    +0.180 C 
ATOM     17  N   UNL     1      -4.305  -4.368  10.080  0.00  0.00    -0.177 NA
ATOM     18  O   UNL     1      -3.735  -3.019   9.891  0.00  0.00    -0.274 OA
ATOM     19  H   UNL     1      -1.671  -4.963  10.308  0.00  0.00    +0.127 HD
ATOM     20  H   UNL     1      -4.189  -4.931   9.251  0.00  0.00    +0.156 HD
BRANCH  16  21
ATOM     21  C   UNL     1      -3.532  -6.441  11.176  0.00  0.00    -0.014 A 
ATOM     22  C   UNL     1      -2.403  -7.142  11.556  0.00  0.00    +0.006 A 
ATOM     23  C   UNL     1      -2.401  -8.523  11.515  0.00  0.00    +0.001 A 
ATOM     24  C   UNL     1      -3.528  -9.204  11.095  0.00  0.00    +0.012 A 
ATOM     25  C   UNL     1      -4.658  -8.504  10.716  0.00  0.00    +0.055 A 
ATOM     26  C   UNL     1      -4.661  -7.122  10.760  0.00  0.00    +0.019 A 
BRANCH  25  27
ATOM     27  C   UNL     1      -5.886  -9.246  10.257  0.00  0.00    +0.417 C 
ATOM     28  F   UNL     1      -5.643 -10.623  10.302  0.00  0.00    -0.166 F 
ATOM     29  F   UNL     1      -6.960  -8.935  11.099  0.00  0.00    -0.166 F 
ATOM     30  F   UNL     1      -6.197  -8.869   8.946  0.00  0.00    -0.166 F 
ENDBRANCH  25  27
ENDBRANCH  16  21
ENDBRANCH   7  14
BRANCH   1  31
ATOM     31  C   UNL     1       2.490  -2.488   4.238  0.00  0.00    +0.165 C 
BRANCH  31  35
ATOM     32  C   UNL     1       0.619  -0.190   1.160  0.00  0.00    +0.120 A 
ATOM     33  C   UNL     1       1.270   0.449   2.205  0.00  0.00    +0.046 A 
ATOM     34  C   UNL     1       1.874  -0.296   3.199  0.00  0.00    +0.009 A 
ATOM     35  C   UNL     1       1.830  -1.677   3.153  0.00  0.00    -0.027 A 
ATOM     36  C   UNL     1       1.182  -2.316   2.112  0.00  0.00    +0.009 A 
ATOM     37  C   UNL     1       0.571  -1.575   1.119  0.00  0.00    +0.046 A 
BRANCH  32  39
ATOM     38  C   UNL     1       0.112   1.963   0.288  0.00  0.00    +0.277 C 
ATOM     39  O   UNL     1       0.023   0.541   0.181  0.00  0.00    -0.495 OA
ENDBRANCH  32  39
ENDBRANCH  31  35
ENDBRANCH   1  31
TORSDOF 6
