REMARK  Name = ZINC08738878
REMARK  13 active torsions:
REMARK  status: ('A' for Active; 'I' for Inactive)
REMARK    1  A    between atoms: C_1  and  C_2
REMARK    2  A    between atoms: N_4  and  C_5
REMARK    3  A    between atoms: C_8  and  S_11
REMARK    4  A    between atoms: S_11  and  N_14
REMARK    5  A    between atoms: N_14  and  C_15
REMARK    6  A    between atoms: N_14  and  C_23
REMARK    7  A    between atoms: C_15  and  C_16
REMARK    8  A    between atoms: C_16  and  C_17
REMARK    9  A    between atoms: C_23  and  C_24
REMARK   10  A    between atoms: N_26  and  N_27
REMARK   11  A    between atoms: C_28  and  C_29
REMARK   12  A    between atoms: C_32  and  S_35
REMARK   13  A    between atoms: S_35  and  C_36
REMARK                            x       y       z     vdW  Elec       q    Type
REMARK                         _______ _______ _______ _____ _____    ______ ____
ROOT
ATOM      1  N   UNL     1      -5.425   4.326   1.766  0.00  0.00    -0.167 NA
ENDROOT
BRANCH   1   2
ATOM      2  S   UNL     1      -5.112   3.982   0.176  0.00  0.00    +0.061 S 
ATOM      3  O   UNL     1      -4.870   5.226  -0.468  0.00  0.00    -0.153 OA
ATOM      4  O   UNL     1      -6.128   3.087  -0.253  0.00  0.00    -0.153 OA
BRANCH   2   8
ATOM      5  C   UNL     1      -1.215   1.678   0.048  0.00  0.00    +0.033 A 
ATOM      6  C   UNL     1      -1.206   3.064  -0.030  0.00  0.00    +0.025 A 
ATOM      7  C   UNL     1      -2.397   3.764   0.003  0.00  0.00    +0.030 A 
ATOM      8  C   UNL     1      -3.595   3.086   0.127  0.00  0.00    +0.106 A 
ATOM      9  C   UNL     1      -3.607   1.706   0.210  0.00  0.00    +0.030 A 
ATOM     10  C   UNL     1      -2.421   1.000   0.171  0.00  0.00    +0.025 A 
BRANCH   5  14
ATOM     11  C   UNL     1       1.357  -0.960  -0.728  0.00  0.00    +0.109 C 
ATOM     12  C   UNL     1       0.040  -0.237  -0.598  0.00  0.00    +0.214 C 
ATOM     13  O   UNL     1      -0.973  -0.738  -1.038  0.00  0.00    -0.276 OA
ATOM     14  N   UNL     1      -0.011   0.966   0.007  0.00  0.00    -0.286 N 
ATOM     15  H   UNL     1       0.785   1.336   0.419  0.00  0.00    +0.155 HD
ENDBRANCH   5  14
ENDBRANCH   2   8
ENDBRANCH   1   2
BRANCH   1  16
ATOM     16  C   UNL     1      -6.204   3.389   2.578  0.00  0.00    +0.114 C 
BRANCH  16  17
ATOM     17  C   UNL     1      -5.255   2.466   3.344  0.00  0.00    +0.052 C 
BRANCH  17  18
ATOM     18  C   UNL     1      -6.056   1.501   4.180  0.00  0.00    -0.046 A 
ATOM     19  C   UNL     1      -6.401   1.832   5.477  0.00  0.00    +0.003 A 
ATOM     20  C   UNL     1      -7.141   0.949   6.242  0.00  0.00    +0.000 A 
ATOM     21  C   UNL     1      -7.527  -0.268   5.713  0.00  0.00    +0.000 A 
ATOM     22  C   UNL     1      -7.177  -0.601   4.418  0.00  0.00    +0.000 A 
ATOM     23  C   UNL     1      -6.442   0.283   3.651  0.00  0.00    +0.003 A 
ENDBRANCH  17  18
ENDBRANCH  16  17
ENDBRANCH   1  16
BRANCH   1  24
ATOM     24  C   UNL     1      -4.923   5.568   2.360  0.00  0.00    +0.206 C 
BRANCH  24  25
ATOM     25  C   UNL     1      -5.994   6.625   2.293  0.00  0.00    +0.248 C 
ATOM     26  O   UNL     1      -7.071   6.367   1.798  0.00  0.00    -0.273 OA
ATOM     27  N   UNL     1      -5.755   7.858   2.783  0.00  0.00    -0.206 N 
ATOM     28  H   UNL     1      -4.894   8.064   3.179  0.00  0.00    +0.177 HD
BRANCH  27  29
ATOM     29  N   UNL     1      -6.751   8.841   2.721  0.00  0.00    -0.188 NA
ATOM     30  C   UNL     1      -6.521  10.029   3.194  0.00  0.00    +0.138 C 
BRANCH  30  31
ATOM     31  C   UNL     1      -7.569  11.063   3.129  0.00  0.00    -0.005 A 
ATOM     32  C   UNL     1      -8.809  10.769   2.554  0.00  0.00    +0.010 A 
ATOM     33  C   UNL     1      -9.787  11.737   2.499  0.00  0.00    +0.015 A 
ATOM     34  C   UNL     1      -9.539  13.009   3.005  0.00  0.00    +0.008 A 
ATOM     35  C   UNL     1      -8.304  13.306   3.574  0.00  0.00    +0.015 A 
ATOM     36  C   UNL     1      -7.323  12.342   3.637  0.00  0.00    +0.010 A 
BRANCH  34  37
ATOM     37  S   UNL     1     -10.791  14.246   2.926  0.00  0.00    -0.129 S 
ATOM     38  C   UNL     1     -12.185  13.409   2.123  0.00  0.00    +0.090 C 
ENDBRANCH  34  37
ENDBRANCH  30  31
ENDBRANCH  27  29
ENDBRANCH  24  25
ENDBRANCH   1  24
TORSDOF 11
