REMARK  Name = ZINC03807307
REMARK  10 active torsions:
REMARK  status: ('A' for Active; 'I' for Inactive)
REMARK    1  A    between atoms: C_6  and  S_11
REMARK    2  A    between atoms: S_11  and  N_14
REMARK    3  A    between atoms: N_14  and  C_15
REMARK    4  A    between atoms: C_15  and  C_16
REMARK    5  A    between atoms: N_18  and  C_19
REMARK    6  A    between atoms: C_19  and  C_21
REMARK    7  A    between atoms: C_19  and  C_29
REMARK    8  A    between atoms: C_21  and  C_22
REMARK    9  A    between atoms: C_22  and  N_23
REMARK   10  A    between atoms: N_23  and  C_24
REMARK                            x       y       z     vdW  Elec       q    Type
REMARK                         _______ _______ _______ _____ _____    ______ ____
ROOT
ATOM      1  C   UNL     1       2.600   0.508   1.470  0.00  0.00    +0.229 C 
ATOM      2  O   UNL     1       2.050   1.031   2.416  0.00  0.00    -0.274 OA
ATOM      3  N   UNL     1       2.305   0.904   0.215  0.00  0.00    -0.303 N 
ATOM      4  H   UNL     1       2.744   0.486  -0.541  0.00  0.00    +0.149 HD
ENDROOT
BRANCH   1   5
ATOM      5  C   UNL     1       3.614  -0.584   1.696  0.00  0.00    +0.201 C 
BRANCH   5   6
ATOM      6  N   UNL     1       3.756  -0.828   3.134  0.00  0.00    -0.181 NA
ATOM      7  H   UNL     1       3.410  -0.184   3.771  0.00  0.00    +0.149 HD
BRANCH   6   8
ATOM      8  S   UNL     1       4.506  -2.203   3.670  0.00  0.00    +0.059 S 
ATOM      9  O   UNL     1       4.510  -2.136   5.089  0.00  0.00    -0.153 OA
ATOM     10  O   UNL     1       3.924  -3.287   2.960  0.00  0.00    -0.153 OA
BRANCH   8  16
ATOM     11  C   UNL     1      11.091  -1.333   2.724  0.00  0.00    +0.001 A 
ATOM     12  C   UNL     1      10.721  -0.808   3.961  0.00  0.00    +0.001 A 
ATOM     13  C   UNL     1       9.430  -0.862   4.386  0.00  0.00    +0.008 A 
ATOM     14  C   UNL     1       8.452  -1.455   3.569  0.00  0.00    -0.016 A 
ATOM     15  C   UNL     1       7.109  -1.529   3.975  0.00  0.00    +0.037 A 
ATOM     16  C   UNL     1       6.190  -2.111   3.157  0.00  0.00    +0.106 A 
ATOM     17  C   UNL     1       6.561  -2.641   1.923  0.00  0.00    +0.029 A 
ATOM     18  C   UNL     1       7.851  -2.582   1.494  0.00  0.00    +0.010 A 
ATOM     19  C   UNL     1       8.829  -1.989   2.312  0.00  0.00    -0.018 A 
ATOM     20  C   UNL     1      10.172  -1.915   1.906  0.00  0.00    +0.008 A 
ENDBRANCH   8  16
ENDBRANCH   6   8
ENDBRANCH   5   6
ENDBRANCH   1   5
BRANCH   3  21
ATOM     21  C   UNL     1       1.319   1.966  -0.005  0.00  0.00    +0.160 C 
BRANCH  21  22
ATOM     22  C   UNL     1      -0.065   1.371  -0.021  0.00  0.00    +0.236 C 
ATOM     23  O   UNL     1      -0.222   0.208  -0.330  0.00  0.00    -0.274 OA
ATOM     24  N   UNL     1      -1.129   2.131   0.302  0.00  0.00    -0.300 N 
ATOM     25  C   UNL     1      -0.969   3.566   0.575  0.00  0.00    +0.108 C 
ATOM     26  C   UNL     1      -1.940   4.346  -0.324  0.00  0.00    +0.019 C 
ATOM     27  C   UNL     1      -3.361   3.821  -0.106  0.00  0.00    +0.003 C 
ATOM     28  C   UNL     1      -3.425   2.342  -0.497  0.00  0.00    +0.019 C 
ATOM     29  C   UNL     1      -2.471   1.541   0.394  0.00  0.00    +0.108 C 
ENDBRANCH  21  22
BRANCH  21  30
ATOM     30  C   UNL     1       1.597   2.648  -1.346  0.00  0.00    +0.050 C 
BRANCH  30  31
ATOM     31  C   UNL     1       2.945   3.370  -1.282  0.00  0.00    +0.104 C 
BRANCH  31  32
ATOM     32  N   UNL     1       3.210   4.024  -2.565  0.00  0.00    -0.344 N 
ATOM     33  H   UNL     1       2.567   3.953  -3.288  0.00  0.00    +0.146 HD
BRANCH  32  34
ATOM     34  C   UNL     1       4.385   4.747  -2.748  0.00  0.00    +0.030 A 
ATOM     35  C   UNL     1       5.320   4.865  -1.720  0.00  0.00    +0.040 A 
ATOM     36  C   UNL     1       6.474   5.586  -1.943  0.00  0.00    +0.084 A 
ATOM     37  C   UNL     1       5.832   6.083  -4.103  0.00  0.00    +0.084 A 
ATOM     38  C   UNL     1       4.656   5.376  -3.963  0.00  0.00    +0.040 A 
ATOM     39  N   UNL     1       6.762   6.209  -3.118  0.00  0.00    -0.367 N 
ATOM     40  H   UNL     1       7.629   6.742  -3.253  0.00  0.00    +0.165 HD
ENDBRANCH  32  34
ENDBRANCH  31  32
ENDBRANCH  30  31
ENDBRANCH  21  30
ENDBRANCH   3  21
TORSDOF 10
