REMARK  Name = ZINC46803820
REMARK  4 active torsions:
REMARK  status: ('A' for Active; 'I' for Inactive)
REMARK    1  A    between atoms: C_7  and  C_11
REMARK    2  A    between atoms: C_11  and  C_12
REMARK    3  A    between atoms: C_20  and  C_22
REMARK    4  A    between atoms: C_22  and  C_23
REMARK                            x       y       z     vdW  Elec       q    Type
REMARK                         _______ _______ _______ _____ _____    ______ ____
ROOT
ATOM      1  C   UNL     1       0.243  -3.584  -1.435  0.00  0.00    +0.220 C 
ATOM      2  O   UNL     1       0.661  -2.912  -2.353  0.00  0.00    -0.275 OA
ATOM      3  N   UNL     1      -0.600  -4.607  -1.677  0.00  0.00    -0.298 N 
ATOM      4  C   UNL     1      -1.120  -5.426  -0.573  0.00  0.00    +0.126 C 
ATOM      5  C   UNL     1      -2.652  -5.417  -0.634  0.00  0.00    +0.126 C 
ATOM      6  N   UNL     1      -3.069  -5.733  -2.007  0.00  0.00    -0.298 N 
ATOM      7  C   UNL     1      -2.550  -4.914  -3.112  0.00  0.00    +0.126 C 
ATOM      8  C   UNL     1      -1.022  -4.920  -3.050  0.00  0.00    +0.126 C 
ATOM      9  C   UNL     1      -3.912  -6.756  -2.250  0.00  0.00    +0.220 C 
ATOM     10  O   UNL     1      -4.334  -7.425  -1.330  0.00  0.00    -0.275 OA
ENDROOT
BRANCH   1  11
ATOM     11  C   UNL     1       0.666  -3.275  -0.021  0.00  0.00    +0.133 C 
BRANCH  11  18
ATOM     12  C   UNL     1      -0.017   1.362   0.009  0.00  0.00    +0.001 A 
ATOM     13  C   UNL     1       1.169   2.083   0.002  0.00  0.00    +0.002 A 
ATOM     14  C   UNL     1       2.386   1.436  -0.013  0.00  0.00    +0.026 A 
ATOM     15  C   UNL     1       2.428   0.046  -0.021  0.00  0.00    +0.047 A 
ATOM     16  C   UNL     1       1.223  -0.681  -0.013  0.00  0.00    +0.003 A 
ATOM     17  C   UNL     1       0.002  -0.004   0.002  0.00  0.00    +0.010 A 
ATOM     18  C   UNL     1       1.603  -2.095  -0.025  0.00  0.00    -0.014 A 
ATOM     19  C   UNL     1       2.945  -2.141  -0.038  0.00  0.00    +0.087 A 
ATOM     20  N   UNL     1       3.455  -0.871  -0.036  0.00  0.00    -0.360 N 
ATOM     21  H   UNL     1       4.399  -0.650  -0.044  0.00  0.00    +0.165 HD
ENDBRANCH  11  18
ENDBRANCH   1  11
BRANCH   9  22
ATOM     22  C   UNL     1      -4.331  -7.069  -3.663  0.00  0.00    +0.133 C 
BRANCH  22  23
ATOM     23  C   UNL     1      -5.269  -8.248  -3.660  0.00  0.00    -0.014 A 
ATOM     24  C   UNL     1      -4.935  -9.534  -3.847  0.00  0.00    +0.087 A 
ATOM     25  N   UNL     1      -6.052 -10.322  -3.776  0.00  0.00    -0.360 N 
ATOM     26  H   UNL     1      -6.061 -11.286  -3.879  0.00  0.00    +0.165 HD
ATOM     27  C   UNL     1      -7.160  -9.541  -3.535  0.00  0.00    +0.047 A 
ATOM     28  C   UNL     1      -6.718  -8.208  -3.446  0.00  0.00    +0.003 A 
ATOM     29  C   UNL     1      -7.635  -7.185  -3.199  0.00  0.00    +0.010 A 
ATOM     30  C   UNL     1      -8.959  -7.484  -3.041  0.00  0.00    +0.001 A 
ATOM     31  C   UNL     1      -9.400  -8.797  -3.125  0.00  0.00    +0.002 A 
ATOM     32  C   UNL     1      -8.513  -9.822  -3.375  0.00  0.00    +0.026 A 
ENDBRANCH  22  23
ENDBRANCH   9  22
TORSDOF 4
