REMARK  Name = ZINC00915115
REMARK  11 active torsions:
REMARK  status: ('A' for Active; 'I' for Inactive)
REMARK    1  A    between atoms: C_1  and  O_2
REMARK    2  A    between atoms: O_2  and  C_3
REMARK    3  A    between atoms: C_5  and  C_13
REMARK    4  A    between atoms: C_7  and  O_11
REMARK    5  A    between atoms: C_8  and  O_9
REMARK    6  A    between atoms: O_9  and  C_10
REMARK    7  A    between atoms: O_11  and  C_12
REMARK    8  A    between atoms: C_15  and  C_27
REMARK    9  A    between atoms: C_17  and  C_22
REMARK   10  A    between atoms: C_17  and  O_26
REMARK   11  A    between atoms: C_27  and  C_29
REMARK                            x       y       z     vdW  Elec       q    Type
REMARK                         _______ _______ _______ _____ _____    ______ ____
ROOT
ATOM      1  C   UNL     1      -4.871   0.264   0.038  0.00  0.00    +0.120 C 
ATOM      2  C   UNL     1      -5.450   0.325  -1.379  0.00  0.00    +0.145 C 
ATOM      3  C   UNL     1      -6.800   1.049  -1.324  0.00  0.00    +0.243 C 
ATOM      4  N   UNL     1      -7.669   0.372  -0.360  0.00  0.00    -0.264 N 
ATOM      5  C   UNL     1      -7.163  -0.284   0.695  0.00  0.00    +0.302 C 
ATOM      6  O   UNL     1      -7.930  -0.821   1.471  0.00  0.00    -0.253 OA
ATOM      7  N   UNL     1      -5.845  -0.370   0.929  0.00  0.00    -0.292 N 
ATOM      8  H   UNL     1      -8.630   0.398  -0.487  0.00  0.00    +0.153 HD
ATOM      9  H   UNL     1      -5.530  -0.863   1.703  0.00  0.00    +0.151 HD
ENDROOT
BRANCH   1  12
ATOM     10  C   UNL     1      -1.201  -0.638   0.010  0.00  0.00    +0.165 A 
ATOM     11  C   UNL     1      -2.375   0.101   0.019  0.00  0.00    +0.055 A 
ATOM     12  C   UNL     1      -3.598  -0.543   0.028  0.00  0.00    -0.019 A 
ATOM     13  C   UNL     1      -3.657  -1.924   0.027  0.00  0.00    +0.055 A 
ATOM     14  C   UNL     1      -2.488  -2.670   0.017  0.00  0.00    +0.165 A 
ATOM     15  C   UNL     1      -1.256  -2.027   0.003  0.00  0.00    +0.204 A 
BRANCH  10  17
ATOM     16  C   UNL     1      -0.017   1.425   0.010  0.00  0.00    +0.277 C 
ATOM     17  O   UNL     1       0.002  -0.004   0.002  0.00  0.00    -0.491 OA
ENDBRANCH  10  17
BRANCH  15  18
ATOM     18  O   UNL     1      -0.106  -2.755  -0.012  0.00  0.00    -0.488 OA
ATOM     19  C   UNL     1       0.454  -3.109   1.254  0.00  0.00    +0.277 C 
ENDBRANCH  15  18
BRANCH  14  20
ATOM     20  O   UNL     1      -2.547  -4.028   0.017  0.00  0.00    -0.491 OA
ATOM     21  C   UNL     1      -3.847  -4.621   0.026  0.00  0.00    +0.277 C 
ENDBRANCH  14  20
ENDBRANCH   1  12
BRANCH   3  22
ATOM     22  C   UNL     1      -7.452   1.022  -2.708  0.00  0.00    +0.436 C 
ATOM     23  F   UNL     1      -7.651  -0.305  -3.103  0.00  0.00    -0.166 F 
ATOM     24  F   UNL     1      -8.684   1.683  -2.656  0.00  0.00    -0.166 F 
ATOM     25  F   UNL     1      -6.617   1.663  -3.629  0.00  0.00    -0.166 F 
ENDBRANCH   3  22
BRANCH   3  26
ATOM     26  O   UNL     1      -6.599   2.404  -0.915  0.00  0.00    -0.364 OA
ATOM     27  H   UNL     1      -7.413   2.922  -0.859  0.00  0.00    +0.212 HD
ENDBRANCH   3  26
BRANCH   2  28
ATOM     28  C   UNL     1      -4.505   1.077  -2.280  0.00  0.00    +0.179 C 
ATOM     29  O   UNL     1      -3.735   1.890  -1.809  0.00  0.00    -0.291 OA
BRANCH  28  30
ATOM     30  C   UNL     1      -4.514   0.838  -3.672  0.00  0.00    +0.055 A 
ATOM     31  C   UNL     1      -3.730   1.413  -4.667  0.00  0.00    +0.019 A 
ATOM     32  C   UNL     1      -3.971   0.973  -5.943  0.00  0.00    +0.008 A 
ATOM     33  C   UNL     1      -4.931   0.034  -6.148  0.00  0.00    +0.046 A 
ATOM     34  S   UNL     1      -5.529  -0.287  -4.611  0.00  0.00    -0.094 S 
ENDBRANCH  28  30
ENDBRANCH   2  28
TORSDOF 8
