REMARK  Name = ZINC39691302
REMARK  7 active torsions:
REMARK  status: ('A' for Active; 'I' for Inactive)
REMARK    1  A    between atoms: C_1  and  C_2
REMARK    2  A    between atoms: C_6  and  C_15
REMARK    3  A    between atoms: N_17  and  C_18
REMARK    4  A    between atoms: C_18  and  C_19
REMARK    5  A    between atoms: C_19  and  N_20
REMARK    6  A    between atoms: C_21  and  C_23
REMARK    7  A    between atoms: C_23  and  C_24
REMARK                            x       y       z     vdW  Elec       q    Type
REMARK                         _______ _______ _______ _____ _____    ______ ____
ROOT
ATOM      1  C   UNL     1      -4.721  -1.307  -0.394  0.00  0.00    +0.218 C 
ATOM      2  O   UNL     1      -5.118  -2.433  -0.182  0.00  0.00    -0.275 OA
ATOM      3  N   UNL     1      -5.526  -0.253  -0.155  0.00  0.00    -0.314 N 
ATOM      4  H   UNL     1      -5.208   0.648  -0.325  0.00  0.00    +0.149 HD
ENDROOT
BRANCH   1  10
ATOM      5  C   UNL     1       0.572  -2.764  -0.213  0.00  0.00    +0.109 C 
ATOM      6  C   UNL     1      -0.152  -2.717  -1.534  0.00  0.00    +0.212 C 
ATOM      7  O   UNL     1       0.456  -2.908  -2.566  0.00  0.00    -0.276 OA
ATOM      8  N   UNL     1      -1.475  -2.463  -1.568  0.00  0.00    -0.300 N 
ATOM      9  C   UNL     1      -2.380  -2.200  -0.424  0.00  0.00    +0.121 C 
ATOM     10  C   UNL     1      -3.328  -1.086  -0.923  0.00  0.00    +0.100 C 
ATOM     11  C   UNL     1      -3.308  -1.213  -2.456  0.00  0.00    -0.004 C 
ATOM     12  C   UNL     1      -2.354  -2.377  -2.760  0.00  0.00    +0.115 C 
ATOM     13  C   UNL     1      -2.780   0.072  -3.086  0.00  0.00    -0.010 C 
ATOM     14  C   UNL     1      -2.824  -0.057  -4.611  0.00  0.00    -0.082 C 
ATOM     15  N   UNL     1      -4.205  -0.306  -5.043  0.00  0.00    +0.379 N 
ATOM     16  C   UNL     1      -4.673  -1.590  -4.508  0.00  0.00    -0.082 C 
ATOM     17  C   UNL     1      -4.707  -1.526  -2.978  0.00  0.00    -0.010 C 
ATOM     18  H   UNL     1      -4.801   0.435  -4.705  0.00  0.00    -0.086 HD
ATOM     19  H   UNL     1      -4.241  -0.330  -6.051  0.00  0.00    -0.086 HD
ENDBRANCH   1  10
BRANCH   3  20
ATOM     20  C   UNL     1      -6.881  -0.467   0.359  0.00  0.00    +0.123 C 
BRANCH  20  21
ATOM     21  C   UNL     1      -7.577   0.883   0.541  0.00  0.00    +0.123 C 
BRANCH  21  22
ATOM     22  N   UNL     1      -8.932   0.669   1.056  0.00  0.00    -0.314 N 
ATOM     23  C   UNL     1      -9.736   1.724   1.294  0.00  0.00    +0.217 C 
ATOM     24  O   UNL     1      -9.339   2.850   1.083  0.00  0.00    -0.275 OA
ATOM     25  H   UNL     1      -9.249  -0.232   1.225  0.00  0.00    +0.149 HD
BRANCH  23  26
ATOM     26  C   UNL     1     -11.130   1.503   1.824  0.00  0.00    +0.131 C 
BRANCH  26  27
ATOM     27  C   UNL     1     -11.816   2.833   2.003  0.00  0.00    -0.031 A 
ATOM     28  C   UNL     1     -11.799   3.454   3.214  0.00  0.00    +0.005 A 
ATOM     29  C   UNL     1     -12.428   4.684   3.398  0.00  0.00    +0.001 A 
ATOM     30  C   UNL     1     -13.077   5.300   2.372  0.00  0.00    +0.008 A 
ATOM     31  C   UNL     1     -13.115   4.689   1.107  0.00  0.00    -0.018 A 
ATOM     32  C   UNL     1     -12.471   3.441   0.918  0.00  0.00    -0.014 A 
ATOM     33  C   UNL     1     -12.504   2.833  -0.348  0.00  0.00    +0.009 A 
ATOM     34  C   UNL     1     -13.148   3.452  -1.375  0.00  0.00    +0.001 A 
ATOM     35  C   UNL     1     -13.777   4.683  -1.191  0.00  0.00    +0.001 A 
ATOM     36  C   UNL     1     -13.776   5.294   0.025  0.00  0.00    +0.008 A 
ENDBRANCH  26  27
ENDBRANCH  23  26
ENDBRANCH  21  22
ENDBRANCH  20  21
ENDBRANCH   3  20
TORSDOF 6
