REMARK  Name = ZINC06768744
REMARK  6 active torsions:
REMARK  status: ('A' for Active; 'I' for Inactive)
REMARK    1  A    between atoms: C_1  and  C_2
REMARK    2  A    between atoms: C_7  and  N_12
REMARK    3  A    between atoms: C_9  and  C_11
REMARK    4  A    between atoms: N_12  and  C_13
REMARK    5  A    between atoms: C_14  and  C_24
REMARK    6  A    between atoms: C_21  and  C_22
REMARK                            x       y       z     vdW  Elec       q    Type
REMARK                         _______ _______ _______ _____ _____    ______ ____
ROOT
ATOM      1  C   UNL     1       2.062   2.936  -0.002  0.00  0.00    +0.147 A 
ATOM      2  C   UNL     1       3.367   2.581  -0.016  0.00  0.00    +0.088 A 
ATOM      3  N   UNL     1       3.427   1.188  -0.024  0.00  0.00    -0.336 N 
ATOM      4  H   UNL     1       4.234   0.649  -0.034  0.00  0.00    +0.167 HD
ATOM      5  C   UNL     1       2.140   0.718  -0.015  0.00  0.00    +0.154 A 
ATOM      6  N   UNL     1       1.299   1.784  -0.001  0.00  0.00    -0.199 N 
ATOM      7  N   UNL     1      -0.016   1.301   0.009  0.00  0.00    -0.170 NA
ATOM      8  C   UNL     1       0.002  -0.004   0.002  0.00  0.00    +0.156 A 
ATOM      9  C   UNL     1       1.347  -0.432  -0.013  0.00  0.00    +0.114 A 
ENDROOT
BRANCH   2  10
ATOM     10  C   UNL     1       4.520   3.503  -0.021  0.00  0.00    +0.003 A 
ATOM     11  C   UNL     1       4.540   4.607   0.836  0.00  0.00    +0.010 A 
ATOM     12  C   UNL     1       5.623   5.461   0.830  0.00  0.00    +0.002 A 
ATOM     13  C   UNL     1       6.684   5.234  -0.030  0.00  0.00    +0.020 A 
ATOM     14  C   UNL     1       6.669   4.145  -0.885  0.00  0.00    +0.042 A 
ATOM     15  C   UNL     1       5.593   3.279  -0.886  0.00  0.00    +0.030 A 
ATOM     16 CL   UNL     1       8.004   3.869  -1.960  0.00  0.00    -0.084 Cl
ENDBRANCH   2  10
BRANCH   1  17
ATOM     17  N   UNL     1       1.570   4.240   0.010  0.00  0.00    -0.324 N 
ATOM     18  H   UNL     1       1.928   4.768  -0.773  0.00  0.00    +0.148 HD
BRANCH  17  24
ATOM     19  C   UNL     1      -2.444   6.885  -1.159  0.00  0.00    +0.008 C 
ATOM     20  C   UNL     1      -1.936   5.572  -0.560  0.00  0.00    -0.009 C 
ATOM     21  C   UNL     1      -2.433   5.442   0.881  0.00  0.00    +0.003 C 
ATOM     22  C   UNL     1      -1.926   4.129   1.479  0.00  0.00    +0.002 C 
ATOM     23  C   UNL     1      -0.396   4.119   1.465  0.00  0.00    +0.022 C 
ATOM     24  C   UNL     1       0.101   4.249   0.024  0.00  0.00    +0.075 C 
ATOM     25  C   UNL     1      -0.406   5.563  -0.575  0.00  0.00    +0.009 C 
ATOM     26  C   UNL     1       0.119   6.737   0.254  0.00  0.00    +0.009 C 
ENDBRANCH  17  24
ENDBRANCH   1  17
BRANCH   9  27
ATOM     27  C   UNL     1       1.810  -1.787  -0.024  0.00  0.00    +0.104 C 
ATOM     28  N   UNL     1       2.177  -2.862  -0.033  0.00  0.00    -0.191 NA
ENDBRANCH   9  27
TORSDOF 4
