REMARK  Name = ZINC56160076
REMARK  6 active torsions:
REMARK  status: ('A' for Active; 'I' for Inactive)
REMARK    1  A    between atoms: C_1  and  C_2
REMARK    2  A    between atoms: C_2  and  C_4
REMARK    3  A    between atoms: C_2  and  N_10
REMARK    4  A    between atoms: N_10  and  C_11
REMARK    5  A    between atoms: C_11  and  C_12
REMARK    6  A    between atoms: C_12  and  C_17
REMARK                            x       y       z     vdW  Elec       q    Type
REMARK                         _______ _______ _______ _____ _____    ______ ____
ROOT
ATOM      1  N   UNL     1       2.750  -0.654  -0.084  0.00  0.00    +0.387 N 
ATOM      2  H   UNL     1       2.628  -1.654  -0.134  0.00  0.00    -0.085 HD
ATOM      3  H   UNL     1       3.734  -0.436  -0.040  0.00  0.00    -0.085 HD
ENDROOT
BRANCH   1   5
ATOM      4  C   UNL     1       0.701  -0.460  -1.411  0.00  0.00    -0.004 C 
ATOM      5  C   UNL     1       2.163  -0.029  -1.276  0.00  0.00    +0.013 C 
BRANCH   5   6
ATOM      6  C   UNL     1       2.929  -0.462  -2.499  0.00  0.00    +0.206 C 
ATOM      7  O   UNL     1       3.871  -1.218  -2.388  0.00  0.00    -0.277 OA
ATOM      8  N   UNL     1       2.567  -0.011  -3.716  0.00  0.00    -0.242 N 
ATOM      9  C   UNL     1       3.253  -0.399  -4.810  0.00  0.00    +0.303 C 
ATOM     10  O   UNL     1       4.197  -1.156  -4.699  0.00  0.00    -0.253 OA
ATOM     11  N   UNL     1       2.891   0.053  -6.027  0.00  0.00    -0.313 N 
ATOM     12  H   UNL     1       1.814   0.594  -3.805  0.00  0.00    +0.159 HD
ATOM     13  H   UNL     1       2.137   0.658  -6.116  0.00  0.00    +0.146 HD
ATOM     14  H   UNL     1       3.384  -0.226  -6.815  0.00  0.00    +0.146 HD
ENDBRANCH   5   6
ENDBRANCH   1   5
BRANCH   1  15
ATOM     15  C   UNL     1       2.080  -0.139   1.119  0.00  0.00    -0.070 C 
BRANCH  15  16
ATOM     16  C   UNL     1       2.780  -0.685   2.365  0.00  0.00    -0.019 C 
ATOM     17  C   UNL     1       2.823  -2.226   2.315  0.00  0.00    +0.010 C 
ATOM     18  C   UNL     1       4.218  -2.548   1.722  0.00  0.00    +0.001 C 
ATOM     19  C   UNL     1       5.122  -1.471   2.372  0.00  0.00    +0.001 C 
ATOM     20  C   UNL     1       4.242  -0.205   2.401  0.00  0.00    +0.010 C 
BRANCH  16  21
ATOM     21  C   UNL     1       2.056  -0.228   3.605  0.00  0.00    -0.043 A 
ATOM     22  C   UNL     1       0.902   0.525   3.493  0.00  0.00    +0.007 A 
ATOM     23  C   UNL     1       0.236   0.945   4.629  0.00  0.00    +0.038 A 
ATOM     24  C   UNL     1       0.726   0.610   5.880  0.00  0.00    +0.123 A 
ATOM     25  C   UNL     1       1.881  -0.145   5.992  0.00  0.00    +0.038 A 
ATOM     26  C   UNL     1       2.542  -0.568   4.854  0.00  0.00    +0.007 A 
ATOM     27  F   UNL     1       0.076   1.019   6.992  0.00  0.00    -0.205 F 
ENDBRANCH  16  21
ENDBRANCH  15  16
ENDBRANCH   1  15
TORSDOF 5
