REMARK  Name = ZINC09424399
REMARK  9 active torsions:
REMARK  status: ('A' for Active; 'I' for Inactive)
REMARK    1  A    between atoms: C_1  and  C_2
REMARK    2  A    between atoms: C_2  and  O_3
REMARK    3  A    between atoms: O_3  and  C_4
REMARK    4  A    between atoms: C_7  and  C_10
REMARK    5  A    between atoms: C_13  and  S_16
REMARK    6  A    between atoms: N_14  and  N_15
REMARK    7  A    between atoms: S_16  and  C_17
REMARK    8  A    between atoms: C_17  and  C_18
REMARK    9  A    between atoms: N_20  and  C_21
REMARK                            x       y       z     vdW  Elec       q    Type
REMARK                         _______ _______ _______ _____ _____    ______ ____
ROOT
ATOM      1  C   UNL     1      -2.699  12.183  -1.212  0.00  0.00    +0.182 A 
ATOM      2  N   UNL     1      -1.533  11.852  -0.707  0.00  0.00    -0.127 NA
ATOM      3  N   UNL     1      -1.426  10.572  -0.651  0.00  0.00    -0.121 NA
ATOM      4  C   UNL     1      -2.514  10.008  -1.125  0.00  0.00    +0.209 A 
ATOM      5  N   UNL     1      -3.363  11.012  -1.495  0.00  0.00    -0.224 N 
ENDROOT
BRANCH   1   9
ATOM      6  C   UNL     1      -4.147  16.126  -1.849  0.00  0.00    +0.121 A 
ATOM      7  C   UNL     1      -5.032  15.056  -1.846  0.00  0.00    +0.046 A 
ATOM      8  C   UNL     1      -4.566  13.775  -1.639  0.00  0.00    +0.015 A 
ATOM      9  C   UNL     1      -3.203  13.555  -1.434  0.00  0.00    +0.021 A 
ATOM     10  C   UNL     1      -2.317  14.634  -1.433  0.00  0.00    +0.015 A 
ATOM     11  C   UNL     1      -2.791  15.911  -1.645  0.00  0.00    +0.046 A 
BRANCH   6  12
ATOM     12  O   UNL     1      -4.610  17.387  -2.052  0.00  0.00    -0.492 OA
BRANCH  12  14
ATOM     13  C   UNL     1      -4.350  19.778  -2.287  0.00  0.00    +0.048 C 
ATOM     14  C   UNL     1      -3.646  18.442  -2.043  0.00  0.00    +0.225 C 
ENDBRANCH  12  14
ENDBRANCH   6  12
ENDBRANCH   1   9
BRANCH   5  15
ATOM     15  N   UNL     1      -4.612  10.880  -2.034  0.00  0.00    -0.295 N 
ATOM     16  H   UNL     1      -5.322  10.945  -1.320  0.00  0.00    +0.163 HD
ATOM     17  H   UNL     1      -4.765  11.564  -2.760  0.00  0.00    +0.163 HD
ENDBRANCH   5  15
BRANCH   4  18
ATOM     18  S   UNL     1      -2.823   8.277  -1.251  0.00  0.00    -0.075 S 
BRANCH  18  19
ATOM     19  C   UNL     1      -1.271   7.631  -0.580  0.00  0.00    +0.173 C 
BRANCH  19  20
ATOM     20  C   UNL     1      -1.309   6.125  -0.590  0.00  0.00    +0.228 C 
ATOM     21  O   UNL     1      -2.288   5.545  -1.010  0.00  0.00    -0.275 OA
ATOM     22  N   UNL     1      -0.254   5.421  -0.133  0.00  0.00    -0.282 N 
ATOM     23  H   UNL     1       0.509   5.884   0.247  0.00  0.00    +0.155 HD
BRANCH  22  24
ATOM     24  C   UNL     1      -0.260   4.021  -0.206  0.00  0.00    +0.083 A 
ATOM     25  C   UNL     1      -0.881   3.383  -1.273  0.00  0.00    +0.148 A 
ATOM     26  C   UNL     1      -0.885   2.002  -1.343  0.00  0.00    +0.078 A 
ATOM     27  C   UNL     1      -0.272   1.256  -0.350  0.00  0.00    +0.127 A 
ATOM     28  C   UNL     1       0.342   1.890   0.716  0.00  0.00    +0.055 A 
ATOM     29  C   UNL     1       0.354   3.271   0.787  0.00  0.00    +0.045 A 
ATOM     30 BR   UNL     1       1.200   4.136   2.241  0.00  0.00    -0.048 Br
ATOM     31  F   UNL     1      -0.278  -0.094  -0.420  0.00  0.00    -0.205 F 
ATOM     32  F   UNL     1      -1.480   4.110  -2.241  0.00  0.00    -0.203 F 
ENDBRANCH  22  24
ENDBRANCH  19  20
ENDBRANCH  18  19
ENDBRANCH   4  18
TORSDOF 8
