REMARK  Name = ZINC02314339
REMARK  10 active torsions:
REMARK  status: ('A' for Active; 'I' for Inactive)
REMARK    1  A    between atoms: C_1  and  C_2
REMARK    2  A    between atoms: C_2  and  C_3
REMARK    3  A    between atoms: C_2  and  C_4
REMARK    4  A    between atoms: N_14  and  C_25
REMARK    5  A    between atoms: C_17  and  S_20
REMARK    6  A    between atoms: S_20  and  C_21
REMARK    7  A    between atoms: C_21  and  C_22
REMARK    8  A    between atoms: C_22  and  C_24
REMARK    9  A    between atoms: C_28  and  O_31
REMARK   10  A    between atoms: O_31  and  C_32
REMARK                            x       y       z     vdW  Elec       q    Type
REMARK                         _______ _______ _______ _____ _____    ______ ____
ROOT
ATOM      1  C   UNL     1      -4.309  -0.073  -1.525  0.00  0.00    +0.126 C 
ATOM      2  C   UNL     1      -2.801   0.199  -1.562  0.00  0.00    +0.068 C 
ATOM      3  C   UNL     1      -2.556   1.573  -0.950  0.00  0.00    -0.018 A 
ATOM      4  C   UNL     1      -3.580   2.445  -0.822  0.00  0.00    +0.021 A 
ATOM      5  S   UNL     1      -2.860   3.878  -0.079  0.00  0.00    -0.072 S 
ATOM      6  C   UNL     1      -1.232   3.325   0.056  0.00  0.00    +0.102 A 
ATOM      7  C   UNL     1      -1.254   2.040  -0.479  0.00  0.00    +0.075 A 
ATOM      8  C   UNL     1       0.035   1.310  -0.484  0.00  0.00    +0.268 A 
ATOM      9  O   UNL     1       0.095   0.180  -0.931  0.00  0.00    -0.266 OA
ATOM     10  N   UNL     1       1.138   1.903   0.001  0.00  0.00    -0.245 N 
ATOM     11  C   UNL     1       1.101   3.189   0.517  0.00  0.00    +0.245 A 
ATOM     12  N   UNL     1      -0.076   3.892   0.543  0.00  0.00    -0.249 N 
ATOM     13  C   UNL     1       0.182   5.118   1.099  0.00  0.00    +0.198 A 
ATOM     14  N   UNL     1       1.456   5.168   1.402  0.00  0.00    -0.120 NA
ATOM     15  N   UNL     1       2.038   3.949   1.034  0.00  0.00    -0.109 NA
ATOM     16  C   UNL     1      -4.999   2.207  -1.234  0.00  0.00    +0.203 C 
ATOM     17  O   UNL     1      -5.024   1.039  -2.071  0.00  0.00    -0.371 OA
ENDROOT
BRANCH  10  18
ATOM     18  C   UNL     1       2.354   1.206  -0.014  0.00  0.00    +0.053 A 
ATOM     19  C   UNL     1       3.196   1.303  -1.114  0.00  0.00    +0.030 A 
ATOM     20  C   UNL     1       4.396   0.620  -1.126  0.00  0.00    +0.047 A 
ATOM     21  C   UNL     1       4.755  -0.172  -0.045  0.00  0.00    +0.120 A 
ATOM     22  C   UNL     1       3.912  -0.273   1.052  0.00  0.00    +0.047 A 
ATOM     23  C   UNL     1       2.714   0.414   1.068  0.00  0.00    +0.030 A 
BRANCH  21  24
ATOM     24  O   UNL     1       5.935  -0.848  -0.060  0.00  0.00    -0.495 OA
ATOM     25  C   UNL     1       6.754  -0.697  -1.221  0.00  0.00    +0.277 C 
ENDBRANCH  21  24
ENDBRANCH  10  18
BRANCH   1  27
ATOM     26  C   UNL     1      -6.122  -1.611  -2.294  0.00  0.00    +0.010 C 
ATOM     27  C   UNL     1      -4.619  -1.327  -2.344  0.00  0.00    +0.012 C 
ATOM     28  C   UNL     1      -4.190  -1.106  -3.796  0.00  0.00    +0.010 C 
ENDBRANCH   1  27
BRANCH  13  29
ATOM     29  S   UNL     1      -0.995   6.402   1.362  0.00  0.00    -0.081 S 
BRANCH  29  30
ATOM     30  C   UNL     1      -0.027   7.736   2.119  0.00  0.00    +0.107 C 
BRANCH  30  31
ATOM     31  C   UNL     1      -0.926   8.913   2.400  0.00  0.00    -0.069 C 
ATOM     32  C   UNL     1      -1.308   9.167   3.626  0.00  0.00    +0.008 C 
ATOM     33  C   UNL     1      -1.385   9.796   1.268  0.00  0.00    +0.039 C 
ENDBRANCH  30  31
ENDBRANCH  29  30
ENDBRANCH  13  29
TORSDOF 6
