REMARK  Name = ZINC31900451
REMARK  7 active torsions:
REMARK  status: ('A' for Active; 'I' for Inactive)
REMARK    1  A    between atoms: C_3  and  N_20
REMARK    2  A    between atoms: C_4  and  N_19
REMARK    3  A    between atoms: C_6  and  C_7
REMARK    4  A    between atoms: C_7  and  C_8
REMARK    5  A    between atoms: C_8  and  C_9
REMARK    6  A    between atoms: C_9  and  N_10
REMARK    7  A    between atoms: N_10  and  C_11
REMARK                            x       y       z     vdW  Elec       q    Type
REMARK                         _______ _______ _______ _____ _____    ______ ____
ROOT
ATOM      1  C   UNL     1      -3.528  -2.656   1.206  0.00  0.00    +0.005 A 
ATOM      2  C   UNL     1      -4.845  -3.078   1.211  0.00  0.00    +0.025 A 
ATOM      3  C   UNL     1      -5.444  -3.494   0.032  0.00  0.00    +0.051 A 
ATOM      4  C   UNL     1      -4.717  -3.478  -1.158  0.00  0.00    +0.046 A 
ATOM      5  C   UNL     1      -3.399  -3.048  -1.155  0.00  0.00    +0.028 A 
ATOM      6  C   UNL     1      -2.809  -2.635   0.026  0.00  0.00    -0.046 A 
ENDROOT
BRANCH   3   7
ATOM      7  N   UNL     1      -6.775  -3.927   0.036  0.00  0.00    -0.328 N 
ATOM      8  C   UNL     1      -7.341  -3.897   1.409  0.00  0.00    +0.105 C 
ATOM      9  C   UNL     1      -8.870  -3.878   1.163  0.00  0.00    +0.020 C 
ATOM     10  C   UNL     1      -9.008  -2.979  -0.088  0.00  0.00    +0.020 C 
ATOM     11  C   UNL     1      -7.628  -3.026  -0.770  0.00  0.00    +0.105 C 
ENDBRANCH   3   7
BRANCH   4  12
ATOM     12  N   UNL     1      -5.316  -3.896  -2.353  0.00  0.00    -0.357 N 
ATOM     13  H   UNL     1      -4.741  -3.884  -3.290  0.00  0.00    +0.142 HD
ATOM     14  H   UNL     1      -6.362  -4.237  -2.353  0.00  0.00    +0.142 HD
ENDBRANCH   4  12
BRANCH   6  15
ATOM     15  C   UNL     1      -1.376  -2.168   0.026  0.00  0.00    +0.033 C 
BRANCH  15  16
ATOM     16  C   UNL     1      -1.332  -0.659  -0.225  0.00  0.00    -0.014 C 
BRANCH  16  17
ATOM     17  C   UNL     1       0.123  -0.185  -0.224  0.00  0.00    -0.082 C 
BRANCH  17  18
ATOM     18  N   UNL     1       0.166   1.264  -0.466  0.00  0.00    +0.381 N 
ATOM     19  H   UNL     1      -0.292   1.486  -1.441  0.00  0.00    -0.086 HD
ATOM     20  H   UNL     1      -0.391   1.784   0.328  0.00  0.00    -0.086 HD
BRANCH  18  21
ATOM     21  C   UNL     1       1.550   1.756  -0.472  0.00  0.00    -0.072 C 
ATOM     22  C   UNL     1       1.993   2.048   0.963  0.00  0.00    -0.016 C 
ATOM     23  C   UNL     1       3.517   2.173   1.010  0.00  0.00    -0.002 C 
ATOM     24  C   UNL     1       4.147   1.050   0.183  0.00  0.00    -0.000 C 
ATOM     25  C   UNL     1       4.839   1.648  -1.044  0.00  0.00    -0.000 C 
ATOM     26  C   UNL     1       3.786   2.040  -2.082  0.00  0.00    -0.000 C 
ATOM     27  C   UNL     1       3.094   3.332  -1.643  0.00  0.00    -0.002 C 
ATOM     28  C   UNL     1       1.631   3.038  -1.303  0.00  0.00    -0.016 C 
ENDBRANCH  18  21
ENDBRANCH  17  18
ENDBRANCH  16  17
ENDBRANCH  15  16
ENDBRANCH   6  15
TORSDOF 7
