REMARK  Name = ZINC40650111
REMARK  6 active torsions:
REMARK  status: ('A' for Active; 'I' for Inactive)
REMARK    1  A    between atoms: C_4  and  S_7
REMARK    2  A    between atoms: S_7  and  C_8
REMARK    3  A    between atoms: C_9  and  N_28
REMARK    4  A    between atoms: C_10  and  N_14
REMARK    5  A    between atoms: N_14  and  N_15
REMARK    6  A    between atoms: C_16  and  C_18
REMARK                            x       y       z     vdW  Elec       q    Type
REMARK                         _______ _______ _______ _____ _____    ______ ____
ROOT
ATOM      1  C   UNL     1       3.481  -2.517   0.165  0.00  0.00    +0.137 A 
ATOM      2  C   UNL     1       4.457  -3.504   0.274  0.00  0.00    +0.199 A 
ATOM      3  C   UNL     1       4.046  -4.828   0.385  0.00  0.00    +0.170 A 
ATOM      4  N   UNL     1       2.742  -5.102   0.383  0.00  0.00    -0.217 NA
ATOM      5  C   UNL     1       1.849  -4.140   0.278  0.00  0.00    +0.224 A 
ATOM      6  N   UNL     1       2.198  -2.873   0.177  0.00  0.00    -0.226 NA
ENDROOT
BRANCH   2   7
ATOM      7  N   UNL     1       5.896  -3.153   0.272  0.00  0.00    +0.063 N 
ATOM      8  O   UNL     1       6.462  -2.916   1.313  0.00  0.00    -0.126 OA
ATOM      9  O   UNL     1       6.504  -3.104  -0.772  0.00  0.00    -0.126 OA
ENDBRANCH   2   7
BRANCH   3  10
ATOM     10  N   UNL     1       4.979  -5.848   0.495  0.00  0.00    -0.246 N 
ATOM     11  H   UNL     1       5.926  -5.640   0.495  0.00  0.00    +0.172 HD
BRANCH  10  12
ATOM     12  N   UNL     1       4.553  -7.178   0.606  0.00  0.00    -0.231 N 
ATOM     13  C   UNL     1       5.460  -8.169   0.713  0.00  0.00    +0.261 C 
ATOM     14  O   UNL     1       6.647  -7.909   0.713  0.00  0.00    -0.269 OA
ATOM     15  H   UNL     1       3.605  -7.385   0.605  0.00  0.00    +0.173 HD
BRANCH  13  16
ATOM     16  C   UNL     1       5.011  -9.569   0.829  0.00  0.00    +0.046 A 
ATOM     17  C   UNL     1       3.667  -9.888   0.706  0.00  0.00    +0.014 A 
ATOM     18  C   UNL     1       3.239 -11.205   0.815  0.00  0.00    +0.001 A 
ATOM     19  C   UNL     1       4.121 -12.217   1.046  0.00  0.00    +0.008 A 
ATOM     20  C   UNL     1       5.493 -11.941   1.178  0.00  0.00    -0.017 A 
ATOM     21  C   UNL     1       5.950 -10.605   1.063  0.00  0.00    -0.006 A 
ATOM     22  C   UNL     1       7.319 -10.331   1.190  0.00  0.00    +0.009 A 
ATOM     23  C   UNL     1       8.193 -11.352   1.414  0.00  0.00    +0.001 A 
ATOM     24  C   UNL     1       7.746 -12.667   1.521  0.00  0.00    +0.001 A 
ATOM     25  C   UNL     1       6.423 -12.968   1.417  0.00  0.00    +0.008 A 
ENDBRANCH  13  16
ENDBRANCH  10  12
ENDBRANCH   3  10
BRANCH   1  26
ATOM     26  S   UNL     1       3.937  -0.821   0.022  0.00  0.00    -0.068 S 
BRANCH  26  30
ATOM     27  C   UNL     1      -0.014   1.389   0.137  0.00  0.00    +0.000 A 
ATOM     28  C   UNL     1       0.616   1.041   1.318  0.00  0.00    +0.001 A 
ATOM     29  C   UNL     1       1.821   0.367   1.287  0.00  0.00    +0.015 A 
ATOM     30  C   UNL     1       2.400   0.039   0.067  0.00  0.00    +0.014 A 
ATOM     31  C   UNL     1       1.764   0.390  -1.117  0.00  0.00    +0.015 A 
ATOM     32  C   UNL     1       0.559   1.064  -1.079  0.00  0.00    +0.001 A 
ENDBRANCH  26  30
ENDBRANCH   1  26
TORSDOF 6
