REMARK  Name = ZINC40810402
REMARK  8 active torsions:
REMARK  status: ('A' for Active; 'I' for Inactive)
REMARK    1  A    between atoms: C_1  and  C_2
REMARK    2  A    between atoms: C_2  and  C_21
REMARK    3  A    between atoms: C_4  and  N_10
REMARK    4  A    between atoms: C_6  and  C_8
REMARK    5  A    between atoms: C_6  and  C_9
REMARK    6  A    between atoms: C_11  and  C_13
REMARK    7  A    between atoms: C_13  and  C_14
REMARK    8  A    between atoms: C_17  and  N_20
REMARK                            x       y       z     vdW  Elec       q    Type
REMARK                         _______ _______ _______ _____ _____    ______ ____
ROOT
ATOM      1  N   UNL     1      -2.928  -2.409   0.180  0.00  0.00    -0.312 N 
ATOM      2  C   UNL     1      -3.243  -3.683  -0.127  0.00  0.00    +0.218 C 
ATOM      3  O   UNL     1      -2.365  -4.479  -0.386  0.00  0.00    -0.275 OA
ATOM      4  H   UNL     1      -3.630  -1.773   0.387  0.00  0.00    +0.149 HD
ENDROOT
BRANCH   1   8
ATOM      5  C   UNL     1      -0.019   1.542   0.011  0.00  0.00    -0.010 C 
ATOM      6  C   UNL     1       0.002  -0.004   0.002  0.00  0.00    -0.072 C 
ATOM      7  C   UNL     1      -1.446  -0.479  -0.047  0.00  0.00    +0.009 C 
ATOM      8  C   UNL     1      -1.522  -1.985   0.202  0.00  0.00    +0.070 C 
ATOM      9  C   UNL     1      -0.931  -2.270   1.582  0.00  0.00    +0.009 C 
ATOM     10  C   UNL     1       0.522  -1.810   1.643  0.00  0.00    -0.072 C 
ATOM     11  N   UNL     1       0.711  -0.443   1.191  0.00  0.00    +0.386 N 
ATOM     12  C   UNL     1       1.408  -2.784   0.859  0.00  0.00    -0.010 C 
ATOM     13  C   UNL     1       0.968  -1.882   3.122  0.00  0.00    -0.010 C 
ATOM     14  C   UNL     1       0.733  -0.436  -1.274  0.00  0.00    -0.010 C 
ATOM     15  H   UNL     1       1.713  -0.290   1.042  0.00  0.00    -0.084 HD
ATOM     16  H   UNL     1       0.464   0.186   1.962  0.00  0.00    -0.084 HD
ENDBRANCH   1   8
BRANCH   2  17
ATOM     17  C   UNL     1      -4.685  -4.119  -0.149  0.00  0.00    +0.130 C 
BRANCH  17  18
ATOM     18  C   UNL     1      -4.764  -5.577  -0.518  0.00  0.00    -0.039 A 
ATOM     19  C   UNL     1      -4.866  -5.948  -1.847  0.00  0.00    +0.006 A 
ATOM     20  C   UNL     1      -4.939  -7.284  -2.189  0.00  0.00    +0.023 A 
ATOM     21  C   UNL     1      -4.909  -8.256  -1.197  0.00  0.00    +0.025 A 
ATOM     22  C   UNL     1      -4.806  -7.880   0.137  0.00  0.00    +0.023 A 
ATOM     23  C   UNL     1      -4.728  -6.543   0.471  0.00  0.00    +0.006 A 
BRANCH  21  24
ATOM     24  N   UNL     1      -4.982  -9.608  -1.539  0.00  0.00    -0.358 N 
ATOM     25  H   UNL     1      -5.054  -9.870  -2.470  0.00  0.00    +0.142 HD
ATOM     26  H   UNL     1      -4.961 -10.286  -0.845  0.00  0.00    +0.142 HD
ENDBRANCH  21  24
ENDBRANCH  17  18
ENDBRANCH   2  17
TORSDOF 4
