REMARK  Name = ZINC08836690
REMARK  9 active torsions:
REMARK  status: ('A' for Active; 'I' for Inactive)
REMARK    1  A    between atoms: C_1  and  C_2
REMARK    2  A    between atoms: C_2  and  C_4
REMARK    3  A    between atoms: C_2  and  N_12
REMARK    4  A    between atoms: C_4  and  C_5
REMARK    5  A    between atoms: C_5  and  C_6
REMARK    6  A    between atoms: C_13  and  C_15
REMARK    7  A    between atoms: N_26  and  C_29
REMARK    8  A    between atoms: C_27  and  N_28
REMARK    9  A    between atoms: C_29  and  C_30
REMARK                            x       y       z     vdW  Elec       q    Type
REMARK                         _______ _______ _______ _____ _____    ______ ____
ROOT
ATOM      1  C   UNL     1       6.168  -5.001   0.201  0.00  0.00    +0.103 A 
ATOM      2  C   UNL     1       6.306  -6.290  -0.497  0.00  0.00    +0.122 A 
ATOM      3  C   UNL     1       6.030  -7.312   0.517  0.00  0.00    +0.162 A 
ATOM      4  N   UNL     1       6.082  -8.584   0.184  0.00  0.00    -0.226 NA
ATOM      5  C   UNL     1       6.377  -8.932  -1.075  0.00  0.00    +0.092 A 
ATOM      6  C   UNL     1       6.431 -10.290  -1.441  0.00  0.00    +0.030 A 
ATOM      7  C   UNL     1       6.738 -10.635  -2.720  0.00  0.00    +0.002 A 
ATOM      8  C   UNL     1       7.004  -9.661  -3.682  0.00  0.00    +0.002 A 
ATOM      9  C   UNL     1       6.962  -8.338  -3.366  0.00  0.00    +0.030 A 
ATOM     10  C   UNL     1       6.647  -7.942  -2.053  0.00  0.00    +0.090 A 
ATOM     11  N   UNL     1       6.603  -6.644  -1.731  0.00  0.00    -0.241 NA
ATOM     12  N   UNL     1       5.749  -6.647   1.693  0.00  0.00    -0.305 N 
ATOM     13  C   UNL     1       5.828  -5.300   1.516  0.00  0.00    +0.113 A 
ENDROOT
BRANCH   1  15
ATOM     14  N   UNL     1       5.298  -3.029  -0.927  0.00  0.00    -0.309 N 
ATOM     15  C   UNL     1       6.347  -3.670  -0.375  0.00  0.00    +0.250 C 
ATOM     16  O   UNL     1       7.443  -3.141  -0.357  0.00  0.00    -0.270 OA
ATOM     17  H   UNL     1       4.424  -3.451  -0.942  0.00  0.00    +0.149 HD
BRANCH  14  19
ATOM     18  C   UNL     1       5.969  -1.826  -2.948  0.00  0.00    +0.028 C 
ATOM     19  C   UNL     1       5.477  -1.695  -1.505  0.00  0.00    +0.070 C 
BRANCH  19  20
ATOM     20  C   UNL     1       4.142  -0.948  -1.488  0.00  0.00    +0.026 C 
BRANCH  20  21
ATOM     21  C   UNL     1       3.711  -0.707  -0.039  0.00  0.00    +0.037 C 
BRANCH  21  22
ATOM     22  C   UNL     1       2.396   0.029  -0.022  0.00  0.00    -0.047 A 
ATOM     23  C   UNL     1       1.208  -0.679  -0.014  0.00  0.00    +0.003 A 
ATOM     24  C   UNL     1       0.002  -0.004   0.002  0.00  0.00    +0.000 A 
ATOM     25  C   UNL     1      -0.017   1.378   0.010  0.00  0.00    +0.000 A 
ATOM     26  C   UNL     1       1.171   2.086   0.002  0.00  0.00    +0.000 A 
ATOM     27  C   UNL     1       2.377   1.411  -0.014  0.00  0.00    +0.003 A 
ENDBRANCH  21  22
ENDBRANCH  20  21
ENDBRANCH  19  20
ENDBRANCH  14  19
ENDBRANCH   1  15
BRANCH  13  28
ATOM     28  N   UNL     1       5.603  -4.369   2.496  0.00  0.00    -0.344 N 
ATOM     29  H   UNL     1       5.678  -3.423   2.293  0.00  0.00    +0.144 HD
ATOM     30  H   UNL     1       5.368  -4.655   3.393  0.00  0.00    +0.144 HD
ENDBRANCH  13  28
BRANCH  12  31
ATOM     31  C   UNL     1       5.412  -7.302   2.959  0.00  0.00    +0.199 C 
BRANCH  31  32
ATOM     32  C   UNL     1       3.920  -7.492   3.045  0.00  0.00    +0.125 A 
ATOM     33  C   UNL     1       3.236  -8.564   2.606  0.00  0.00    +0.046 A 
ATOM     34  C   UNL     1       1.872  -8.324   2.888  0.00  0.00    +0.041 A 
ATOM     35  C   UNL     1       1.802  -7.115   3.476  0.00  0.00    +0.195 A 
ATOM     36  O   UNL     1       3.046  -6.616   3.568  0.00  0.00    -0.466 OA
ENDBRANCH  31  32
ENDBRANCH  12  31
TORSDOF 8
