REMARK  Name = ZINC39362624
REMARK  11 active torsions:
REMARK  status: ('A' for Active; 'I' for Inactive)
REMARK    1  A    between atoms: C_1  and  C_2
REMARK    2  A    between atoms: C_2  and  O_3
REMARK    3  A    between atoms: O_3  and  C_4
REMARK    4  A    between atoms: C_7  and  N_10
REMARK    5  A    between atoms: C_11  and  C_26
REMARK    6  A    between atoms: C_15  and  S_16
REMARK    7  A    between atoms: S_16  and  C_17
REMARK    8  A    between atoms: C_17  and  C_18
REMARK    9  A    between atoms: C_20  and  C_25
REMARK   10  A    between atoms: C_23  and  C_24
REMARK   11  A    between atoms: C_26  and  C_27
REMARK                            x       y       z     vdW  Elec       q    Type
REMARK                         _______ _______ _______ _____ _____    ______ ____
ROOT
ATOM      1  N   UNL     1       1.102  -5.937  -1.834  0.00  0.00    -0.258 N 
ATOM      2  C   UNL     1       1.663  -6.642  -3.000  0.00  0.00    +0.187 C 
ATOM      3  N   UNL     1       1.532  -8.066  -2.648  0.00  0.00    -0.246 N 
ATOM      4  N   UNL     1       0.940  -8.102  -1.380  0.00  0.00    -0.162 NA
ATOM      5  C   UNL     1       0.709  -6.915  -0.932  0.00  0.00    +0.180 C 
ATOM      6  H   UNL     1       1.801  -8.826  -3.188  0.00  0.00    +0.170 HD
ENDROOT
BRANCH   1  10
ATOM      7  C   UNL     1       0.777  -1.811  -1.337  0.00  0.00    +0.121 A 
ATOM      8  C   UNL     1       1.636  -2.541  -0.529  0.00  0.00    +0.047 A 
ATOM      9  C   UNL     1       1.744  -3.908  -0.693  0.00  0.00    +0.027 A 
ATOM     10  C   UNL     1       0.992  -4.551  -1.667  0.00  0.00    +0.038 A 
ATOM     11  C   UNL     1       0.132  -3.820  -2.476  0.00  0.00    +0.027 A 
ATOM     12  C   UNL     1       0.021  -2.454  -2.307  0.00  0.00    +0.047 A 
BRANCH   7  13
ATOM     13  O   UNL     1       0.671  -0.465  -1.175  0.00  0.00    -0.492 OA
BRANCH  13  15
ATOM     14  C   UNL     1       1.225   1.640  -0.126  0.00  0.00    +0.048 C 
ATOM     15  C   UNL     1       1.478   0.132  -0.158  0.00  0.00    +0.225 C 
ENDBRANCH  13  15
ENDBRANCH   7  13
ENDBRANCH   1  10
BRANCH   5  16
ATOM     16  S   UNL     1      -0.022  -6.575   0.635  0.00  0.00    -0.084 S 
BRANCH  16  17
ATOM     17  C   UNL     1      -0.312  -8.218   1.349  0.00  0.00    +0.112 C 
BRANCH  17  18
ATOM     18  C   UNL     1      -0.944  -8.070   2.709  0.00  0.00    -0.034 A 
ATOM     19  C   UNL     1      -0.146  -7.971   3.834  0.00  0.00    +0.008 A 
ATOM     20  C   UNL     1      -0.725  -7.835   5.082  0.00  0.00    -0.050 A 
ATOM     21  C   UNL     1      -2.102  -7.798   5.205  0.00  0.00    +0.003 A 
ATOM     22  C   UNL     1      -2.899  -7.897   4.080  0.00  0.00    +0.004 A 
ATOM     23  C   UNL     1      -2.320  -8.028   2.831  0.00  0.00    -0.046 A 
ATOM     24  C   UNL     1      -3.189  -8.130   1.605  0.00  0.00    +0.044 C 
ATOM     25  C   UNL     1       0.144  -7.728   6.308  0.00  0.00    +0.044 C 
ENDBRANCH  17  18
ENDBRANCH  16  17
ENDBRANCH   5  16
BRANCH   2  26
ATOM     26  C   UNL     1       3.133  -6.267  -3.197  0.00  0.00    +0.097 C 
BRANCH  26  27
ATOM     27  C   UNL     1       3.648  -6.903  -4.463  0.00  0.00    +0.029 A 
ATOM     28  N   UNL     1       4.109  -8.191  -4.446  0.00  0.00    -0.311 N 
ATOM     29  C   UNL     1       4.571  -8.768  -5.570  0.00  0.00    +0.327 A 
ATOM     30  O   UNL     1       4.976  -9.914  -5.533  0.00  0.00    -0.247 OA
ATOM     31  N   UNL     1       4.589  -8.096  -6.736  0.00  0.00    -0.275 N 
ATOM     32  C   UNL     1       4.142  -6.825  -6.794  0.00  0.00    +0.254 A 
ATOM     33  O   UNL     1       4.159  -6.215  -7.848  0.00  0.00    -0.268 OA
ATOM     34  C   UNL     1       3.650  -6.207  -5.619  0.00  0.00    +0.091 A 
ATOM     35  H   UNL     1       4.925  -8.527  -7.537  0.00  0.00    +0.173 HD
ATOM     36  H   UNL     1       4.105  -8.693  -3.615  0.00  0.00    +0.170 HD
ENDBRANCH  26  27
ENDBRANCH   2  26
TORSDOF 8
