REMARK  Name = ZINC40344464
REMARK  13 active torsions:
REMARK  status: ('A' for Active; 'I' for Inactive)
REMARK    1  A    between atoms: C_1  and  O_2
REMARK    2  A    between atoms: O_2  and  C_3
REMARK    3  A    between atoms: C_6  and  C_9
REMARK    4  A    between atoms: N_17  and  C_31
REMARK    5  A    between atoms: C_18  and  C_20
REMARK    6  A    between atoms: C_22  and  O_29
REMARK    7  A    between atoms: C_23  and  O_28
REMARK    8  A    between atoms: C_24  and  O_26
REMARK    9  A    between atoms: O_26  and  C_27
REMARK   10  A    between atoms: O_29  and  C_30
REMARK   11  A    between atoms: C_31  and  C_32
REMARK   12  A    between atoms: C_32  and  C_33
REMARK   13  A    between atoms: C_33  and  N_34
REMARK                            x       y       z     vdW  Elec       q    Type
REMARK                         _______ _______ _______ _____ _____    ______ ____
ROOT
ATOM      1  C   UNL     1       2.493  -2.493  -4.364  0.00  0.00    +0.072 A 
ATOM      2  C   UNL     1       3.357  -3.539  -4.317  0.00  0.00    +0.035 A 
ATOM      3  C   UNL     1       3.712  -3.811  -5.658  0.00  0.00    +0.153 A 
ATOM      4  N   UNL     1       3.065  -2.944  -6.410  0.00  0.00    -0.168 NA
ATOM      5  H   UNL     1       1.776  -1.456  -6.019  0.00  0.00    +0.189 HD
ATOM      6  N   UNL     1       2.342  -2.168  -5.682  0.00  0.00    -0.276 N 
ATOM      7  C   UNL     1       4.654  -4.946  -5.655  0.00  0.00    +0.268 C 
ATOM      8  O   UNL     1       5.155  -5.433  -6.650  0.00  0.00    -0.268 OA
ATOM      9  N   UNL     1       4.881  -5.365  -4.398  0.00  0.00    -0.285 N 
ATOM     10  C   UNL     1       4.103  -4.535  -3.471  0.00  0.00    +0.141 C 
ENDROOT
BRANCH   1  14
ATOM     11  C   UNL     1       0.606  -0.607  -1.056  0.00  0.00    +0.120 A 
ATOM     12  C   UNL     1       1.172   0.164  -2.062  0.00  0.00    +0.046 A 
ATOM     13  C   UNL     1       1.785  -0.444  -3.136  0.00  0.00    +0.013 A 
ATOM     14  C   UNL     1       1.836  -1.836  -3.212  0.00  0.00    +0.000 A 
ATOM     15  C   UNL     1       1.266  -2.608  -2.199  0.00  0.00    +0.013 A 
ATOM     16  C   UNL     1       0.659  -1.993  -1.125  0.00  0.00    +0.046 A 
BRANCH  11  18
ATOM     17  C   UNL     1      -0.017   1.425   0.010  0.00  0.00    +0.277 C 
ATOM     18  O   UNL     1       0.002  -0.004   0.002  0.00  0.00    -0.495 OA
ENDBRANCH  11  18
ENDBRANCH   1  14
BRANCH  10  19
ATOM     19  C   UNL     1       5.025  -3.817  -2.519  0.00  0.00    -0.015 A 
ATOM     20  C   UNL     1       6.229  -3.314  -2.975  0.00  0.00    +0.055 A 
ATOM     21  C   UNL     1       7.081  -2.654  -2.103  0.00  0.00    +0.165 A 
ATOM     22  C   UNL     1       6.723  -2.497  -0.769  0.00  0.00    +0.201 A 
ATOM     23  C   UNL     1       5.511  -3.004  -0.315  0.00  0.00    +0.165 A 
ATOM     24  C   UNL     1       4.662  -3.659  -1.195  0.00  0.00    +0.055 A 
BRANCH  23  25
ATOM     25  O   UNL     1       5.155  -2.854   0.989  0.00  0.00    -0.491 OA
ATOM     26  C   UNL     1       3.895  -3.400   1.385  0.00  0.00    +0.277 C 
ENDBRANCH  23  25
BRANCH  22  27
ATOM     27  O   UNL     1       7.556  -1.850   0.090  0.00  0.00    -0.501 OA
ATOM     28  H   UNL     1       7.403  -0.897   0.143  0.00  0.00    +0.292 HD
ENDBRANCH  22  27
BRANCH  21  29
ATOM     29  O   UNL     1       8.266  -2.160  -2.551  0.00  0.00    -0.491 OA
ATOM     30  C   UNL     1       8.570  -2.358  -3.933  0.00  0.00    +0.277 C 
ENDBRANCH  21  29
ENDBRANCH  10  19
BRANCH   9  31
ATOM     31  C   UNL     1       5.762  -6.470  -4.016  0.00  0.00    +0.111 C 
BRANCH  31  32
ATOM     32  C   UNL     1       7.176  -5.936  -3.776  0.00  0.00    +0.040 C 
BRANCH  32  33
ATOM     33  C   UNL     1       8.096  -7.091  -3.376  0.00  0.00    +0.124 C 
BRANCH  33  34
ATOM     34  N   UNL     1       9.450  -6.580  -3.146  0.00  0.00    -0.338 N 
ATOM     35  C   UNL     1      10.443  -6.462  -4.080  0.00  0.00    +0.104 A 
ATOM     36  C   UNL     1      11.515  -5.950  -3.446  0.00  0.00    +0.101 A 
ATOM     37  N   UNL     1      11.185  -5.761  -2.160  0.00  0.00    -0.352 N 
ATOM     38  C   UNL     1       9.948  -6.131  -1.974  0.00  0.00    +0.173 A 
ATOM     39  H   UNL     1      11.773  -5.402  -1.476  0.00  0.00    +0.166 HD
ENDBRANCH  33  34
ENDBRANCH  32  33
ENDBRANCH  31  32
ENDBRANCH   9  31
TORSDOF 10
