REMARK  Name = ZINC11093892
REMARK  9 active torsions:
REMARK  status: ('A' for Active; 'I' for Inactive)
REMARK    1  A    between atoms: C_1  and  C_2
REMARK    2  A    between atoms: C_2  and  C_3
REMARK    3  A    between atoms: C_2  and  C_4
REMARK    4  A    between atoms: C_4  and  C_6
REMARK    5  A    between atoms: C_4  and  N_51
REMARK    6  A    between atoms: C_16  and  C_18
REMARK    7  A    between atoms: C_16  and  C_19
REMARK    8  A    between atoms: C_16  and  N_51
REMARK    9  A    between atoms: N_21  and  C_22
REMARK                            x       y       z     vdW  Elec       q    Type
REMARK                         _______ _______ _______ _____ _____    ______ ____
ROOT
ATOM      1  N   UNL     1      -4.256  -0.142   0.669  0.00  0.00    +0.391 N 
ATOM      2  H   UNL     1      -5.219  -0.376   0.402  0.00  0.00    -0.084 HD
ATOM      3  H   UNL     1      -4.121   0.874   0.609  0.00  0.00    -0.084 HD
ENDROOT
BRANCH   1   4
ATOM      4  C   UNL     1      -4.016  -0.583   2.056  0.00  0.00    +0.014 C 
ATOM      5  C   UNL     1      -2.987   0.338   2.714  0.00  0.00    -0.004 C 
BRANCH   4   6
ATOM      6  C   UNL     1      -5.310  -0.522   2.826  0.00  0.00    +0.203 C 
ATOM      7  O   UNL     1      -6.326  -0.153   2.276  0.00  0.00    -0.277 OA
ATOM      8  N   UNL     1      -5.338  -0.877   4.126  0.00  0.00    -0.285 N 
ATOM      9  H   UNL     1      -4.546  -1.250   4.544  0.00  0.00    +0.155 HD
BRANCH   8  10
ATOM     10  C   UNL     1      -6.511  -0.708   4.873  0.00  0.00    +0.069 A 
ATOM     11  C   UNL     1      -7.444   0.247   4.495  0.00  0.00    +0.027 A 
ATOM     12  C   UNL     1      -8.600   0.412   5.233  0.00  0.00    +0.017 A 
ATOM     13  C   UNL     1      -8.829  -0.373   6.349  0.00  0.00    +0.021 A 
ATOM     14  C   UNL     1      -7.901  -1.326   6.730  0.00  0.00    +0.055 A 
ATOM     15  C   UNL     1      -6.745  -1.500   5.992  0.00  0.00    +0.146 A 
ATOM     16  F   UNL     1      -5.841  -2.434   6.360  0.00  0.00    -0.204 F 
ATOM     17 BR   UNL     1     -10.413  -0.142   7.356  0.00  0.00    -0.050 Br
ENDBRANCH   8  10
ENDBRANCH   4   6
ENDBRANCH   1   4
BRANCH   1  18
ATOM     18  C   UNL     1      -3.319  -0.813  -0.251  0.00  0.00    -0.037 C 
BRANCH  18  19
ATOM     19  C   UNL     1      -2.070   0.018  -0.390  0.00  0.00    -0.057 A 
ATOM     20  C   UNL     1      -2.162   1.395  -0.463  0.00  0.00    +0.006 A 
ATOM     21  C   UNL     1      -1.019   2.161  -0.596  0.00  0.00    +0.049 A 
ATOM     22  C   UNL     1       0.225   1.549  -0.649  0.00  0.00    +0.162 A 
ATOM     23  C   UNL     1       0.318   0.164  -0.573  0.00  0.00    +0.162 A 
ATOM     24  C   UNL     1      -0.834  -0.598  -0.445  0.00  0.00    +0.051 A 
ATOM     25  O   UNL     1       1.528  -0.457  -0.623  0.00  0.00    -0.485 OA
ATOM     26  C   UNL     1       2.625   0.312  -1.128  0.00  0.00    +0.270 C 
ATOM     27  C   UNL     1       2.591   1.694  -0.460  0.00  0.00    +0.270 C 
ATOM     28  O   UNL     1       1.342   2.316  -0.780  0.00  0.00    -0.485 OA
ENDBRANCH  18  19
BRANCH  18  30
ATOM     29  C   UNL     1      -3.061  -1.759  -2.549  0.00  0.00    +0.006 C 
ATOM     30  C   UNL     1      -3.984  -0.968  -1.621  0.00  0.00    -0.027 C 
ATOM     31  C   UNL     1      -5.310  -1.714  -1.462  0.00  0.00    +0.006 C 
ENDBRANCH  18  30
ENDBRANCH   1  18
TORSDOF 6
