REMARK  Name = ZINC36666285
REMARK  9 active torsions:
REMARK  status: ('A' for Active; 'I' for Inactive)
REMARK    1  A    between atoms: C_1  and  O_2
REMARK    2  A    between atoms: O_2  and  C_3
REMARK    3  A    between atoms: C_3  and  C_5
REMARK    4  A    between atoms: C_5  and  C_7
REMARK    5  A    between atoms: C_5  and  N_18
REMARK    6  A    between atoms: C_7  and  C_8
REMARK    7  A    between atoms: C_19  and  C_21
REMARK    8  A    between atoms: C_25  and  N_27
REMARK    9  A    between atoms: C_28  and  C_30
REMARK                            x       y       z     vdW  Elec       q    Type
REMARK                         _______ _______ _______ _____ _____    ______ ____
ROOT
ATOM      1  N   UNL     1      -2.619  -2.595  -0.011  0.00  0.00    -0.298 N 
ATOM      2  C   UNL     1      -3.311  -2.686  -1.164  0.00  0.00    +0.245 C 
ATOM      3  O   UNL     1      -2.774  -2.409  -2.219  0.00  0.00    -0.270 OA
ATOM      4  H   UNL     1      -3.048  -2.816   0.831  0.00  0.00    +0.150 HD
ENDROOT
BRANCH   2   5
ATOM      5  C   UNL     1      -4.724  -3.121  -1.146  0.00  0.00    +0.039 A 
ATOM      6  C   UNL     1      -5.345  -3.433   0.065  0.00  0.00    +0.014 A 
ATOM      7  C   UNL     1      -6.663  -3.839   0.079  0.00  0.00    +0.022 A 
ATOM      8  C   UNL     1      -7.374  -3.939  -1.104  0.00  0.00    +0.062 A 
ATOM      9  C   UNL     1      -6.764  -3.630  -2.315  0.00  0.00    +0.053 A 
ATOM     10  C   UNL     1      -5.442  -3.215  -2.339  0.00  0.00    +0.037 A 
ATOM     11 CL   UNL     1      -9.033  -4.451  -1.076  0.00  0.00    -0.082 Cl
BRANCH   9  12
ATOM     12  N   UNL     1      -7.486  -3.732  -3.509  0.00  0.00    -0.280 N 
ATOM     13  C   UNL     1      -7.261  -2.859  -4.510  0.00  0.00    +0.255 C 
ATOM     14  O   UNL     1      -6.373  -2.033  -4.409  0.00  0.00    -0.269 OA
ATOM     15  H   UNL     1      -8.150  -4.432  -3.616  0.00  0.00    +0.155 HD
BRANCH  13  16
ATOM     16  C   UNL     1      -8.085  -2.904  -5.721  0.00  0.00    +0.074 A 
ATOM     17  C   UNL     1      -8.015  -2.110  -6.856  0.00  0.00    +0.021 A 
ATOM     18  C   UNL     1      -8.932  -2.393  -7.840  0.00  0.00    +0.008 A 
ATOM     19  C   UNL     1      -9.819  -3.400  -7.645  0.00  0.00    +0.046 A 
ATOM     20  S   UNL     1      -9.433  -3.999  -6.123  0.00  0.00    -0.092 S 
ENDBRANCH  13  16
ENDBRANCH   9  12
ENDBRANCH   2   5
BRANCH   1  21
ATOM     21  C   UNL     1      -1.219  -2.164  -0.029  0.00  0.00    +0.186 C 
BRANCH  21  22
ATOM     22  C   UNL     1      -1.157  -0.659  -0.016  0.00  0.00    +0.328 C 
ATOM     23  O   UNL     1      -2.177  -0.012   0.006  0.00  0.00    -0.249 OA
BRANCH  22  25
ATOM     24  C   UNL     1       0.016   1.393  -0.015  0.00  0.00    +0.280 C 
ATOM     25  O   UNL     1       0.032  -0.036  -0.028  0.00  0.00    -0.467 OA
ENDBRANCH  22  25
ENDBRANCH  21  22
BRANCH  21  26
ATOM     26  C   UNL     1      -0.500  -2.715   1.204  0.00  0.00    +0.071 C 
BRANCH  26  27
ATOM     27  C   UNL     1      -0.455  -4.220   1.130  0.00  0.00    -0.020 A 
ATOM     28  C   UNL     1      -1.327  -5.073   1.690  0.00  0.00    +0.087 A 
ATOM     29  N   UNL     1      -0.964  -6.362   1.408  0.00  0.00    -0.360 N 
ATOM     30  H   UNL     1      -1.441  -7.153   1.704  0.00  0.00    +0.165 HD
ATOM     31  C   UNL     1       0.179  -6.369   0.640  0.00  0.00    +0.047 A 
ATOM     32  C   UNL     1       0.544  -5.027   0.427  0.00  0.00    +0.003 A 
ATOM     33  C   UNL     1       1.676  -4.726  -0.333  0.00  0.00    +0.010 A 
ATOM     34  C   UNL     1       2.422  -5.737  -0.870  0.00  0.00    +0.001 A 
ATOM     35  C   UNL     1       2.064  -7.062  -0.666  0.00  0.00    +0.002 A 
ATOM     36  C   UNL     1       0.956  -7.383   0.088  0.00  0.00    +0.026 A 
ENDBRANCH  26  27
ENDBRANCH  21  26
ENDBRANCH   1  21
TORSDOF 8
