REMARK  Name = ZINC40286024
REMARK  5 active torsions:
REMARK  status: ('A' for Active; 'I' for Inactive)
REMARK    1  A    between atoms: C_3  and  O_29
REMARK    2  A    between atoms: C_6  and  C_7
REMARK    3  A    between atoms: N_17  and  C_18
REMARK    4  A    between atoms: C_21  and  O_24
REMARK    5  A    between atoms: O_24  and  C_25
REMARK                            x       y       z     vdW  Elec       q    Type
REMARK                         _______ _______ _______ _____ _____    ______ ____
ROOT
ATOM      1  C   UNL     1      -1.293  -0.774   0.011  0.00  0.00    +0.080 C 
ATOM      2  C   UNL     1      -1.350  -1.673   1.249  0.00  0.00    +0.110 C 
ATOM      3  C   UNL     1      -0.475  -2.883   1.090  0.00  0.00    +0.219 C 
ATOM      4  O   UNL     1       0.119  -3.309   2.058  0.00  0.00    -0.275 OA
ATOM      5  N   UNL     1      -0.328  -3.512  -0.096  0.00  0.00    -0.270 N 
ATOM      6  C   UNL     1      -0.909  -2.929  -1.223  0.00  0.00    +0.133 A 
ATOM      7  C   UNL     1      -1.374  -1.646  -1.216  0.00  0.00    +0.089 A 
ATOM      8  N   UNL     1      -1.864  -1.376  -2.424  0.00  0.00    -0.238 NA
ATOM      9  C   UNL     1      -1.732  -2.429  -3.190  0.00  0.00    +0.205 A 
ATOM     10  N   UNL     1      -1.136  -3.427  -2.467  0.00  0.00    -0.287 N 
ATOM     11  H   UNL     1       0.168  -4.343  -0.163  0.00  0.00    +0.156 HD
ENDROOT
BRANCH   1  17
ATOM     12  C   UNL     1      -0.017   1.378   0.010  0.00  0.00    +0.008 A 
ATOM     13  C   UNL     1       1.169   2.087   0.002  0.00  0.00    +0.045 A 
ATOM     14  C   UNL     1       2.380   1.409  -0.013  0.00  0.00    +0.117 A 
ATOM     15  C   UNL     1       2.396   0.022  -0.021  0.00  0.00    +0.045 A 
ATOM     16  C   UNL     1       1.207  -0.681  -0.013  0.00  0.00    +0.008 A 
ATOM     17  C   UNL     1       0.002  -0.004   0.002  0.00  0.00    -0.038 A 
BRANCH  14  18
ATOM     18  O   UNL     1       3.548   2.104  -0.021  0.00  0.00    -0.507 OA
ATOM     19  H   UNL     1       3.895   2.300   0.860  0.00  0.00    +0.292 HD
ENDBRANCH  14  18
ENDBRANCH   1  17
BRANCH  10  20
ATOM     20  C   UNL     1      -0.819  -4.716  -2.923  0.00  0.00    +0.049 A 
ATOM     21  C   UNL     1       0.454  -5.231  -2.719  0.00  0.00    +0.030 A 
ATOM     22  C   UNL     1       0.765  -6.500  -3.167  0.00  0.00    +0.048 A 
ATOM     23  C   UNL     1      -0.195  -7.260  -3.820  0.00  0.00    +0.130 A 
ATOM     24  C   UNL     1      -1.466  -6.745  -4.025  0.00  0.00    +0.048 A 
ATOM     25  C   UNL     1      -1.780  -5.479  -3.572  0.00  0.00    +0.030 A 
BRANCH  23  26
ATOM     26  O   UNL     1       0.112  -8.509  -4.261  0.00  0.00    -0.406 OA
BRANCH  26  27
ATOM     27  C   UNL     1      -0.924  -9.235  -4.926  0.00  0.00    +0.575 C 
ATOM     28  F   UNL     1      -1.335  -8.527  -6.060  0.00  0.00    -0.133 F 
ATOM     29  F   UNL     1      -0.441 -10.490  -5.310  0.00  0.00    -0.133 F 
ATOM     30  F   UNL     1      -2.009  -9.398  -4.058  0.00  0.00    -0.133 F 
ENDBRANCH  26  27
ENDBRANCH  23  26
ENDBRANCH  10  20
TORSDOF 5
