REMARK  Name = ZINC66130565
REMARK  7 active torsions:
REMARK  status: ('A' for Active; 'I' for Inactive)
REMARK    1  A    between atoms: C_1  and  C_2
REMARK    2  A    between atoms: C_2  and  C_3
REMARK    3  A    between atoms: C_3  and  C_5
REMARK    4  A    between atoms: C_3  and  N_6
REMARK    5  A    between atoms: C_7  and  C_18
REMARK    6  A    between atoms: C_27  and  O_28
REMARK    7  A    between atoms: O_28  and  C_29
REMARK                            x       y       z     vdW  Elec       q    Type
REMARK                         _______ _______ _______ _____ _____    ______ ____
ROOT
ATOM      1  N   UNL     1      -0.145   0.038   3.025  0.00  0.00    -0.272 N 
ATOM      2  C   UNL     1       0.701   0.944   3.803  0.00  0.00    +0.197 C 
ATOM      3  N   UNL     1      -0.122   1.761   4.702  0.00  0.00    -0.321 N 
ATOM      4  C   UNL     1      -1.153   1.151   5.407  0.00  0.00    +0.041 A 
ATOM      5  C   UNL     1      -1.576   1.625   6.637  0.00  0.00    +0.024 A 
ATOM      6  C   UNL     1      -2.613   0.991   7.295  0.00  0.00    +0.002 A 
ATOM      7  C   UNL     1      -3.233  -0.114   6.733  0.00  0.00    +0.001 A 
ATOM      8  C   UNL     1      -2.821  -0.601   5.510  0.00  0.00    +0.015 A 
ATOM      9  C   UNL     1      -1.773   0.025   4.838  0.00  0.00    +0.058 A 
ATOM     10  C   UNL     1      -1.283  -0.469   3.540  0.00  0.00    +0.250 C 
ATOM     11  O   UNL     1      -1.898  -1.329   2.939  0.00  0.00    -0.270 OA
ATOM     12  H   UNL     1       0.052   2.710   4.804  0.00  0.00    +0.148 HD
ENDROOT
BRANCH   2  13
ATOM     13  C   UNL     1       1.676   0.137   4.620  0.00  0.00    +0.040 A 
ATOM     14  C   UNL     1       2.794   0.757   5.201  0.00  0.00    -0.008 A 
ATOM     15  C   UNL     1       3.031   2.134   5.037  0.00  0.00    +0.009 A 
ATOM     16  C   UNL     1       4.124   2.702   5.615  0.00  0.00    +0.001 A 
ATOM     17  C   UNL     1       5.016   1.940   6.367  0.00  0.00    +0.001 A 
ATOM     18  C   UNL     1       4.819   0.605   6.546  0.00  0.00    +0.008 A 
ATOM     19  C   UNL     1       3.701  -0.017   5.966  0.00  0.00    -0.017 A 
ATOM     20  C   UNL     1       3.466  -1.393   6.131  0.00  0.00    +0.012 A 
ATOM     21  C   UNL     1       2.374  -1.965   5.556  0.00  0.00    +0.046 A 
ATOM     22  C   UNL     1       1.475  -1.202   4.804  0.00  0.00    +0.127 A 
BRANCH  22  23
ATOM     23  O   UNL     1       0.390  -1.800   4.247  0.00  0.00    -0.495 OA
ATOM     24  C   UNL     1       0.175  -3.177   4.562  0.00  0.00    +0.277 C 
ENDBRANCH  22  23
ENDBRANCH   2  13
BRANCH   1  25
ATOM     25  C   UNL     1       0.249  -0.319   1.660  0.00  0.00    +0.075 C 
ATOM     26  C   UNL     1       0.530  -1.821   1.587  0.00  0.00    +0.028 C 
BRANCH  25  28
ATOM     27  C   UNL     1      -1.080   1.552   0.673  0.00  0.00    +0.006 C 
ATOM     28  C   UNL     1      -0.883   0.035   0.693  0.00  0.00    +0.019 C 
ENDBRANCH  25  28
ENDBRANCH   1  25
TORSDOF 4
