REMARK  Name = ZINC03392452
REMARK  6 active torsions:
REMARK  status: ('A' for Active; 'I' for Inactive)
REMARK    1  A    between atoms: C_7  and  C_11
REMARK    2  A    between atoms: C_11  and  C_12
REMARK    3  A    between atoms: C_12  and  C_14
REMARK    4  A    between atoms: C_12  and  N_25
REMARK    5  A    between atoms: N_16  and  C_17
REMARK    6  A    between atoms: C_26  and  C_28
REMARK                            x       y       z     vdW  Elec       q    Type
REMARK                         _______ _______ _______ _____ _____    ______ ____
ROOT
ATOM      1  C   UNL     1       4.175   0.619   1.423  0.00  0.00    +0.164 C 
ENDROOT
BRANCH   1   2
ATOM      2  C   UNL     1       5.670   0.430   1.407  0.00  0.00    +0.238 C 
ATOM      3  O   UNL     1       6.404   1.394   1.469  0.00  0.00    -0.273 OA
ATOM      4  N   UNL     1       6.192  -0.810   1.325  0.00  0.00    -0.282 N 
ATOM      5  H   UNL     1       5.607  -1.584   1.341  0.00  0.00    +0.155 HD
BRANCH   4   6
ATOM      6  C   UNL     1       7.578  -0.981   1.217  0.00  0.00    +0.069 A 
ATOM      7  C   UNL     1       8.439  -0.110   1.869  0.00  0.00    +0.027 A 
ATOM      8  C   UNL     1       9.806  -0.280   1.761  0.00  0.00    +0.017 A 
ATOM      9  C   UNL     1      10.317  -1.319   1.003  0.00  0.00    +0.021 A 
ATOM     10  C   UNL     1       9.463  -2.190   0.352  0.00  0.00    +0.055 A 
ATOM     11  C   UNL     1       8.094  -2.027   0.461  0.00  0.00    +0.146 A 
ATOM     12  F   UNL     1       7.259  -2.881  -0.171  0.00  0.00    -0.204 F 
ATOM     13 BR   UNL     1      12.189  -1.548   0.858  0.00  0.00    -0.050 Br
ENDBRANCH   4   6
ENDBRANCH   1   2
BRANCH   1  14
ATOM     14  N   UNL     1       3.855   1.935   1.983  0.00  0.00    -0.299 N 
ATOM     15  C   UNL     1       4.318   3.051   1.388  0.00  0.00    +0.251 C 
ATOM     16  O   UNL     1       5.003   2.967   0.385  0.00  0.00    -0.270 OA
ATOM     17  H   UNL     1       3.309   2.002   2.782  0.00  0.00    +0.150 HD
BRANCH  15  18
ATOM     18  C   UNL     1       3.998   4.367   1.948  0.00  0.00    +0.074 A 
ATOM     19  C   UNL     1       4.370   5.624   1.496  0.00  0.00    +0.021 A 
ATOM     20  C   UNL     1       3.927   6.704   2.217  0.00  0.00    +0.008 A 
ATOM     21  C   UNL     1       3.159   6.497   3.319  0.00  0.00    +0.046 A 
ATOM     22  S   UNL     1       3.021   4.770   3.386  0.00  0.00    -0.092 S 
ENDBRANCH  15  18
ENDBRANCH   1  14
BRANCH   1  23
ATOM     23  C   UNL     1       3.635   0.528  -0.006  0.00  0.00    +0.069 C 
BRANCH  23  30
ATOM     24  C   UNL     1       0.582   4.085   0.076  0.00  0.00    +0.001 A 
ATOM     25  C   UNL     1      -0.740   3.662   0.096  0.00  0.00    +0.002 A 
ATOM     26  C   UNL     1      -1.049   2.320   0.096  0.00  0.00    +0.026 A 
ATOM     27  C   UNL     1      -0.027   1.376   0.065  0.00  0.00    +0.047 A 
ATOM     28  C   UNL     1       1.311   1.809   0.045  0.00  0.00    +0.003 A 
ATOM     29  C   UNL     1       1.601   3.175   0.051  0.00  0.00    +0.010 A 
ATOM     30  C   UNL     1       2.130   0.594   0.021  0.00  0.00    -0.020 A 
ATOM     31  C   UNL     1       1.284  -0.449   0.028  0.00  0.00    +0.087 A 
ATOM     32  N   UNL     1      -0.008  -0.001   0.054  0.00  0.00    -0.360 N 
ATOM     33  H   UNL     1      -0.795  -0.569   0.063  0.00  0.00    +0.165 HD
ENDBRANCH  23  30
ENDBRANCH   1  23
TORSDOF 6
