REMARK  Name = ZINC57297128
REMARK  3 active torsions:
REMARK  status: ('A' for Active; 'I' for Inactive)
REMARK    1  A    between atoms: C_6  and  C_7
REMARK    2  A    between atoms: N_18  and  C_24
REMARK    3  A    between atoms: C_24  and  C_25
REMARK                            x       y       z     vdW  Elec       q    Type
REMARK                         _______ _______ _______ _____ _____    ______ ____
ROOT
ATOM      1  C   UNL     1      -0.017   1.381   0.010  0.00  0.00    +0.006 A 
ATOM      2  C   UNL     1       1.144   2.133   0.003  0.00  0.00    +0.027 A 
ATOM      3  C   UNL     1       2.353   1.441  -0.013  0.00  0.00    +0.050 A 
ATOM      4  C   UNL     1       2.367   0.013  -0.023  0.00  0.00    +0.004 A 
ATOM      5  C   UNL     1       1.175  -0.717  -0.014  0.00  0.00    +0.014 A 
ATOM      6  C   UNL     1       0.002  -0.004   0.002  0.00  0.00    -0.044 A 
ATOM      7  C   UNL     1       3.753  -0.370  -0.045  0.00  0.00    -0.017 A 
ATOM      8  C   UNL     1       4.466   0.773  -0.068  0.00  0.00    +0.040 A 
ATOM      9  N   UNL     1       3.647   1.866  -0.018  0.00  0.00    -0.341 N 
ATOM     10  C   UNL     1       4.197   3.230   0.037  0.00  0.00    +0.137 C 
ATOM     11  C   UNL     1       5.671   3.166  -0.379  0.00  0.00    +0.107 C 
ATOM     12  N   UNL     1       6.389   2.116   0.358  0.00  0.00    -0.284 NA
ATOM     13  C   UNL     1       5.978   0.774  -0.105  0.00  0.00    +0.104 C 
ATOM     14  C   UNL     1       6.477  -0.297   0.851  0.00  0.00    +0.025 C 
ATOM     15  C   UNL     1       5.688  -1.583   0.887  0.00  0.00    +0.007 C 
ATOM     16  C   UNL     1       4.484  -1.684  -0.038  0.00  0.00    +0.037 C 
ENDROOT
BRANCH   6  17
ATOM     17  C   UNL     1      -1.306  -0.752   0.013  0.00  0.00    +0.019 C 
ATOM     18  C   UNL     1      -2.093  -0.385   1.272  0.00  0.00    +0.008 C 
ATOM     19  C   UNL     1      -3.421  -1.144   1.283  0.00  0.00    +0.001 C 
ATOM     20  C   UNL     1      -4.236  -0.764   0.045  0.00  0.00    +0.000 C 
ATOM     21  C   UNL     1      -3.449  -1.131  -1.215  0.00  0.00    +0.001 C 
ATOM     22  C   UNL     1      -2.121  -0.372  -1.226  0.00  0.00    +0.008 C 
ENDBRANCH   6  17
BRANCH  12  23
ATOM     23  C   UNL     1       7.843   2.290   0.242  0.00  0.00    +0.180 C 
BRANCH  23  24
ATOM     24  C   UNL     1       8.253   3.562   0.939  0.00  0.00    +0.225 C 
ATOM     25  O   UNL     1       7.417   4.254   1.479  0.00  0.00    -0.275 OA
ATOM     26  N   UNL     1       9.550   3.929   0.962  0.00  0.00    -0.328 N 
ATOM     27  H   UNL     1      10.218   3.375   0.530  0.00  0.00    +0.145 HD
ATOM     28  H   UNL     1       9.814   4.748   1.410  0.00  0.00    +0.145 HD
ENDBRANCH  23  24
ENDBRANCH  12  23
TORSDOF 3
