REMARK  Name = ZINC67266787
REMARK  6 active torsions:
REMARK  status: ('A' for Active; 'I' for Inactive)
REMARK    1  A    between atoms: C_4  and  C_7
REMARK    2  A    between atoms: C_17  and  C_19
REMARK    3  A    between atoms: C_19  and  C_20
REMARK    4  A    between atoms: C_20  and  C_21
REMARK    5  A    between atoms: C_21  and  C_22
REMARK    6  A    between atoms: C_22  and  N_23
REMARK                            x       y       z     vdW  Elec       q    Type
REMARK                         _______ _______ _______ _____ _____    ______ ____
ROOT
ATOM      1  C   UNL     1       3.711  -0.707  -0.038  0.00  0.00    +0.024 C 
ATOM      2  C   UNL     1       3.817  -1.598   1.203  0.00  0.00    +0.014 C 
ATOM      3  C   UNL     1       5.235  -2.160   1.328  0.00  0.00    +0.057 C 
ATOM      4  C   UNL     1       5.617  -2.820   0.011  0.00  0.00    +0.054 A 
ATOM      5  C   UNL     1       4.937  -2.530  -1.129  0.00  0.00    +0.015 A 
ATOM      6  S   UNL     1       5.756  -3.537  -2.333  0.00  0.00    -0.057 S 
ATOM      7  C   UNL     1       6.888  -4.238  -1.300  0.00  0.00    +0.165 A 
ATOM      8  N   UNL     1       6.604  -3.699  -0.135  0.00  0.00    -0.229 NA
ATOM      9  N   UNL     1       7.881  -5.162  -1.605  0.00  0.00    -0.265 N 
ATOM     10  C   UNL     1       8.702  -5.614  -0.636  0.00  0.00    +0.219 C 
ATOM     11  O   UNL     1       8.574  -5.215   0.502  0.00  0.00    -0.275 OA
ATOM     12  C   UNL     1       3.791  -1.589  -1.294  0.00  0.00    +0.052 C 
ATOM     13  H   UNL     1       7.984  -5.481  -2.515  0.00  0.00    +0.157 HD
ENDROOT
BRANCH   1  17
ATOM     14  C   UNL     1      -0.017   1.378   0.010  0.00  0.00    +0.000 A 
ATOM     15  C   UNL     1       1.171   2.086   0.002  0.00  0.00    +0.000 A 
ATOM     16  C   UNL     1       2.377   1.411  -0.013  0.00  0.00    +0.004 A 
ATOM     17  C   UNL     1       2.396   0.029  -0.020  0.00  0.00    -0.044 A 
ATOM     18  C   UNL     1       1.208  -0.679  -0.012  0.00  0.00    +0.004 A 
ATOM     19  C   UNL     1       0.002  -0.004   0.002  0.00  0.00    +0.000 A 
ENDBRANCH   1  17
BRANCH  10  20
ATOM     20  C   UNL     1       9.778  -6.615  -0.967  0.00  0.00    +0.096 C 
BRANCH  20  21
ATOM     21  C   UNL     1      10.562  -6.959   0.301  0.00  0.00    +0.011 C 
BRANCH  21  22
ATOM     22  C   UNL     1      11.655  -7.976  -0.034  0.00  0.00    +0.019 C 
BRANCH  22  23
ATOM     23  C   UNL     1      12.438  -8.320   1.234  0.00  0.00    +0.106 C 
BRANCH  23  24
ATOM     24  N   UNL     1      13.485  -9.293   0.912  0.00  0.00    -0.300 N 
ATOM     25  C   UNL     1      14.305  -9.746   1.881  0.00  0.00    +0.297 C 
ATOM     26  O   UNL     1      14.177  -9.346   3.022  0.00  0.00    -0.253 OA
ATOM     27  N   UNL     1      15.268 -10.641   1.585  0.00  0.00    -0.313 N 
ATOM     28  H   UNL     1      13.587  -9.613   0.002  0.00  0.00    +0.150 HD
ATOM     29  H   UNL     1      15.370 -10.960   0.675  0.00  0.00    +0.146 HD
ATOM     30  H   UNL     1      15.859 -10.966   2.283  0.00  0.00    +0.146 HD
ENDBRANCH  23  24
ENDBRANCH  22  23
ENDBRANCH  21  22
ENDBRANCH  20  21
ENDBRANCH  10  20
TORSDOF 6
