REMARK  Name = ZINC39955354
REMARK  5 active torsions:
REMARK  status: ('A' for Active; 'I' for Inactive)
REMARK    1  A    between atoms: C_3  and  C_9
REMARK    2  A    between atoms: C_10  and  C_25
REMARK    3  A    between atoms: C_11  and  N_24
REMARK    4  A    between atoms: C_17  and  S_20
REMARK    5  A    between atoms: S_20  and  N_23
REMARK                            x       y       z     vdW  Elec       q    Type
REMARK                         _______ _______ _______ _____ _____    ______ ____
ROOT
ATOM      1  C   UNL     1       3.659   2.166  -0.022  0.00  0.00    +0.114 A 
ATOM      2  C   UNL     1       5.008   1.597   0.059  0.00  0.00    +0.119 A 
ATOM      3  C   UNL     1       5.889   2.673   0.017  0.00  0.00    +0.140 A 
ATOM      4  N   UNL     1       5.145   3.804  -0.081  0.00  0.00    -0.199 N 
ATOM      5  N   UNL     1       3.789   3.470  -0.109  0.00  0.00    -0.162 NA
ATOM      6  C   UNL     1       5.657   5.102  -0.150  0.00  0.00    +0.156 A 
ATOM      7  C   UNL     1       4.906   6.108  -0.747  0.00  0.00    +0.050 A 
ATOM      8  C   UNL     1       5.424   7.389  -0.808  0.00  0.00    +0.034 A 
ATOM      9  C   UNL     1       6.682   7.621  -0.268  0.00  0.00    +0.123 A 
ATOM     10  C   UNL     1       7.373   6.574   0.310  0.00  0.00    +0.141 A 
ATOM     11  N   UNL     1       6.850   5.364   0.358  0.00  0.00    -0.234 NA
ENDROOT
BRANCH   1  14
ATOM     12  C   UNL     1       0.980  -0.288   0.941  0.00  0.00    +0.021 A 
ATOM     13  C   UNL     1       2.169   0.413   0.937  0.00  0.00    +0.013 A 
ATOM     14  C   UNL     1       2.384   1.410  -0.013  0.00  0.00    +0.022 A 
ATOM     15  C   UNL     1       1.395   1.693  -0.956  0.00  0.00    +0.052 A 
ATOM     16  C   UNL     1       0.210   0.985  -0.943  0.00  0.00    +0.040 A 
ATOM     17  C   UNL     1       0.002  -0.004   0.004  0.00  0.00    +0.042 A 
ATOM     18 CL   UNL     1      -1.491  -0.890   0.015  0.00  0.00    -0.083 Cl
ATOM     19 CL   UNL     1       1.654   2.933  -2.143  0.00  0.00    -0.083 Cl
ENDBRANCH   1  14
BRANCH   9  20
ATOM     20  S   UNL     1       7.389   9.234  -0.320  0.00  0.00    +0.057 S 
ATOM     21  O   UNL     1       8.797   9.063  -0.235  0.00  0.00    -0.153 OA
ATOM     22  O   UNL     1       6.769   9.915  -1.401  0.00  0.00    -0.153 OA
BRANCH  20  23
ATOM     23  N   UNL     1       6.924  10.018   1.063  0.00  0.00    -0.203 NA
ATOM     24  H   UNL     1       7.499  10.694   1.454  0.00  0.00    +0.144 HD
ATOM     25  H   UNL     1       6.076   9.800   1.481  0.00  0.00    +0.144 HD
ENDBRANCH  20  23
ENDBRANCH   9  20
BRANCH   3  26
ATOM     26  N   UNL     1       7.268   2.603   0.067  0.00  0.00    -0.342 N 
ATOM     27  H   UNL     1       7.707   1.741   0.138  0.00  0.00    +0.144 HD
ATOM     28  H   UNL     1       7.796   3.416   0.031  0.00  0.00    +0.144 HD
ENDBRANCH   3  26
BRANCH   2  29
ATOM     29  C   UNL     1       5.351   0.210   0.163  0.00  0.00    +0.105 C 
ATOM     30  N   UNL     1       5.622  -0.890   0.244  0.00  0.00    -0.191 NA
ENDBRANCH   2  29
TORSDOF 5
