REMARK  Name = ZINC35987403
REMARK  8 active torsions:
REMARK  status: ('A' for Active; 'I' for Inactive)
REMARK    1  A    between atoms: C_1  and  C_2
REMARK    2  A    between atoms: C_5  and  C_8
REMARK    3  A    between atoms: C_17  and  C_21
REMARK    4  A    between atoms: N_23  and  C_24
REMARK    5  A    between atoms: C_24  and  C_26
REMARK    6  A    between atoms: C_24  and  C_27
REMARK    7  A    between atoms: C_33  and  C_35
REMARK    8  A    between atoms: C_40  and  C_41
REMARK                            x       y       z     vdW  Elec       q    Type
REMARK                         _______ _______ _______ _____ _____    ______ ____
ROOT
ATOM      1  C   UNL     1      -0.085  -5.561  -0.502  0.00  0.00    +0.247 C 
ATOM      2  O   UNL     1      -0.047  -4.372  -0.748  0.00  0.00    -0.270 OA
ATOM      3  N   UNL     1      -0.127  -5.984   0.777  0.00  0.00    -0.297 N 
ATOM      4  C   UNL     1      -0.216  -5.020   1.882  0.00  0.00    +0.112 C 
ATOM      5  C   UNL     1       0.923  -5.295   2.869  0.00  0.00    +0.074 C 
ATOM      6  C   UNL     1       0.875  -6.760   3.303  0.00  0.00    +0.142 C 
ATOM      7  C   UNL     1       1.052  -7.672   2.087  0.00  0.00    +0.074 C 
ATOM      8  C   UNL     1      -0.092  -7.419   1.093  0.00  0.00    +0.112 C 
ATOM      9  N   UNL     1      -0.415  -7.042   3.950  0.00  0.00    -0.255 N 
ATOM     10  C   UNL     1      -0.098  -7.450   5.337  0.00  0.00    +0.190 C 
ATOM     11  C   UNL     1       1.316  -6.853   5.553  0.00  0.00    +0.194 C 
ATOM     12  O   UNL     1       1.923  -7.015   4.251  0.00  0.00    -0.353 OA
ATOM     13  C   UNL     1      -1.639  -6.948   3.393  0.00  0.00    +0.250 C 
ATOM     14  O   UNL     1      -1.754  -6.591   2.237  0.00  0.00    -0.270 OA
ENDROOT
BRANCH   1  19
ATOM     15  C   UNL     1      -0.083  -9.390  -4.798  0.00  0.00    +0.044 C 
ATOM     16  C   UNL     1      -0.084  -8.387  -3.673  0.00  0.00    -0.050 A 
ATOM     17  C   UNL     1       0.715  -7.260  -3.755  0.00  0.00    +0.004 A 
ATOM     18  C   UNL     1       0.719  -6.338  -2.728  0.00  0.00    +0.013 A 
ATOM     19  C   UNL     1      -0.085  -6.545  -1.606  0.00  0.00    +0.037 A 
ATOM     20  C   UNL     1      -0.887  -7.684  -1.530  0.00  0.00    +0.013 A 
ATOM     21  C   UNL     1      -0.886  -8.595  -2.566  0.00  0.00    +0.004 A 
ENDBRANCH   1  19
BRANCH  13  22
ATOM     22  C   UNL     1      -2.840  -7.279   4.188  0.00  0.00    +0.040 A 
ATOM     23  C   UNL     1      -2.906  -8.485   4.890  0.00  0.00    +0.013 A 
ATOM     24  C   UNL     1      -4.030  -8.787   5.630  0.00  0.00    +0.001 A 
ATOM     25  C   UNL     1      -5.091  -7.900   5.678  0.00  0.00    +0.000 A 
ATOM     26  C   UNL     1      -5.032  -6.704   4.985  0.00  0.00    +0.004 A 
ATOM     27  C   UNL     1      -3.911  -6.386   4.245  0.00  0.00    -0.038 A 
ATOM     28  C   UNL     1      -3.846  -5.081   3.496  0.00  0.00    +0.044 C 
ENDBRANCH  13  22
BRANCH  10  29
ATOM     29  C   UNL     1      -1.086  -6.857   6.307  0.00  0.00    +0.236 C 
ATOM     30  O   UNL     1      -1.808  -5.947   5.958  0.00  0.00    -0.274 OA
ATOM     31  N   UNL     1      -1.169  -7.338   7.564  0.00  0.00    -0.307 N 
ATOM     32  H   UNL     1      -0.591  -8.066   7.843  0.00  0.00    +0.149 HD
BRANCH  31  33
ATOM     33  C   UNL     1      -2.130  -6.761   8.507  0.00  0.00    +0.100 C 
ATOM     34  C   UNL     1      -1.513  -5.531   9.175  0.00  0.00    +0.033 C 
BRANCH  33  35
ATOM     35  C   UNL     1      -2.476  -7.784   9.559  0.00  0.00    -0.027 A 
ATOM     36  C   UNL     1      -1.489  -8.598  10.082  0.00  0.00    +0.005 A 
ATOM     37  C   UNL     1      -1.807  -9.536  11.047  0.00  0.00    +0.000 A 
ATOM     38  C   UNL     1      -3.111  -9.659  11.489  0.00  0.00    +0.000 A 
ATOM     39  C   UNL     1      -4.098  -8.843  10.966  0.00  0.00    +0.000 A 
ATOM     40  C   UNL     1      -3.779  -7.903  10.004  0.00  0.00    +0.005 A 
ENDBRANCH  33  35
ENDBRANCH  31  33
ENDBRANCH  10  29
TORSDOF 5
