REMARK  Name = ZINC63083864
REMARK  6 active torsions:
REMARK  status: ('A' for Active; 'I' for Inactive)
REMARK    1  A    between atoms: C_1  and  C_2
REMARK    2  A    between atoms: C_7  and  S_12
REMARK    3  A    between atoms: S_12  and  C_13
REMARK    4  A    between atoms: C_13  and  C_14
REMARK    5  A    between atoms: N_16  and  C_17
REMARK    6  A    between atoms: C_19  and  C_31
REMARK                            x       y       z     vdW  Elec       q    Type
REMARK                         _______ _______ _______ _____ _____    ______ ____
ROOT
ATOM      1  C   UNL     1      -4.091  -4.910   1.844  0.00  0.00    +0.224 C 
ATOM      2  O   UNL     1      -4.084  -5.978   2.419  0.00  0.00    -0.275 OA
ATOM      3  N   UNL     1      -5.261  -4.324   1.526  0.00  0.00    -0.302 N 
ATOM      4  H   UNL     1      -5.267  -3.470   1.066  0.00  0.00    +0.150 HD
ENDROOT
BRANCH   3   5
ATOM      5  C   UNL     1      -6.526  -4.976   1.875  0.00  0.00    +0.148 C 
ATOM      6  C   UNL     1      -7.495  -3.984   2.573  0.00  0.00    +0.126 C 
ATOM      7  C   UNL     1      -8.530  -4.782   3.388  0.00  0.00    +0.021 C 
ATOM      8  C   UNL     1      -9.233  -3.811   4.338  0.00  0.00    +0.006 C 
ATOM      9  C   UNL     1     -10.268  -4.539   5.207  0.00  0.00    +0.000 C 
ATOM     10  C   UNL     1      -9.630  -4.623   6.629  0.00  0.00    +0.000 C 
ATOM     11  C   UNL     1      -8.580  -5.685   6.558  0.00  0.00    +0.001 C 
ATOM     12  C   UNL     1      -7.466  -5.407   5.570  0.00  0.00    +0.014 C 
ATOM     13  C   UNL     1      -7.808  -5.902   4.199  0.00  0.00    +0.053 C 
ATOM     14  S   UNL     1      -6.288  -6.217   3.214  0.00  0.00    -0.134 S 
BRANCH   6  15
ATOM     15  C   UNL     1      -6.734  -3.105   3.475  0.00  0.00    +0.069 C 
ATOM     16  N   UNL     1      -6.147  -2.426   4.172  0.00  0.00    -0.196 NA
ENDBRANCH   6  15
ENDBRANCH   3   5
BRANCH   1  17
ATOM     17  C   UNL     1      -2.790  -4.240   1.485  0.00  0.00    +0.168 C 
BRANCH  17  18
ATOM     18  S   UNL     1      -1.405  -5.270   2.043  0.00  0.00    -0.106 S 
BRANCH  18  25
ATOM     19  C   UNL     1      -0.018   1.503   0.010  0.00  0.00    +0.044 C 
ATOM     20  C   UNL     1       0.002  -0.004   0.002  0.00  0.00    -0.048 A 
ATOM     21  C   UNL     1       0.005  -0.672  -1.235  0.00  0.00    +0.005 A 
ATOM     22  C   UNL     1       0.022  -2.017  -1.335  0.00  0.00    +0.028 A 
ATOM     23  C   UNL     1       0.040  -2.834  -0.114  0.00  0.00    +0.061 A 
ATOM     24  N   UNL     1       0.057  -4.120   0.090  0.00  0.00    -0.355 N 
ATOM     25  C   UNL     1       0.067  -4.335   1.542  0.00  0.00    +0.236 C 
ATOM     26  N   UNL     1       0.053  -3.002   2.159  0.00  0.00    -0.355 N 
ATOM     27  C   UNL     1       0.037  -2.127   1.195  0.00  0.00    +0.061 A 
ATOM     28  C   UNL     1       0.022  -0.657   1.181  0.00  0.00    +0.030 A 
ATOM     29  H   UNL     1       0.062  -4.809  -0.593  0.00  0.00    +0.162 HD
ATOM     30  H   UNL     1       0.055  -2.810   3.109  0.00  0.00    +0.162 HD
ENDBRANCH  18  25
ENDBRANCH  17  18
ENDBRANCH   1  17
TORSDOF 5
