REMARK  Name = ZINC19842676
REMARK  3 active torsions:
REMARK  status: ('A' for Active; 'I' for Inactive)
REMARK    1  A    between atoms: C_6  and  C_7
REMARK    2  A    between atoms: C_7  and  C_8
REMARK    3  A    between atoms: C_7  and  N_16
REMARK                            x       y       z     vdW  Elec       q    Type
REMARK                         _______ _______ _______ _____ _____    ______ ____
ROOT
ATOM      1  C   UNL     1      -0.017   1.380   0.010  0.00  0.00    +0.007 A 
ATOM      2  C   UNL     1       1.167   2.093   0.002  0.00  0.00    +0.028 A 
ATOM      3  C   UNL     1       2.378   1.419  -0.013  0.00  0.00    +0.067 A 
ATOM      4  C   UNL     1       2.397   0.022  -0.021  0.00  0.00    +0.067 A 
ATOM      5  C   UNL     1       1.204  -0.684  -0.014  0.00  0.00    +0.033 A 
ATOM      6  C   UNL     1       0.002  -0.004   0.002  0.00  0.00    -0.024 A 
ATOM      7  N   UNL     1       3.736  -0.362  -0.035  0.00  0.00    -0.306 N 
ATOM      8  H   UNL     1       4.064  -1.275  -0.043  0.00  0.00    +0.170 HD
ATOM      9  C   UNL     1       4.496   0.749  -0.035  0.00  0.00    +0.325 A 
ATOM     10  O   UNL     1       5.713   0.766  -0.047  0.00  0.00    -0.247 OA
ATOM     11  N   UNL     1       3.706   1.839  -0.023  0.00  0.00    -0.306 N 
ATOM     12  H   UNL     1       4.010   2.760  -0.020  0.00  0.00    +0.170 HD
ENDROOT
BRANCH   6  13
ATOM     13  C   UNL     1      -1.294  -0.772   0.011  0.00  0.00    +0.113 C 
BRANCH  13  14
ATOM     14  C   UNL     1      -1.866  -0.808  -1.383  0.00  0.00    -0.010 A 
ATOM     15  C   UNL     1      -2.802   0.132  -1.771  0.00  0.00    +0.045 A 
ATOM     16  C   UNL     1      -3.327   0.099  -3.051  0.00  0.00    +0.124 A 
ATOM     17  C   UNL     1      -2.914  -0.877  -3.943  0.00  0.00    +0.039 A 
ATOM     18  C   UNL     1      -1.979  -1.817  -3.554  0.00  0.00    +0.018 A 
ATOM     19  C   UNL     1      -1.450  -1.779  -2.276  0.00  0.00    +0.023 A 
ATOM     20 BR   UNL     1      -0.164  -3.061  -1.747  0.00  0.00    -0.050 Br
ATOM     21  F   UNL     1      -4.242   1.018  -3.431  0.00  0.00    -0.205 F 
ENDBRANCH  13  14
BRANCH  13  22
ATOM     22  N   UNL     1      -2.248  -0.114   0.914  0.00  0.00    -0.320 NA
ATOM     23  H   UNL     1      -2.434   0.832   0.616  0.00  0.00    +0.119 HD
ATOM     24  H   UNL     1      -3.103  -0.644   0.987  0.00  0.00    +0.119 HD
ENDBRANCH  13  22
ENDBRANCH   6  13
TORSDOF 3
