REMARK  Name = ZINC01628542
REMARK  9 active torsions:
REMARK  status: ('A' for Active; 'I' for Inactive)
REMARK    1  A    between atoms: C_4  and  N_7
REMARK    2  A    between atoms: N_7  and  N_8
REMARK    3  A    between atoms: C_9  and  C_11
REMARK    4  A    between atoms: C_11  and  C_12
REMARK    5  A    between atoms: C_15  and  C_17
REMARK    6  A    between atoms: C_19  and  C_22
REMARK    7  A    between atoms: C_22  and  C_23
REMARK    8  A    between atoms: N_25  and  N_26
REMARK    9  A    between atoms: N_26  and  C_27
REMARK                            x       y       z     vdW  Elec       q    Type
REMARK                         _______ _______ _______ _____ _____    ______ ____
ROOT
ATOM      1  C   UNL     1       0.002  -0.004   0.002  0.00  0.00    +0.058 A 
ATOM      2  C   UNL     1       1.191  -0.666  -0.013  0.00  0.00    +0.071 A 
ATOM      3  S   UNL     1       2.335   0.709  -0.016  0.00  0.00    -0.073 S 
ATOM      4  C   UNL     1       1.110   2.011   0.002  0.00  0.00    +0.133 A 
ATOM      5  N   UNL     1      -0.016   1.307   0.009  0.00  0.00    -0.241 NA
ENDROOT
BRANCH   4   6
ATOM      6  C   UNL     1       1.298   3.471   0.008  0.00  0.00    +0.133 A 
ATOM      7  N   UNL     1       2.424   4.176   0.001  0.00  0.00    -0.241 NA
ATOM      8  C   UNL     1       2.406   5.486   0.009  0.00  0.00    +0.058 A 
ATOM      9  C   UNL     1       1.217   6.149   0.024  0.00  0.00    +0.071 A 
ATOM     10  S   UNL     1       0.073   4.774   0.019  0.00  0.00    -0.073 S 
BRANCH   8  11
ATOM     11  C   UNL     1       3.700   6.259   0.001  0.00  0.00    +0.153 C 
BRANCH  11  12
ATOM     12  C   UNL     1       4.560   5.810   1.154  0.00  0.00    +0.235 C 
ATOM     13  O   UNL     1       4.161   4.947   1.908  0.00  0.00    -0.274 OA
ATOM     14  N   UNL     1       5.772   6.366   1.348  0.00  0.00    -0.236 N 
ATOM     15  H   UNL     1       6.091   7.056   0.745  0.00  0.00    +0.173 HD
BRANCH  14  16
ATOM     16  N   UNL     1       6.571   5.949   2.420  0.00  0.00    -0.264 N 
ATOM     17  H   UNL     1       6.252   5.259   3.023  0.00  0.00    +0.170 HD
BRANCH  16  18
ATOM     18  C   UNL     1       7.827   6.526   2.620  0.00  0.00    +0.044 A 
ATOM     19  C   UNL     1       8.288   7.510   1.754  0.00  0.00    +0.024 A 
ATOM     20  C   UNL     1       9.528   8.082   1.959  0.00  0.00    +0.002 A 
ATOM     21  C   UNL     1      10.316   7.669   3.018  0.00  0.00    +0.000 A 
ATOM     22  C   UNL     1       9.863   6.686   3.878  0.00  0.00    +0.002 A 
ATOM     23  C   UNL     1       8.621   6.113   3.683  0.00  0.00    +0.024 A 
ENDBRANCH  16  18
ENDBRANCH  14  16
ENDBRANCH  11  12
ENDBRANCH   8  11
ENDBRANCH   4   6
BRANCH   1  24
ATOM     24  C   UNL     1      -1.292  -0.776   0.011  0.00  0.00    +0.153 C 
BRANCH  24  26
ATOM     25  N   UNL     1      -3.338  -0.899   1.396  0.00  0.00    -0.236 N 
ATOM     26  C   UNL     1      -2.130  -0.340   1.185  0.00  0.00    +0.235 C 
ATOM     27  O   UNL     1      -1.716   0.514   1.940  0.00  0.00    -0.274 OA
ATOM     28  H   UNL     1      -3.668  -1.582   0.791  0.00  0.00    +0.173 HD
BRANCH  25  29
ATOM     29  N   UNL     1      -4.117  -0.493   2.487  0.00  0.00    -0.264 N 
ATOM     30  H   UNL     1      -3.786   0.190   3.091  0.00  0.00    +0.170 HD
BRANCH  29  34
ATOM     31  C   UNL     1      -7.849  -2.219   3.138  0.00  0.00    +0.000 A 
ATOM     32  C   UNL     1      -7.380  -1.246   4.001  0.00  0.00    +0.002 A 
ATOM     33  C   UNL     1      -6.142  -0.671   3.788  0.00  0.00    +0.024 A 
ATOM     34  C   UNL     1      -5.369  -1.072   2.706  0.00  0.00    +0.044 A 
ATOM     35  C   UNL     1      -5.846  -2.046   1.838  0.00  0.00    +0.024 A 
ATOM     36  C   UNL     1      -7.082  -2.621   2.060  0.00  0.00    +0.002 A 
ENDBRANCH  29  34
ENDBRANCH  25  29
ENDBRANCH  24  26
ENDBRANCH   1  24
TORSDOF 9
