REMARK  Name = ZINC09061114
REMARK  4 active torsions:
REMARK  status: ('A' for Active; 'I' for Inactive)
REMARK    1  A    between atoms: N_19  and  C_22
REMARK    2  A    between atoms: C_22  and  C_23
REMARK    3  A    between atoms: C_29  and  C_33
REMARK    4  A    between atoms: C_30  and  N_32
REMARK                            x       y       z     vdW  Elec       q    Type
REMARK                         _______ _______ _______ _____ _____    ______ ____
ROOT
ATOM      1  C   UNL     1       2.127   5.827   0.033  0.00  0.00    +0.001 A 
ATOM      2  C   UNL     1       0.879   6.433   0.048  0.00  0.00    +0.004 A 
ATOM      3  C   UNL     1      -0.272   5.673   0.048  0.00  0.00    +0.047 A 
ATOM      4  C   UNL     1      -0.188   4.287   0.034  0.00  0.00    +0.143 A 
ATOM      5  C   UNL     1       1.075   3.673   0.018  0.00  0.00    +0.060 A 
ATOM      6  C   UNL     1       2.232   4.454   0.018  0.00  0.00    +0.015 A 
ATOM      7  C   UNL     1       1.150   2.204   0.003  0.00  0.00    +0.152 A 
ATOM      8  C   UNL     1      -0.018   1.498   0.010  0.00  0.00    +0.104 A 
ATOM      9  C   UNL     1      -1.244   2.186   0.020  0.00  0.00    +0.346 A 
ATOM     10  O   UNL     1      -2.282   1.547   0.019  0.00  0.00    -0.245 OA
ATOM     11  O   UNL     1      -1.304   3.527   0.035  0.00  0.00    -0.422 OA
ATOM     12  C   UNL     1       0.002  -0.004   0.002  0.00  0.00    +0.148 C 
ATOM     13  C   UNL     1      -0.383  -0.550   1.343  0.00  0.00    -0.001 A 
ATOM     14  C   UNL     1       0.200  -0.412   2.584  0.00  0.00    +0.007 A 
ATOM     15  C   UNL     1      -0.420  -1.062   3.646  0.00  0.00    +0.000 A 
ATOM     16  C   UNL     1      -1.566  -1.809   3.462  0.00  0.00    +0.002 A 
ATOM     17  C   UNL     1      -2.157  -1.950   2.216  0.00  0.00    +0.024 A 
ATOM     18  C   UNL     1      -1.545  -1.303   1.141  0.00  0.00    +0.041 A 
ATOM     19  N   UNL     1      -1.913  -1.272  -0.192  0.00  0.00    -0.265 N 
ATOM     20  C   UNL     1      -1.065  -0.532  -0.935  0.00  0.00    +0.241 C 
ATOM     21  O   UNL     1      -1.142  -0.327  -2.128  0.00  0.00    -0.274 OA
ATOM     22  C   UNL     1       1.351  -0.514  -0.417  0.00  0.00    +0.110 C 
ATOM     23  C   UNL     1       2.435   0.299  -0.402  0.00  0.00    +0.199 C 
ATOM     24  O   UNL     1       2.345   1.584  -0.015  0.00  0.00    -0.440 OA
ENDROOT
BRANCH  23  25
ATOM     25  N   UNL     1       3.653  -0.200  -0.792  0.00  0.00    -0.328 N 
ATOM     26  H   UNL     1       3.731  -1.125  -1.073  0.00  0.00    +0.145 HD
ATOM     27  H   UNL     1       4.436   0.373  -0.786  0.00  0.00    +0.145 HD
ENDBRANCH  23  25
BRANCH  22  28
ATOM     28  C   UNL     1       1.494  -1.876  -0.836  0.00  0.00    +0.102 C 
ATOM     29  N   UNL     1       1.607  -2.956  -1.169  0.00  0.00    -0.191 NA
ENDBRANCH  22  28
BRANCH  19  30
ATOM     30  C   UNL     1      -3.087  -1.962  -0.733  0.00  0.00    +0.149 C 
BRANCH  30  31
ATOM     31  C   UNL     1      -4.281  -1.045  -0.673  0.00  0.00    -0.027 A 
ATOM     32  C   UNL     1      -5.107  -1.027   0.440  0.00  0.00    +0.025 A 
ATOM     33  C   UNL     1      -6.191  -0.170   0.460  0.00  0.00    +0.111 A 
ATOM     34  N   UNL     1      -6.448   0.617  -0.566  0.00  0.00    -0.263 NA
ATOM     35  C   UNL     1      -5.687   0.624  -1.643  0.00  0.00    +0.111 A 
ATOM     36  C   UNL     1      -4.583  -0.203  -1.733  0.00  0.00    +0.025 A 
ENDBRANCH  30  31
ENDBRANCH  19  30
TORSDOF 4
