REMARK  Name = ZINC63933028
REMARK  10 active torsions:
REMARK  status: ('A' for Active; 'I' for Inactive)
REMARK    1  A    between atoms: C_1  and  C_2
REMARK    2  A    between atoms: C_7  and  C_37
REMARK    3  A    between atoms: C_9  and  N_12
REMARK    4  A    between atoms: C_13  and  C_15
REMARK    5  A    between atoms: C_15  and  N_16
REMARK    6  A    between atoms: N_19  and  C_22
REMARK    7  A    between atoms: C_22  and  C_24
REMARK    8  A    between atoms: C_22  and  C_30
REMARK    9  A    between atoms: C_37  and  O_39
REMARK   10  A    between atoms: O_39  and  C_40
REMARK                            x       y       z     vdW  Elec       q    Type
REMARK                         _______ _______ _______ _____ _____    ______ ____
ROOT
ATOM      1  C   UNL     1       0.372  -1.028   5.482  0.00  0.00    +0.180 C 
ENDROOT
BRANCH   1   2
ATOM      2  N   UNL     1       0.119   0.407   5.672  0.00  0.00    -0.292 NA
ATOM      3  C   UNL     1       1.113   1.216   4.954  0.00  0.00    +0.100 C 
ATOM      4  C   UNL     1       0.768   2.699   5.110  0.00  0.00    +0.100 C 
ATOM      5  N   UNL     1       0.743   3.046   6.538  0.00  0.00    -0.289 NA
ATOM      6  C   UNL     1      -0.251   2.236   7.256  0.00  0.00    +0.100 C 
ATOM      7  C   UNL     1       0.094   0.753   7.099  0.00  0.00    +0.100 C 
BRANCH   5   8
ATOM      8  C   UNL     1       0.490   4.481   6.727  0.00  0.00    +0.117 C 
BRANCH   8   9
ATOM      9  C   UNL     1       1.580   5.276   6.056  0.00  0.00    -0.026 A 
ATOM     10  C   UNL     1       2.892   4.845   6.124  0.00  0.00    +0.007 A 
ATOM     11  C   UNL     1       3.892   5.574   5.509  0.00  0.00    +0.020 A 
ATOM     12  C   UNL     1       3.580   6.735   4.824  0.00  0.00    +0.041 A 
ATOM     13  C   UNL     1       2.267   7.166   4.756  0.00  0.00    +0.020 A 
ATOM     14  C   UNL     1       1.267   6.433   5.367  0.00  0.00    +0.007 A 
ATOM     15 CL   UNL     1       4.836   7.652   4.051  0.00  0.00    -0.084 Cl
ENDBRANCH   8   9
BRANCH   8  16
ATOM     16  C   UNL     1       0.472   4.798   8.200  0.00  0.00    -0.026 A 
ATOM     17  C   UNL     1       1.387   4.202   9.047  0.00  0.00    +0.005 A 
ATOM     18  C   UNL     1       1.371   4.492  10.398  0.00  0.00    +0.000 A 
ATOM     19  C   UNL     1       0.438   5.379  10.903  0.00  0.00    +0.000 A 
ATOM     20  C   UNL     1      -0.477   5.976  10.056  0.00  0.00    +0.000 A 
ATOM     21  C   UNL     1      -0.458   5.688   8.704  0.00  0.00    +0.005 A 
ENDBRANCH   8  16
ENDBRANCH   5   8
ENDBRANCH   1   2
BRANCH   1  23
ATOM     22  N   UNL     1       0.324  -2.663   3.627  0.00  0.00    -0.285 N 
ATOM     23  C   UNL     1       0.149  -1.391   4.037  0.00  0.00    +0.231 C 
ATOM     24  O   UNL     1      -0.188  -0.539   3.243  0.00  0.00    -0.274 OA
ATOM     25  H   UNL     1       0.512  -3.360   4.275  0.00  0.00    +0.155 HD
BRANCH  22  33
ATOM     26  C   UNL     1       0.338  -7.993   2.093  0.00  0.00    +0.044 C 
ATOM     27  C   UNL     1       0.262  -6.616   1.484  0.00  0.00    -0.050 A 
ATOM     28  C   UNL     1       0.160  -6.490   0.097  0.00  0.00    +0.005 A 
ATOM     29  C   UNL     1       0.089  -5.279  -0.509  0.00  0.00    +0.026 A 
ATOM     30  C   UNL     1       0.117  -4.096   0.274  0.00  0.00    +0.045 A 
ATOM     31  N   UNL     1       0.063  -2.824  -0.066  0.00  0.00    -0.367 N 
ATOM     32  C   UNL     1       0.131  -2.001   1.146  0.00  0.00    +0.234 C 
ATOM     33  C   UNL     1       0.236  -2.970   2.303  0.00  0.00    +0.053 C 
ATOM     34  C   UNL     1       0.224  -4.233   1.737  0.00  0.00    +0.018 A 
ATOM     35  C   UNL     1       0.290  -5.532   2.297  0.00  0.00    +0.015 A 
ATOM     36  H   UNL     1      -0.009  -2.486  -0.972  0.00  0.00    +0.161 HD
BRANCH  32  37
ATOM     37  C   UNL     1       1.345  -1.110   1.101  0.00  0.00    +0.335 C 
ATOM     38  O   UNL     1       2.304  -1.428   0.438  0.00  0.00    -0.248 OA
BRANCH  37  39
ATOM     39  O   UNL     1       1.362   0.037   1.798  0.00  0.00    -0.466 OA
ATOM     40  C   UNL     1       2.546   0.832   1.710  0.00  0.00    +0.280 C 
ENDBRANCH  37  39
ENDBRANCH  32  37
ENDBRANCH  22  33
ENDBRANCH   1  23
TORSDOF 8
