REMARK  Name = ZINC39935006
REMARK  11 active torsions:
REMARK  status: ('A' for Active; 'I' for Inactive)
REMARK    1  A    between atoms: C_1  and  O_2
REMARK    2  A    between atoms: O_2  and  C_3
REMARK    3  A    between atoms: C_8  and  C_13
REMARK    4  A    between atoms: C_13  and  C_35
REMARK    5  A    between atoms: C_14  and  C_15
REMARK    6  A    between atoms: C_17  and  O_33
REMARK    7  A    between atoms: C_18  and  O_22
REMARK    8  A    between atoms: O_22  and  C_23
REMARK    9  A    between atoms: C_23  and  C_24
REMARK   10  A    between atoms: C_28  and  N_30
REMARK   11  A    between atoms: O_33  and  C_34
REMARK                            x       y       z     vdW  Elec       q    Type
REMARK                         _______ _______ _______ _____ _____    ______ ____
ROOT
ATOM      1  C   UNL     1       1.034  -6.359  -6.525  0.00  0.00    -0.019 A 
ATOM      2  C   UNL     1       1.481  -7.514  -7.178  0.00  0.00    +0.057 A 
ATOM      3  C   UNL     1       0.717  -8.076  -8.180  0.00  0.00    +0.164 A 
ATOM      4  C   UNL     1      -0.498  -7.495  -8.542  0.00  0.00    +0.181 A 
ATOM      5  C   UNL     1      -0.943  -6.349  -7.896  0.00  0.00    +0.087 A 
ATOM      6  C   UNL     1      -0.188  -5.784  -6.889  0.00  0.00    +0.032 A 
ATOM      7 CL   UNL     1      -2.456  -5.630  -8.351  0.00  0.00    -0.080 Cl
ENDROOT
BRANCH   1   9
ATOM      8  C   UNL     1       3.190  -5.737  -5.558  0.00  0.00    +0.072 C 
ATOM      9  C   UNL     1       1.844  -5.755  -5.457  0.00  0.00    +0.026 C 
BRANCH   8  15
ATOM     10  C   UNL     1       8.545  -4.399  -4.618  0.00  0.00    +0.122 A 
ATOM     11  C   UNL     1       8.597  -5.763  -4.110  0.00  0.00    +0.048 A 
ATOM     12  C   UNL     1       7.481  -6.476  -3.870  0.00  0.00    +0.031 A 
ATOM     13  C   UNL     1       6.162  -5.876  -4.122  0.00  0.00    +0.061 A 
ATOM     14  N   UNL     1       4.951  -6.331  -3.981  0.00  0.00    -0.359 N 
ATOM     15  C   UNL     1       4.027  -5.269  -4.396  0.00  0.00    +0.216 C 
ATOM     16  N   UNL     1       4.860  -4.130  -4.799  0.00  0.00    -0.359 N 
ATOM     17  C   UNL     1       6.107  -4.482  -4.641  0.00  0.00    +0.064 A 
ATOM     18  C   UNL     1       7.368  -3.774  -4.870  0.00  0.00    +0.073 A 
ATOM     19  H   UNL     1       4.704  -7.213  -3.660  0.00  0.00    +0.162 HD
ATOM     20  H   UNL     1       4.543  -3.273  -5.124  0.00  0.00    +0.162 HD
BRANCH  10  22
ATOM     21  C   UNL     1      10.919  -4.433  -4.560  0.00  0.00    +0.277 C 
ATOM     22  O   UNL     1       9.705  -3.733  -4.840  0.00  0.00    -0.495 OA
ENDBRANCH  10  22
ENDBRANCH   8  15
BRANCH   8  23
ATOM     23  C   UNL     1       3.822  -6.161  -6.771  0.00  0.00    +0.099 C 
ATOM     24  N   UNL     1       4.324  -6.497  -7.733  0.00  0.00    -0.191 NA
ENDBRANCH   8  23
ENDBRANCH   1   9
BRANCH   3  25
ATOM     25  O   UNL     1       1.148  -9.198  -8.816  0.00  0.00    -0.491 OA
ATOM     26  C   UNL     1       2.402  -9.741  -8.395  0.00  0.00    +0.277 C 
ENDBRANCH   3  25
BRANCH   4  27
ATOM     27  O   UNL     1      -1.248  -8.050  -9.529  0.00  0.00    -0.482 OA
BRANCH  27  28
ATOM     28  C   UNL     1      -2.207  -9.035  -9.140  0.00  0.00    +0.264 C 
BRANCH  28  29
ATOM     29  C   UNL     1      -2.938  -9.534 -10.359  0.00  0.00    -0.008 A 
ATOM     30  C   UNL     1      -4.094  -8.901 -10.779  0.00  0.00    +0.007 A 
ATOM     31  C   UNL     1      -4.765  -9.359 -11.898  0.00  0.00    +0.003 A 
ATOM     32  C   UNL     1      -4.280 -10.449 -12.597  0.00  0.00    +0.033 A 
ATOM     33  C   UNL     1      -3.124 -11.081 -12.177  0.00  0.00    +0.127 A 
ATOM     34  C   UNL     1      -2.451 -10.620 -11.061  0.00  0.00    +0.039 A 
BRANCH  33  35
ATOM     35  N   UNL     1      -2.606 -12.248 -12.925  0.00  0.00    +0.056 N 
ATOM     36  O   UNL     1      -3.193 -12.649 -13.903  0.00  0.00    -0.126 OA
ATOM     37  O   UNL     1      -1.595 -12.801 -12.558  0.00  0.00    -0.126 OA
ENDBRANCH  33  35
ENDBRANCH  28  29
ENDBRANCH  27  28
ENDBRANCH   4  27
TORSDOF 9
