REMARK  Name = ZINC17177144
REMARK  11 active torsions:
REMARK  status: ('A' for Active; 'I' for Inactive)
REMARK    1  A    between atoms: C_1  and  C_2
REMARK    2  A    between atoms: C_2  and  C_3
REMARK    3  A    between atoms: C_3  and  N_4
REMARK    4  A    between atoms: C_8  and  S_31
REMARK    5  A    between atoms: C_12  and  S_13
REMARK    6  A    between atoms: S_13  and  C_14
REMARK    7  A    between atoms: C_14  and  C_15
REMARK    8  A    between atoms: N_17  and  C_18
REMARK    9  A    between atoms: C_18  and  C_20
REMARK   10  A    between atoms: C_18  and  C_21
REMARK   11  A    between atoms: S_31  and  N_34
REMARK                            x       y       z     vdW  Elec       q    Type
REMARK                         _______ _______ _______ _____ _____    ______ ____
ROOT
ATOM      1  N   UNL     1      -5.718  -2.280  -0.277  0.00  0.00    -0.319 N 
ATOM      2  C   UNL     1      -4.741  -1.352   0.043  0.00  0.00    +0.070 A 
ATOM      3  C   UNL     1      -4.225  -0.873   1.238  0.00  0.00    +0.030 A 
ATOM      4  C   UNL     1      -3.226   0.079   1.222  0.00  0.00    +0.030 A 
ATOM      5  C   UNL     1      -2.733   0.560   0.018  0.00  0.00    +0.107 A 
ATOM      6  C   UNL     1      -3.237   0.099  -1.177  0.00  0.00    +0.058 A 
ATOM      7  C   UNL     1      -4.245  -0.868  -1.179  0.00  0.00    +0.092 A 
ATOM      8  N   UNL     1      -4.926  -1.506  -2.167  0.00  0.00    -0.222 NA
ATOM      9  C   UNL     1      -5.792  -2.337  -1.640  0.00  0.00    +0.170 A 
ENDROOT
BRANCH   5  10
ATOM     10  S   UNL     1      -1.456   1.774   0.019  0.00  0.00    +0.056 S 
ATOM     11  O   UNL     1      -1.536   2.446   1.268  0.00  0.00    -0.153 OA
ATOM     12  O   UNL     1      -1.548   2.460  -1.223  0.00  0.00    -0.153 OA
BRANCH  10  13
ATOM     13  N   UNL     1      -0.011   0.966   0.007  0.00  0.00    -0.204 NA
ATOM     14  H   UNL     1       0.002  -0.004   0.002  0.00  0.00    +0.144 HD
ATOM     15  H   UNL     1       0.822   1.462   0.002  0.00  0.00    +0.144 HD
ENDBRANCH  10  13
ENDBRANCH   5  10
BRANCH   1  16
ATOM     16  C   UNL     1      -6.522  -3.057   0.670  0.00  0.00    +0.124 C 
BRANCH  16  18
ATOM     17  C   UNL     1      -8.638  -3.094   1.999  0.00  0.00    +0.005 C 
ATOM     18  C   UNL     1      -7.798  -2.283   1.010  0.00  0.00    +0.018 C 
ENDBRANCH  16  18
ENDBRANCH   1  16
BRANCH   9  19
ATOM     19  S   UNL     1      -6.887  -3.372  -2.553  0.00  0.00    -0.078 S 
BRANCH  19  20
ATOM     20  C   UNL     1      -6.421  -2.911  -4.240  0.00  0.00    +0.173 C 
BRANCH  20  21
ATOM     21  C   UNL     1      -7.253  -3.695  -5.223  0.00  0.00    +0.224 C 
ATOM     22  O   UNL     1      -8.080  -4.486  -4.821  0.00  0.00    -0.275 OA
ATOM     23  N   UNL     1      -7.079  -3.515  -6.547  0.00  0.00    -0.308 N 
ATOM     24  H   UNL     1      -6.418  -2.882  -6.868  0.00  0.00    +0.149 HD
BRANCH  23  25
ATOM     25  C   UNL     1      -7.888  -4.277  -7.502  0.00  0.00    +0.100 C 
ATOM     26  C   UNL     1      -7.237  -5.639  -7.750  0.00  0.00    +0.033 C 
BRANCH  25  27
ATOM     27  C   UNL     1      -7.977  -3.519  -8.802  0.00  0.00    -0.027 A 
ATOM     28  C   UNL     1      -6.868  -2.859  -9.297  0.00  0.00    +0.006 A 
ATOM     29  C   UNL     1      -6.958  -2.165 -10.486  0.00  0.00    +0.004 A 
ATOM     30  C   UNL     1      -8.155  -2.124 -11.190  0.00  0.00    -0.044 A 
ATOM     31  C   UNL     1      -9.258  -2.786 -10.700  0.00  0.00    -0.044 A 
ATOM     32  C   UNL     1      -9.164  -3.486  -9.504  0.00  0.00    +0.009 A 
ATOM     33  C   UNL     1     -10.583  -2.793 -11.415  0.00  0.00    +0.035 C 
ATOM     34  C   UNL     1     -10.647  -1.662 -12.439  0.00  0.00    +0.005 C 
ATOM     35  C   UNL     1      -9.394  -1.736 -13.319  0.00  0.00    +0.005 C 
ATOM     36  C   UNL     1      -8.186  -1.337 -12.474  0.00  0.00    +0.035 C 
ENDBRANCH  25  27
ENDBRANCH  23  25
ENDBRANCH  20  21
ENDBRANCH  19  20
ENDBRANCH   9  19
TORSDOF 9
