REMARK  Name = ZINC09282262
REMARK  5 active torsions:
REMARK  status: ('A' for Active; 'I' for Inactive)
REMARK    1  A    between atoms: C_4  and  C_7
REMARK    2  A    between atoms: C_14  and  N_37
REMARK    3  A    between atoms: C_15  and  C_35
REMARK    4  A    between atoms: N_23  and  C_26
REMARK    5  A    between atoms: C_26  and  C_27
REMARK                            x       y       z     vdW  Elec       q    Type
REMARK                         _______ _______ _______ _____ _____    ______ ____
ROOT
ATOM      1  C   UNL     1       3.173  -1.769  -1.456  0.00  0.00    +0.101 A 
ATOM      2  C   UNL     1       3.199  -3.117  -1.090  0.00  0.00    +0.066 A 
ATOM      3  C   UNL     1       4.056  -3.767  -1.934  0.00  0.00    +0.224 A 
ATOM      4  N   UNL     1       4.550  -2.857  -2.797  0.00  0.00    -0.246 N 
ATOM      5  H   UNL     1       5.184  -3.032  -3.510  0.00  0.00    +0.192 HD
ATOM      6  N   UNL     1       3.982  -1.611  -2.487  0.00  0.00    -0.171 NA
ATOM      7  O   UNL     1       4.303  -5.098  -1.841  0.00  0.00    -0.423 OA
ATOM      8  C   UNL     1       3.487  -5.839  -1.065  0.00  0.00    +0.201 C 
ATOM      9  C   UNL     1       2.606  -5.312  -0.183  0.00  0.00    +0.110 C 
ATOM     10  C   UNL     1       2.463  -3.827   0.010  0.00  0.00    +0.145 C 
ATOM     11  C   UNL     1       2.956  -3.404   1.356  0.00  0.00    -0.001 A 
ATOM     12  C   UNL     1       4.198  -3.498   1.947  0.00  0.00    +0.007 A 
ATOM     13  C   UNL     1       4.322  -2.995   3.237  0.00  0.00    +0.000 A 
ATOM     14  C   UNL     1       3.250  -2.427   3.894  0.00  0.00    +0.002 A 
ATOM     15  C   UNL     1       1.998  -2.329   3.307  0.00  0.00    +0.024 A 
ATOM     16  C   UNL     1       1.859  -2.831   2.012  0.00  0.00    +0.041 A 
ATOM     17  N   UNL     1       0.740  -2.866   1.198  0.00  0.00    -0.265 N 
ATOM     18  C   UNL     1       1.002  -3.436   0.003  0.00  0.00    +0.241 C 
ATOM     19  O   UNL     1       0.215  -3.601  -0.905  0.00  0.00    -0.274 OA
ENDROOT
BRANCH   1  23
ATOM     20  C   UNL     1       0.877   1.286   0.410  0.00  0.00    +0.000 A 
ATOM     21  C   UNL     1       1.594   0.392   1.185  0.00  0.00    +0.001 A 
ATOM     22  C   UNL     1       2.341  -0.601   0.584  0.00  0.00    +0.010 A 
ATOM     23  C   UNL     1       2.372  -0.703  -0.805  0.00  0.00    +0.003 A 
ATOM     24  C   UNL     1       1.647   0.200  -1.581  0.00  0.00    +0.010 A 
ATOM     25  C   UNL     1       0.904   1.190  -0.970  0.00  0.00    +0.001 A 
ENDBRANCH   1  23
BRANCH   8  26
ATOM     26  N   UNL     1       3.553  -7.206  -1.176  0.00  0.00    -0.328 N 
ATOM     27  H   UNL     1       4.175  -7.612  -1.800  0.00  0.00    +0.145 HD
ATOM     28  H   UNL     1       2.978  -7.765  -0.631  0.00  0.00    +0.145 HD
ENDBRANCH   8  26
BRANCH   9  29
ATOM     29  C   UNL     1       1.785  -6.195   0.590  0.00  0.00    +0.102 C 
ATOM     30  N   UNL     1       1.134  -6.895   1.204  0.00  0.00    -0.191 NA
ENDBRANCH   9  29
BRANCH  17  31
ATOM     31  C   UNL     1      -0.573  -2.346   1.588  0.00  0.00    +0.148 C 
BRANCH  31  32
ATOM     32  C   UNL     1      -0.944  -1.194   0.691  0.00  0.00    -0.028 A 
ATOM     33  C   UNL     1      -1.173   0.057   1.232  0.00  0.00    +0.007 A 
ATOM     34  C   UNL     1      -1.514   1.115   0.410  0.00  0.00    +0.022 A 
ATOM     35  C   UNL     1      -1.625   0.922  -0.955  0.00  0.00    +0.059 A 
ATOM     36  C   UNL     1      -1.395  -0.331  -1.497  0.00  0.00    +0.060 A 
ATOM     37  C   UNL     1      -1.049  -1.387  -0.673  0.00  0.00    +0.026 A 
ATOM     38 CL   UNL     1      -1.535  -0.575  -3.210  0.00  0.00    -0.082 Cl
ATOM     39 CL   UNL     1      -2.054   2.250  -1.988  0.00  0.00    -0.082 Cl
ENDBRANCH  31  32
ENDBRANCH  17  31
TORSDOF 5
