REMARK  Name = ZINC06752764
REMARK  5 active torsions:
REMARK  status: ('A' for Active; 'I' for Inactive)
REMARK    1  A    between atoms: C_4  and  O_32
REMARK    2  A    between atoms: C_5  and  C_7
REMARK    3  A    between atoms: N_15  and  C_25
REMARK    4  A    between atoms: C_16  and  C_18
REMARK    5  A    between atoms: C_25  and  C_26
REMARK                            x       y       z     vdW  Elec       q    Type
REMARK                         _______ _______ _______ _____ _____    ______ ____
ROOT
ATOM      1  C   UNL     1       1.449  -2.570  -0.212  0.00  0.00    +0.102 A 
ATOM      2  C   UNL     1       0.276  -3.315  -0.048  0.00  0.00    +0.035 A 
ATOM      3  C   UNL     1       0.683  -4.623   0.133  0.00  0.00    +0.126 A 
ATOM      4  N   UNL     1       2.048  -4.608   0.071  0.00  0.00    -0.272 N 
ATOM      5  H   UNL     1       2.618  -5.388   0.165  0.00  0.00    +0.189 HD
ATOM      6  N   UNL     1       2.463  -3.409  -0.134  0.00  0.00    -0.173 NA
ATOM      7  C   UNL     1      -0.508  -5.462   0.312  0.00  0.00    +0.266 C 
ATOM      8  O   UNL     1      -0.489  -6.664   0.494  0.00  0.00    -0.268 OA
ATOM      9  N   UNL     1      -1.623  -4.712   0.246  0.00  0.00    -0.283 N 
ATOM     10  C   UNL     1      -1.226  -3.316   0.017  0.00  0.00    +0.144 C 
ENDROOT
BRANCH  10  11
ATOM     11  C   UNL     1      -1.697  -2.450   1.157  0.00  0.00    +0.013 A 
ATOM     12  C   UNL     1      -1.236  -2.684   2.439  0.00  0.00    +0.008 A 
ATOM     13  C   UNL     1      -1.667  -1.890   3.485  0.00  0.00    +0.001 A 
ATOM     14  C   UNL     1      -2.560  -0.860   3.250  0.00  0.00    +0.003 A 
ATOM     15  C   UNL     1      -3.021  -0.624   1.969  0.00  0.00    +0.039 A 
ATOM     16  C   UNL     1      -2.586  -1.416   0.920  0.00  0.00    +0.129 A 
ATOM     17  F   UNL     1      -3.032  -1.182  -0.334  0.00  0.00    -0.205 F 
ENDBRANCH  10  11
BRANCH   1  22
ATOM     18  C   UNL     1       0.462   1.005  -0.829  0.00  0.00    +0.001 A 
ATOM     19  C   UNL     1       1.696   1.628  -0.864  0.00  0.00    +0.004 A 
ATOM     20  C   UNL     1       2.853   0.893  -0.687  0.00  0.00    +0.046 A 
ATOM     21  C   UNL     1       2.782  -0.474  -0.474  0.00  0.00    +0.126 A 
ATOM     22  C   UNL     1       1.536  -1.106  -0.439  0.00  0.00    +0.044 A 
ATOM     23  C   UNL     1       0.376  -0.357  -0.618  0.00  0.00    +0.014 A 
BRANCH  21  24
ATOM     24  O   UNL     1       3.919  -1.198  -0.301  0.00  0.00    -0.506 OA
ATOM     25  H   UNL     1       4.203  -1.269   0.620  0.00  0.00    +0.292 HD
ENDBRANCH  21  24
ENDBRANCH   1  22
BRANCH   9  26
ATOM     26  C   UNL     1      -2.996  -5.203   0.381  0.00  0.00    +0.140 C 
BRANCH  26  27
ATOM     27  C   UNL     1      -3.356  -5.310   1.864  0.00  0.00    +0.136 C 
ATOM     28  C   UNL     1      -4.756  -5.944   2.019  0.00  0.00    +0.035 C 
ATOM     29  C   UNL     1      -5.362  -5.122   3.189  0.00  0.00    +0.031 C 
ATOM     30  C   UNL     1      -4.732  -3.731   2.929  0.00  0.00    +0.160 C 
ATOM     31  O   UNL     1      -3.404  -4.003   2.449  0.00  0.00    -0.375 OA
ENDBRANCH  26  27
ENDBRANCH   9  26
TORSDOF 5
