REMARK  Name = ZINC39558057
REMARK  5 active torsions:
REMARK  status: ('A' for Active; 'I' for Inactive)
REMARK    1  A    between atoms: C_1  and  C_2
REMARK    2  A    between atoms: C_7  and  C_13
REMARK    3  A    between atoms: C_11  and  C_12
REMARK    4  A    between atoms: C_18  and  N_21
REMARK    5  A    between atoms: C_29  and  C_31
REMARK                            x       y       z     vdW  Elec       q    Type
REMARK                         _______ _______ _______ _____ _____    ______ ____
ROOT
ATOM      1  C   UNL     1      -0.462  -4.544   0.871  0.00  0.00    +0.245 C 
ATOM      2  O   UNL     1      -0.960  -5.358   1.625  0.00  0.00    -0.270 OA
ATOM      3  N   UNL     1       0.732  -4.797   0.298  0.00  0.00    -0.298 N 
ATOM      4  C   UNL     1       1.403  -3.776  -0.518  0.00  0.00    +0.110 C 
ATOM      5  C   UNL     1       1.739  -4.381  -1.885  0.00  0.00    +0.041 C 
ATOM      6  C   UNL     1       2.554  -5.662  -1.685  0.00  0.00    +0.080 C 
ATOM      7  C   UNL     1       1.724  -6.678  -0.898  0.00  0.00    +0.041 C 
ATOM      8  C   UNL     1       1.390  -6.098   0.485  0.00  0.00    +0.110 C 
ENDROOT
BRANCH   1  15
ATOM      9  C   UNL     1      -3.824   0.090   3.044  0.00  0.00    +0.046 C 
ATOM     10  C   UNL     1      -2.809  -0.954   2.655  0.00  0.00    -0.024 C 
ATOM     11  C   UNL     1      -2.383  -1.198   1.407  0.00  0.00    -0.014 C 
ATOM     12  C   UNL     1      -2.741  -0.918   0.074  0.00  0.00    +0.006 C 
ATOM     13  C   UNL     1      -2.455  -1.853  -0.874  0.00  0.00    +0.001 C 
ATOM     14  C   UNL     1      -1.802  -3.068  -0.602  0.00  0.00    +0.011 C 
ATOM     15  C   UNL     1      -1.158  -3.290   0.584  0.00  0.00    +0.043 C 
ATOM     16  C   UNL     1      -1.213  -2.159   1.575  0.00  0.00    +0.171 C 
ATOM     17  N   UNL     1      -1.262  -2.606   2.953  0.00  0.00    -0.275 NA
ATOM     18  C   UNL     1      -2.127  -1.859   3.577  0.00  0.00    +0.037 C 
ATOM     19  C   UNL     1      -2.394  -1.923   5.059  0.00  0.00    +0.065 C 
ENDBRANCH   1  15
BRANCH   6  20
ATOM     20  N   UNL     1       2.906  -6.225  -2.991  0.00  0.00    -0.293 N 
ATOM     21  C   UNL     1       2.012  -6.637  -3.979  0.00  0.00    +0.122 A 
ATOM     22  C   UNL     1       2.719  -7.117  -5.081  0.00  0.00    +0.067 A 
ATOM     23  C   UNL     1       2.017  -7.582  -6.187  0.00  0.00    +0.028 A 
ATOM     24  C   UNL     1       0.630  -7.550  -6.153  0.00  0.00    +0.019 A 
ATOM     25  C   UNL     1      -0.005  -7.061  -5.030  0.00  0.00    +0.084 A 
ATOM     26  N   UNL     1       0.685  -6.626  -3.994  0.00  0.00    -0.348 N 
ATOM     27  N   UNL     1       4.095  -7.031  -4.839  0.00  0.00    -0.323 N 
ATOM     28  C   UNL     1       4.263  -6.453  -3.500  0.00  0.00    +0.163 C 
ATOM     29  H   UNL     1       4.804  -7.300  -5.444  0.00  0.00    +0.148 HD
ATOM     30  H   UNL     1       0.208  -6.288  -3.219  0.00  0.00    +0.167 HD
BRANCH  28  31
ATOM     31  C   UNL     1       5.009  -7.435  -2.594  0.00  0.00    +0.028 C 
ATOM     32  C   UNL     1       6.539  -7.327  -2.696  0.00  0.00    +0.007 C 
ATOM     33  C   UNL     1       6.576  -7.523  -1.171  0.00  0.00    +0.001 C 
ATOM     34  C   UNL     1       5.150  -6.949  -1.142  0.00  0.00    +0.007 C 
ENDBRANCH  28  31
ENDBRANCH   6  20
TORSDOF 3
