REMARK  Name = ZINC15817245
REMARK  11 active torsions:
REMARK  status: ('A' for Active; 'I' for Inactive)
REMARK    1  A    between atoms: C_1  and  C_2
REMARK    2  A    between atoms: C_5  and  N_9
REMARK    3  A    between atoms: C_6  and  C_8
REMARK    4  A    between atoms: C_19  and  S_20
REMARK    5  A    between atoms: S_20  and  C_21
REMARK    6  A    between atoms: C_21  and  C_23
REMARK    7  A    between atoms: C_21  and  C_24
REMARK    8  A    between atoms: N_29  and  C_30
REMARK    9  A    between atoms: C_30  and  C_31
REMARK   10  A    between atoms: C_30  and  C_32
REMARK   11  A    between atoms: C_30  and  C_33
REMARK                            x       y       z     vdW  Elec       q    Type
REMARK                         _______ _______ _______ _____ _____    ______ ____
ROOT
ATOM      1  N   UNL     1       1.121   2.067   0.003  0.00  0.00    -0.255 N 
ATOM      2  C   UNL     1       2.340   1.481  -0.012  0.00  0.00    +0.267 A 
ATOM      3  O   UNL     1       3.360   2.146  -0.019  0.00  0.00    -0.267 OA
ATOM      4  C   UNL     1       2.389   0.013  -0.021  0.00  0.00    +0.065 A 
ATOM      5  C   UNL     1       3.596  -0.685  -0.036  0.00  0.00    +0.015 A 
ATOM      6  C   UNL     1       3.584  -2.052  -0.044  0.00  0.00    +0.001 A 
ATOM      7  C   UNL     1       2.384  -2.752  -0.036  0.00  0.00    +0.002 A 
ATOM      8  C   UNL     1       1.186  -2.094  -0.021  0.00  0.00    +0.028 A 
ATOM      9  C   UNL     1       1.165  -0.696  -0.013  0.00  0.00    +0.079 A 
ATOM     10  N   UNL     1       0.002  -0.004   0.002  0.00  0.00    -0.223 NA
ATOM     11  C   UNL     1      -0.016   1.306   0.009  0.00  0.00    +0.177 A 
ENDROOT
BRANCH   1  16
ATOM     12  C   UNL     1       0.720   7.727   0.037  0.00  0.00    +0.044 C 
ATOM     13  C   UNL     1       0.826   6.224   0.028  0.00  0.00    -0.050 A 
ATOM     14  C   UNL     1       0.886   5.529   1.222  0.00  0.00    +0.005 A 
ATOM     15  C   UNL     1       0.984   4.152   1.217  0.00  0.00    +0.027 A 
ATOM     16  C   UNL     1       1.021   3.464   0.011  0.00  0.00    +0.055 A 
ATOM     17  C   UNL     1       0.967   4.165  -1.186  0.00  0.00    -0.026 A 
ATOM     18  C   UNL     1       0.864   5.543  -1.175  0.00  0.00    +0.008 A 
ATOM     19  C   UNL     1       1.013   3.423  -2.497  0.00  0.00    +0.046 C 
ENDBRANCH   1  16
BRANCH  11  20
ATOM     20  S   UNL     1      -1.576   2.125   0.021  0.00  0.00    -0.075 S 
BRANCH  20  21
ATOM     21  C   UNL     1      -2.683   0.693   0.018  0.00  0.00    +0.137 C 
ATOM     22  C   UNL     1      -2.506  -0.090   1.321  0.00  0.00    +0.029 C 
BRANCH  21  23
ATOM     23  C   UNL     1      -4.110   1.162  -0.096  0.00  0.00    +0.233 C 
ATOM     24  O   UNL     1      -4.398   2.304   0.191  0.00  0.00    -0.274 OA
ATOM     25  N   UNL     1      -5.067   0.312  -0.518  0.00  0.00    -0.239 N 
ATOM     26  C   UNL     1      -6.344   0.731  -0.620  0.00  0.00    +0.306 C 
ATOM     27  O   UNL     1      -6.632   1.876  -0.333  0.00  0.00    -0.252 OA
ATOM     28  N   UNL     1      -7.301  -0.119  -1.042  0.00  0.00    -0.294 N 
ATOM     29  H   UNL     1      -4.837  -0.602  -0.747  0.00  0.00    +0.159 HD
ATOM     30  H   UNL     1      -7.071  -1.033  -1.271  0.00  0.00    +0.151 HD
BRANCH  28  31
ATOM     31  C   UNL     1      -8.689   0.337  -1.153  0.00  0.00    +0.028 C 
ATOM     32  C   UNL     1      -8.765   1.500  -2.144  0.00  0.00    +0.031 C 
ATOM     33  C   UNL     1      -9.565  -0.815  -1.649  0.00  0.00    +0.031 C 
ATOM     34  C   UNL     1      -9.184   0.801   0.218  0.00  0.00    +0.031 C 
ENDBRANCH  28  31
ENDBRANCH  21  23
ENDBRANCH  20  21
ENDBRANCH  11  20
TORSDOF 5
