REMARK  Name = ZINC09420582
REMARK  5 active torsions:
REMARK  status: ('A' for Active; 'I' for Inactive)
REMARK    1  A    between atoms: C_1  and  C_2
REMARK    2  A    between atoms: C_4  and  C_32
REMARK    3  A    between atoms: C_11  and  C_13
REMARK    4  A    between atoms: C_19  and  C_25
REMARK    5  A    between atoms: C_29  and  O_31
REMARK                            x       y       z     vdW  Elec       q    Type
REMARK                         _______ _______ _______ _____ _____    ______ ____
ROOT
ATOM      1  C   UNL     1       0.024   1.504   0.011  0.00  0.00    +0.066 C 
ATOM      2  C   UNL     1       0.070  -0.002   0.003  0.00  0.00    +0.044 A 
ATOM      3  C   UNL     1       0.129  -0.696  -1.195  0.00  0.00    +0.046 A 
ATOM      4  C   UNL     1       0.170  -2.081  -1.157  0.00  0.00    +0.044 A 
ATOM      5  N   UNL     1       0.151  -2.695   0.015  0.00  0.00    -0.216 NA
ATOM      6  C   UNL     1       0.094  -2.002   1.141  0.00  0.00    +0.253 A 
ATOM      7  N   UNL     1       0.059  -0.679   1.140  0.00  0.00    -0.216 NA
ATOM      8  N   UNL     1       0.075  -2.681   2.357  0.00  0.00    -0.183 N 
ATOM      9  C   UNL     1       0.013  -2.116   3.583  0.00  0.00    +0.136 A 
ATOM     10  C   UNL     1       0.002  -3.125   4.506  0.00  0.00    +0.028 A 
ATOM     11  C   UNL     1       0.072  -4.339   3.819  0.00  0.00    +0.099 A 
ATOM     12  N   UNL     1       0.111  -4.075   2.526  0.00  0.00    -0.162 NA
ATOM     13  C   UNL     1      -0.085  -2.862   5.989  0.00  0.00    +0.063 C 
ATOM     14  C   UNL     1       0.549  -1.497   6.273  0.00  0.00    +0.109 C 
ATOM     15  C   UNL     1       0.109  -0.473   5.266  0.00  0.00    +0.219 C 
ATOM     16  O   UNL     1      -0.111   0.661   5.637  0.00  0.00    -0.275 OA
ATOM     17  N   UNL     1      -0.050  -0.775   3.960  0.00  0.00    -0.270 N 
ATOM     18  C   UNL     1       0.235  -2.878  -2.434  0.00  0.00    +0.066 C 
ATOM     19  H   UNL     1      -0.202  -0.079   3.301  0.00  0.00    +0.156 HD
ENDROOT
BRANCH  11  20
ATOM     20  C   UNL     1       0.095  -5.690   4.434  0.00  0.00    +0.002 A 
ATOM     21  C   UNL     1      -0.654  -6.724   3.876  0.00  0.00    +0.010 A 
ATOM     22  C   UNL     1      -0.630  -7.978   4.452  0.00  0.00    +0.001 A 
ATOM     23  C   UNL     1       0.136  -8.209   5.581  0.00  0.00    +0.000 A 
ATOM     24  C   UNL     1       0.881  -7.186   6.138  0.00  0.00    +0.001 A 
ATOM     25  C   UNL     1       0.869  -5.929   5.567  0.00  0.00    +0.010 A 
ENDBRANCH  11  20
BRANCH  13  26
ATOM     26  C   UNL     1      -1.529  -2.852   6.419  0.00  0.00    -0.036 A 
ATOM     27  C   UNL     1      -2.409  -1.941   5.865  0.00  0.00    +0.004 A 
ATOM     28  C   UNL     1      -3.734  -1.929   6.258  0.00  0.00    +0.004 A 
ATOM     29  C   UNL     1      -4.183  -2.828   7.206  0.00  0.00    +0.045 A 
ATOM     30  C   UNL     1      -3.302  -3.743   7.763  0.00  0.00    +0.117 A 
ATOM     31  C   UNL     1      -1.974  -3.757   7.363  0.00  0.00    +0.049 A 
BRANCH  30  32
ATOM     32  O   UNL     1      -3.741  -4.629   8.696  0.00  0.00    -0.507 OA
ATOM     33  H   UNL     1      -4.063  -5.462   8.327  0.00  0.00    +0.292 HD
ENDBRANCH  30  32
ENDBRANCH  13  26
TORSDOF 3
