REMARK  Name = ZINC45678986
REMARK  8 active torsions:
REMARK  status: ('A' for Active; 'I' for Inactive)
REMARK    1  A    between atoms: C_1  and  C_2
REMARK    2  A    between atoms: C_5  and  C_7
REMARK    3  A    between atoms: C_7  and  N_8
REMARK    4  A    between atoms: N_11  and  N_12
REMARK    5  A    between atoms: C_13  and  C_15
REMARK    6  A    between atoms: C_15  and  C_17
REMARK    7  A    between atoms: C_15  and  O_18
REMARK    8  A    between atoms: O_18  and  C_19
REMARK                            x       y       z     vdW  Elec       q    Type
REMARK                         _______ _______ _______ _____ _____    ______ ____
ROOT
ATOM      1  N   UNL     1       1.909  -5.434  -4.003  0.00  0.00    -0.230 N 
ATOM      2  C   UNL     1       1.865  -5.811  -5.296  0.00  0.00    +0.270 C 
ATOM      3  O   UNL     1       2.094  -6.962  -5.601  0.00  0.00    -0.270 OA
ATOM      4  H   UNL     1       1.727  -4.513  -3.759  0.00  0.00    +0.173 HD
ENDROOT
BRANCH   1   8
ATOM      5  N   UNL     1       2.009  -4.717  -1.379  0.00  0.00    -0.294 N 
ATOM      6  C   UNL     1       2.263  -5.997  -1.717  0.00  0.00    +0.316 C 
ATOM      7  O   UNL     1       2.531  -6.812  -0.856  0.00  0.00    -0.251 OA
ATOM      8  N   UNL     1       2.219  -6.373  -3.010  0.00  0.00    -0.218 N 
ATOM      9  H   UNL     1       1.795  -4.067  -2.066  0.00  0.00    +0.151 HD
ATOM     10  H   UNL     1       2.401  -7.294  -3.254  0.00  0.00    +0.174 HD
BRANCH   5  11
ATOM     11  C   UNL     1       2.057  -4.308   0.027  0.00  0.00    +0.148 C 
BRANCH  11  16
ATOM     12  C   UNL     1       1.832   1.344   0.328  0.00  0.00    +0.051 C 
ATOM     13  C   UNL     1       1.631  -0.148   0.278  0.00  0.00    -0.013 A 
ATOM     14  C   UNL     1       0.479  -0.858   0.370  0.00  0.00    +0.011 A 
ATOM     15  C   UNL     1       0.534  -2.237   0.296  0.00  0.00    +0.013 A 
ATOM     16  C   UNL     1       1.737  -2.840   0.134  0.00  0.00    +0.007 A 
ATOM     17  S   UNL     1       2.845  -1.441   0.074  0.00  0.00    -0.097 S 
ENDBRANCH  11  16
ENDBRANCH   5  11
ENDBRANCH   1   8
BRANCH   2  18
ATOM     18  C   UNL     1       1.533  -4.800  -6.364  0.00  0.00    +0.257 C 
ATOM     19  C   UNL     1       0.096  -4.311  -6.173  0.00  0.00    +0.062 C 
BRANCH  18  20
ATOM     20  O   UNL     1       1.662  -5.408  -7.651  0.00  0.00    -0.480 OA
BRANCH  20  21
ATOM     21  C   UNL     1       1.911  -4.581  -8.701  0.00  0.00    +0.122 A 
ATOM     22  C   UNL     1       1.919  -3.197  -8.503  0.00  0.00    +0.046 A 
ATOM     23  C   UNL     1       2.164  -2.345  -9.533  0.00  0.00    +0.012 A 
ATOM     24  C   UNL     1       2.415  -2.858 -10.818  0.00  0.00    -0.018 A 
ATOM     25  C   UNL     1       2.673  -2.006 -11.905  0.00  0.00    +0.008 A 
ATOM     26  C   UNL     1       2.912  -2.537 -13.136  0.00  0.00    +0.001 A 
ATOM     27  C   UNL     1       2.905  -3.916 -13.336  0.00  0.00    +0.001 A 
ATOM     28  C   UNL     1       2.659  -4.772 -12.307  0.00  0.00    +0.008 A 
ATOM     29  C   UNL     1       2.408  -4.261 -11.021  0.00  0.00    -0.014 A 
ATOM     30  C   UNL     1       2.155  -5.114  -9.935  0.00  0.00    +0.054 A 
ENDBRANCH  20  21
ENDBRANCH  18  20
ENDBRANCH   2  18
TORSDOF 6
