REMARK  Name = ZINC59045420
REMARK  7 active torsions:
REMARK  status: ('A' for Active; 'I' for Inactive)
REMARK    1  A    between atoms: C_10  and  N_11
REMARK    2  A    between atoms: C_12  and  C_14
REMARK    3  A    between atoms: C_14  and  S_15
REMARK    4  A    between atoms: S_15  and  C_16
REMARK    5  A    between atoms: C_19  and  C_22
REMARK    6  A    between atoms: N_20  and  N_21
REMARK    7  A    between atoms: C_27  and  O_28
REMARK                            x       y       z     vdW  Elec       q    Type
REMARK                         _______ _______ _______ _____ _____    ______ ____
ROOT
ATOM      1  S   UNL     1       8.735  -0.940   0.241  0.00  0.00    -0.075 S 
ENDROOT
BRANCH   1   2
ATOM      2  C   UNL     1      10.144   0.111   0.360  0.00  0.00    +0.209 A 
ATOM      3  N   UNL     1      10.137   1.424   0.380  0.00  0.00    -0.121 NA
ATOM      4  N   UNL     1      11.338   1.871   0.475  0.00  0.00    -0.127 NA
ATOM      5  C   UNL     1      12.186   0.870   0.523  0.00  0.00    +0.185 A 
ATOM      6  N   UNL     1      11.447  -0.289   0.456  0.00  0.00    -0.224 N 
BRANCH   5   7
ATOM      7  C   UNL     1      13.657   0.969   0.632  0.00  0.00    +0.062 A 
ATOM      8  C   UNL     1      14.475   0.256  -0.245  0.00  0.00    +0.015 A 
ATOM      9  C   UNL     1      15.847   0.352  -0.138  0.00  0.00    +0.001 A 
ATOM     10  C   UNL     1      16.416   1.153   0.837  0.00  0.00    +0.004 A 
ATOM     11  C   UNL     1      15.616   1.863   1.711  0.00  0.00    +0.046 A 
ATOM     12  C   UNL     1      14.236   1.783   1.613  0.00  0.00    +0.128 A 
BRANCH  12  13
ATOM     13  O   UNL     1      13.449   2.486   2.468  0.00  0.00    -0.506 OA
ATOM     14  H   UNL     1      13.225   2.009   3.279  0.00  0.00    +0.292 HD
ENDBRANCH  12  13
ENDBRANCH   5   7
BRANCH   6  15
ATOM     15  N   UNL     1      11.918  -1.571   0.478  0.00  0.00    -0.295 N 
ATOM     16  H   UNL     1      12.039  -1.928  -0.458  0.00  0.00    +0.163 HD
ATOM     17  H   UNL     1      12.779  -1.631   1.001  0.00  0.00    +0.163 HD
ENDBRANCH   6  15
ENDBRANCH   1   2
BRANCH   1  18
ATOM     18  C   UNL     1       7.336   0.211   0.146  0.00  0.00    +0.173 C 
BRANCH  18  20
ATOM     19  N   UNL     1       4.873   0.081  -0.044  0.00  0.00    -0.284 N 
ATOM     20  C   UNL     1       6.051  -0.569   0.039  0.00  0.00    +0.228 C 
ATOM     21  O   UNL     1       6.076  -1.782   0.028  0.00  0.00    -0.275 OA
ATOM     22  H   UNL     1       4.857   1.048  -0.117  0.00  0.00    +0.155 HD
BRANCH  19  32
ATOM     23  C   UNL     1       0.200   0.921  -1.756  0.00  0.00    +0.001 A 
ATOM     24  C   UNL     1       1.384   1.655  -1.785  0.00  0.00    +0.001 A 
ATOM     25  C   UNL     1       2.525   1.165  -1.227  0.00  0.00    +0.010 A 
ATOM     26  C   UNL     1       2.513  -0.097  -0.614  0.00  0.00    +0.003 A 
ATOM     27  C   UNL     1       1.309  -0.844  -0.584  0.00  0.00    -0.016 A 
ATOM     28  C   UNL     1       0.150  -0.306  -1.170  0.00  0.00    +0.008 A 
ATOM     29  C   UNL     1       1.295  -2.108   0.031  0.00  0.00    +0.008 A 
ATOM     30  C   UNL     1       2.432  -2.604   0.591  0.00  0.00    +0.002 A 
ATOM     31  C   UNL     1       3.620  -1.880   0.568  0.00  0.00    +0.024 A 
ATOM     32  C   UNL     1       3.676  -0.637  -0.025  0.00  0.00    +0.041 A 
ENDBRANCH  19  32
ENDBRANCH  18  20
ENDBRANCH   1  18
TORSDOF 7
