REMARK  Name = ZINC13033072
REMARK  13 active torsions:
REMARK  status: ('A' for Active; 'I' for Inactive)
REMARK    1  A    between atoms: C_1  and  C_2
REMARK    2  A    between atoms: C_5  and  C_38
REMARK    3  A    between atoms: C_9  and  C_14
REMARK    4  A    between atoms: C_14  and  N_70
REMARK    5  A    between atoms: C_15  and  C_16
REMARK    6  A    between atoms: C_15  and  N_70
REMARK    7  A    between atoms: C_19  and  O_22
REMARK    8  A    between atoms: O_22  and  C_23
REMARK    9  A    between atoms: C_24  and  C_25
REMARK   10  A    between atoms: C_24  and  N_70
REMARK   11  A    between atoms: N_29  and  C_30
REMARK   12  A    between atoms: C_30  and  C_31
REMARK   13  A    between atoms: C_31  and  C_32
REMARK                            x       y       z     vdW  Elec       q    Type
REMARK                         _______ _______ _______ _____ _____    ______ ____
ROOT
ATOM      1  N   UNL     1      -1.311  -1.954  -2.745  0.00  0.00    +0.390 N 
ATOM      2  H   UNL     1      -1.851  -2.796  -2.515  0.00  0.00    -0.080 HD
ENDROOT
BRANCH   1   3
ATOM      3  C   UNL     1      -0.217  -1.801  -1.763  0.00  0.00    -0.036 C 
BRANCH   3  12
ATOM      4  C   UNL     1      -0.427  -6.066   1.218  0.00  0.00    +0.044 C 
ATOM      5  C   UNL     1      -1.076  -4.946   1.991  0.00  0.00    -0.041 A 
ATOM      6  C   UNL     1      -1.579  -5.177   3.240  0.00  0.00    +0.004 A 
ATOM      7  C   UNL     1      -2.178  -4.153   3.961  0.00  0.00    +0.005 A 
ATOM      8  C   UNL     1      -2.277  -2.884   3.431  0.00  0.00    -0.026 A 
ATOM      9  C   UNL     1      -1.772  -2.626   2.161  0.00  0.00    +0.052 A 
ATOM     10  C   UNL     1      -1.165  -3.667   1.433  0.00  0.00    +0.002 A 
ATOM     11  C   UNL     1      -0.636  -3.385   0.097  0.00  0.00    +0.017 A 
ATOM     12  C   UNL     1      -0.751  -2.125  -0.392  0.00  0.00    +0.001 A 
ATOM     13  C   UNL     1      -1.363  -1.116   0.381  0.00  0.00    +0.251 A 
ATOM     14  O   UNL     1      -1.451   0.011  -0.076  0.00  0.00    -0.268 OA
ATOM     15  N   UNL     1      -1.857  -1.367   1.606  0.00  0.00    -0.322 N 
ATOM     16  H   UNL     1      -2.275  -0.650   2.109  0.00  0.00    +0.169 HD
ATOM     17  C   UNL     1      -2.929  -1.782   4.224  0.00  0.00    +0.046 C 
ENDBRANCH   3  12
ENDBRANCH   1   3
BRANCH   1  18
ATOM     18  C   UNL     1      -0.751  -2.100  -4.106  0.00  0.00    -0.042 C 
BRANCH  18  19
ATOM     19  C   UNL     1      -0.153  -3.477  -4.238  0.00  0.00    -0.064 A 
ATOM     20  C   UNL     1       1.179  -3.683  -3.932  0.00  0.00    +0.005 A 
ATOM     21  C   UNL     1       1.728  -4.946  -4.046  0.00  0.00    +0.046 A 
ATOM     22  C   UNL     1       0.944  -6.005  -4.480  0.00  0.00    +0.120 A 
ATOM     23  C   UNL     1      -0.391  -5.794  -4.792  0.00  0.00    +0.046 A 
ATOM     24  C   UNL     1      -0.937  -4.531  -4.670  0.00  0.00    +0.005 A 
BRANCH  22  25
ATOM     25  O   UNL     1       1.483  -7.247  -4.598  0.00  0.00    -0.495 OA
ATOM     26  C   UNL     1       2.864  -7.390  -4.260  0.00  0.00    +0.277 C 
ENDBRANCH  22  25
ENDBRANCH  18  19
ENDBRANCH   1  18
BRANCH   1  27
ATOM     27  C   UNL     1      -2.206  -0.779  -2.691  0.00  0.00    +0.001 C 
BRANCH  27  28
ATOM     28  C   UNL     1      -1.473   0.464  -3.126  0.00  0.00    +0.135 A 
ATOM     29  N   UNL     1      -0.693   1.213  -2.384  0.00  0.00    -0.115 NA
ATOM     30  N   UNL     1      -0.255   2.179  -3.116  0.00  0.00    -0.023 NA
ATOM     31  N   UNL     1      -0.732   2.063  -4.306  0.00  0.00    -0.044 NA
ATOM     32  N   UNL     1      -1.492   1.022  -4.351  0.00  0.00    -0.231 N 
BRANCH  32  33
ATOM     33  C   UNL     1      -2.231   0.533  -5.517  0.00  0.00    +0.152 C 
BRANCH  33  34
ATOM     34  C   UNL     1      -3.645   1.117  -5.506  0.00  0.00    +0.058 C 
BRANCH  34  35
ATOM     35  C   UNL     1      -4.406   0.615  -6.706  0.00  0.00    -0.046 A 
ATOM     36  C   UNL     1      -4.377   1.327  -7.891  0.00  0.00    +0.004 A 
ATOM     37  C   UNL     1      -5.070   0.863  -8.993  0.00  0.00    +0.000 A 
ATOM     38  C   UNL     1      -5.802  -0.306  -8.907  0.00  0.00    +0.000 A 
ATOM     39  C   UNL     1      -5.836  -1.015  -7.721  0.00  0.00    +0.000 A 
ATOM     40  C   UNL     1      -5.138  -0.555  -6.620  0.00  0.00    +0.004 A 
ENDBRANCH  34  35
ENDBRANCH  33  34
ENDBRANCH  32  33
ENDBRANCH  27  28
ENDBRANCH   1  27
TORSDOF 10
