REMARK  Name = ZINC13059724
REMARK  5 active torsions:
REMARK  status: ('A' for Active; 'I' for Inactive)
REMARK    1  A    between atoms: C_3  and  C_24
REMARK    2  A    between atoms: C_5  and  S_7
REMARK    3  A    between atoms: S_7  and  N_10
REMARK    4  A    between atoms: N_10  and  N_11
REMARK    5  A    between atoms: C_12  and  C_14
REMARK                            x       y       z     vdW  Elec       q    Type
REMARK                         _______ _______ _______ _____ _____    ______ ____
ROOT
ATOM      1  N   UNL     1      -6.097   0.277  -0.108  0.00  0.00    -0.108 NA
ATOM      2  H   UNL     1      -6.416  -0.306  -0.815  0.00  0.00    +0.172 HD
ENDROOT
BRANCH   1   3
ATOM      3  N   UNL     1      -4.753   0.669  -0.076  0.00  0.00    -0.227 N 
ATOM      4  C   UNL     1      -3.779  -0.263  -0.079  0.00  0.00    +0.265 C 
ATOM      5  O   UNL     1      -4.068  -1.445  -0.110  0.00  0.00    -0.268 OA
ATOM      6  H   UNL     1      -4.522   1.611  -0.051  0.00  0.00    +0.171 HD
BRANCH   4   7
ATOM      7  C   UNL     1      -2.372   0.146  -0.045  0.00  0.00    +0.076 A 
ATOM      8  C   UNL     1      -1.234  -0.640  -0.041  0.00  0.00    +0.024 A 
ATOM      9  C   UNL     1       0.002  -0.004   0.002  0.00  0.00    -0.036 A 
ATOM     10  C   UNL     1      -0.016   1.348   0.009  0.00  0.00    -0.006 A 
ATOM     11  S   UNL     1      -1.678   1.791   0.005  0.00  0.00    -0.088 S 
ATOM     12  C   UNL     1       1.189   2.263   0.003  0.00  0.00    +0.043 C 
ATOM     13  C   UNL     1       1.901   2.086   1.355  0.00  0.00    +0.005 C 
ATOM     14  C   UNL     1       2.734   0.827   1.351  0.00  0.00    +0.001 C 
ATOM     15  C   UNL     1       1.980  -0.478   1.400  0.00  0.00    +0.005 C 
ATOM     16  C   UNL     1       1.309  -0.801   0.064  0.00  0.00    +0.036 C 
ENDBRANCH   4   7
ENDBRANCH   1   3
BRANCH   1  17
ATOM     17  S   UNL     1      -7.143   0.810   1.060  0.00  0.00    +0.074 S 
ATOM     18  O   UNL     1      -8.439   0.368   0.677  0.00  0.00    -0.152 OA
ATOM     19  O   UNL     1      -6.562   0.470   2.311  0.00  0.00    -0.152 OA
BRANCH  17  24
ATOM     20  C   UNL     1      -6.281   4.690   1.670  0.00  0.00    +0.003 A 
ATOM     21  C   UNL     1      -7.186   5.342   0.857  0.00  0.00    +0.015 A 
ATOM     22  C   UNL     1      -8.091   4.603   0.094  0.00  0.00    +0.065 A 
ATOM     23  C   UNL     1      -8.075   3.208   0.159  0.00  0.00    +0.043 A 
ATOM     24  C   UNL     1      -7.166   2.570   0.976  0.00  0.00    +0.108 A 
ATOM     25  C   UNL     1      -6.274   3.308   1.734  0.00  0.00    +0.028 A 
BRANCH  22  26
ATOM     26  C   UNL     1      -9.063   5.294  -0.779  0.00  0.00    +0.387 C 
ATOM     27  O   UNL     1      -9.850   4.648  -1.441  0.00  0.00    -0.241 OA
ATOM     28  O   UNL     1      -9.076   6.639  -0.839  0.00  0.00    -0.241 OA
ENDBRANCH  22  26
ENDBRANCH  17  24
ENDBRANCH   1  17
TORSDOF 5
