REMARK  Name = ZINC39674325
REMARK  11 active torsions:
REMARK  status: ('A' for Active; 'I' for Inactive)
REMARK    1  A    between atoms: C_1  and  C_2
REMARK    2  A    between atoms: C_2  and  C_3
REMARK    3  A    between atoms: C_3  and  C_4
REMARK    4  A    between atoms: C_3  and  C_6
REMARK    5  A    between atoms: C_4  and  C_5
REMARK    6  A    between atoms: C_10  and  C_19
REMARK    7  A    between atoms: N_21  and  C_22
REMARK    8  A    between atoms: C_22  and  C_24
REMARK    9  A    between atoms: C_22  and  C_25
REMARK   10  A    between atoms: C_26  and  C_32
REMARK   11  A    between atoms: C_29  and  C_31
REMARK                            x       y       z     vdW  Elec       q    Type
REMARK                         _______ _______ _______ _____ _____    ______ ____
ROOT
ATOM      1  C   UNL     1       1.070  -1.127  -2.759  0.00  0.00    +0.219 C 
ATOM      2  O   UNL     1       1.930  -1.936  -3.038  0.00  0.00    -0.275 OA
ATOM      3  N   UNL     1      -0.165  -1.547  -2.418  0.00  0.00    -0.300 N 
ATOM      4  C   UNL     1      -1.337  -0.717  -2.055  0.00  0.00    +0.121 C 
ATOM      5  C   UNL     1      -2.538  -1.427  -2.719  0.00  0.00    +0.100 C 
ATOM      6  C   UNL     1      -2.086  -2.887  -2.890  0.00  0.00    -0.004 C 
ATOM      7  C   UNL     1      -0.658  -2.942  -2.328  0.00  0.00    +0.115 C 
ATOM      8  C   UNL     1      -3.001  -3.820  -2.102  0.00  0.00    -0.010 C 
ATOM      9  C   UNL     1      -2.566  -5.270  -2.334  0.00  0.00    -0.082 C 
ATOM     10  N   UNL     1      -2.635  -5.580  -3.767  0.00  0.00    +0.379 N 
ATOM     11  C   UNL     1      -1.683  -4.742  -4.507  0.00  0.00    -0.082 C 
ATOM     12  C   UNL     1      -2.081  -3.269  -4.367  0.00  0.00    -0.010 C 
ATOM     13  H   UNL     1      -2.407  -6.552  -3.911  0.00  0.00    -0.086 HD
ATOM     14  H   UNL     1      -3.570  -5.403  -4.104  0.00  0.00    -0.086 HD
ENDROOT
BRANCH   5  15
ATOM     15  C   UNL     1      -2.838  -0.808  -4.060  0.00  0.00    +0.219 C 
ATOM     16  O   UNL     1      -1.941  -0.328  -4.720  0.00  0.00    -0.275 OA
ATOM     17  N   UNL     1      -4.103  -0.789  -4.526  0.00  0.00    -0.309 N 
ATOM     18  H   UNL     1      -4.820  -1.173  -3.998  0.00  0.00    +0.149 HD
BRANCH  17  19
ATOM     19  C   UNL     1      -4.394  -0.187  -5.829  0.00  0.00    +0.100 C 
ATOM     20  C   UNL     1      -4.588   1.322  -5.663  0.00  0.00    +0.033 C 
BRANCH  19  21
ATOM     21  C   UNL     1      -5.652  -0.795  -6.394  0.00  0.00    -0.001 C 
ATOM     22  C   UNL     1      -5.833  -1.341  -7.598  0.00  0.00    +0.063 C 
ATOM     23  N   UNL     1      -7.103  -1.781  -7.740  0.00  0.00    -0.159 NA
ATOM     24  N   UNL     1      -7.822  -1.596  -6.756  0.00  0.00    -0.180 NA
ATOM     25  C   UNL     1      -7.006  -0.937  -5.722  0.00  0.00    +0.154 C 
ATOM     26  C   UNL     1      -7.584   0.437  -5.375  0.00  0.00    +0.039 C 
ATOM     27  C   UNL     1      -4.765  -1.451  -8.657  0.00  0.00    +0.067 C 
ENDBRANCH  19  21
ENDBRANCH  17  19
ENDBRANCH   5  15
BRANCH   1  28
ATOM     28  C   UNL     1       1.382   0.346  -2.794  0.00  0.00    +0.075 C 
BRANCH  28  30
ATOM     29  C   UNL     1       1.344   2.466  -1.471  0.00  0.00    +0.004 C 
ATOM     30  C   UNL     1       1.158   0.948  -1.405  0.00  0.00    +0.009 C 
ENDBRANCH  28  30
BRANCH  28  31
ATOM     31  C   UNL     1       2.841   0.549  -3.208  0.00  0.00    +0.009 C 
ATOM     32  C   UNL     1       3.030   0.084  -4.653  0.00  0.00    +0.004 C 
ENDBRANCH  28  31
ENDBRANCH   1  28
TORSDOF 6
