REMARK  Name = ZINC13147259
REMARK  7 active torsions:
REMARK  status: ('A' for Active; 'I' for Inactive)
REMARK    1  A    between atoms: C_1  and  O_2
REMARK    2  A    between atoms: O_2  and  C_3
REMARK    3  A    between atoms: C_8  and  C_23
REMARK    4  A    between atoms: N_10  and  C_11
REMARK    5  A    between atoms: C_14  and  C_17
REMARK    6  A    between atoms: N_25  and  C_26
REMARK    7  A    between atoms: C_26  and  C_27
REMARK                            x       y       z     vdW  Elec       q    Type
REMARK                         _______ _______ _______ _____ _____    ______ ____
ROOT
ATOM      1  C   UNL     1       1.090  -0.179   1.564  0.00  0.00    +0.124 A 
ATOM      2  C   UNL     1       1.582   0.331   2.765  0.00  0.00    +0.046 A 
ATOM      3  C   UNL     1       2.047  -0.508   3.734  0.00  0.00    +0.015 A 
ATOM      4  C   UNL     1       2.042  -1.895   3.520  0.00  0.00    +0.018 A 
ATOM      5  C   UNL     1       2.555  -2.775   4.504  0.00  0.00    +0.030 A 
ATOM      6  C   UNL     1       2.713  -4.114   4.168  0.00  0.00    +0.097 A 
ATOM      7  C   UNL     1       2.362  -4.513   2.793  0.00  0.00    +0.212 A 
ATOM      8  N   UNL     1       2.912  -5.570   2.227  0.00  0.00    -0.325 N 
ATOM      9  O   UNL     1       1.452  -3.755   2.130  0.00  0.00    -0.438 OA
ATOM     10  C   UNL     1       1.517  -2.415   2.320  0.00  0.00    +0.141 A 
ATOM     11  C   UNL     1       1.050  -1.548   1.345  0.00  0.00    +0.092 A 
ATOM     12  H   UNL     1       3.625  -6.046   2.680  0.00  0.00    +0.169 HD
ENDROOT
BRANCH   8  13
ATOM     13  C   UNL     1       2.480  -5.991   1.008  0.00  0.00    +0.042 A 
ATOM     14  C   UNL     1       1.107  -6.068   0.739  0.00  0.00    +0.026 A 
ATOM     15  C   UNL     1       0.673  -6.490  -0.482  0.00  0.00    +0.017 A 
ATOM     16  C   UNL     1       1.601  -6.847  -1.470  0.00  0.00    +0.063 A 
ATOM     17  C   UNL     1       2.975  -6.770  -1.202  0.00  0.00    +0.017 A 
ATOM     18  C   UNL     1       3.408  -6.343   0.018  0.00  0.00    +0.026 A 
BRANCH  16  19
ATOM     19  C   UNL     1       1.135  -7.303  -2.787  0.00  0.00    +0.387 C 
ATOM     20  O   UNL     1      -0.065  -7.370  -3.021  0.00  0.00    -0.241 OA
ATOM     21  O   UNL     1       1.945  -7.614  -3.649  0.00  0.00    -0.241 OA
ENDBRANCH  16  19
ENDBRANCH   8  13
BRANCH   6  22
ATOM     22  C   UNL     1       3.212  -5.095   5.146  0.00  0.00    +0.250 C 
ATOM     23  O   UNL     1       3.221  -6.279   4.869  0.00  0.00    -0.270 OA
ATOM     24  N   UNL     1       3.659  -4.680   6.348  0.00  0.00    -0.304 N 
ATOM     25  H   UNL     1       3.595  -3.744   6.593  0.00  0.00    +0.149 HD
BRANCH  24  26
ATOM     26  C   UNL     1       4.240  -5.644   7.286  0.00  0.00    +0.179 C 
BRANCH  26  27
ATOM     27  C   UNL     1       4.658  -4.931   8.546  0.00  0.00    +0.122 A 
ATOM     28  C   UNL     1       3.890  -4.741   9.634  0.00  0.00    +0.046 A 
ATOM     29  C   UNL     1       4.676  -4.031  10.570  0.00  0.00    +0.041 A 
ATOM     30  C   UNL     1       5.876  -3.829   9.999  0.00  0.00    +0.195 A 
ATOM     31  O   UNL     1       5.862  -4.381   8.774  0.00  0.00    -0.466 OA
ENDBRANCH  26  27
ENDBRANCH  24  26
ENDBRANCH   6  22
BRANCH   1  33
ATOM     32  C   UNL     1       0.711   2.067   0.891  0.00  0.00    +0.277 C 
ATOM     33  O   UNL     1       0.643   0.669   0.604  0.00  0.00    -0.495 OA
ENDBRANCH   1  33
TORSDOF 6
