REMARK  Name = ZINC22473023
REMARK  8 active torsions:
REMARK  status: ('A' for Active; 'I' for Inactive)
REMARK    1  A    between atoms: C_1  and  N_2
REMARK    2  A    between atoms: N_2  and  C_3
REMARK    3  A    between atoms: C_3  and  C_4
REMARK    4  A    between atoms: C_4  and  C_5
REMARK    5  A    between atoms: C_5  and  N_6
REMARK    6  A    between atoms: C_9  and  O_10
REMARK    7  A    between atoms: C_18  and  C_20
REMARK    8  A    between atoms: C_20  and  C_25
REMARK                            x       y       z     vdW  Elec       q    Type
REMARK                         _______ _______ _______ _____ _____    ______ ____
ROOT
ATOM      1  C   UNL     1      -1.433  -1.976   0.700  0.00  0.00    +0.109 C 
ENDROOT
BRANCH   1   3
ATOM      2  C   UNL     1      -2.544   0.287   0.414  0.00  0.00    +0.132 C 
ATOM      3  N   UNL     1      -1.335  -0.540   0.429  0.00  0.00    -0.304 N 
ATOM      4  C   UNL     1      -0.132   0.021   0.193  0.00  0.00    +0.226 C 
ATOM      5  O   UNL     1       0.858  -0.676   0.121  0.00  0.00    -0.275 OA
BRANCH   4   6
ATOM      6  C   UNL     1      -0.017   1.513   0.018  0.00  0.00    +0.072 C 
ATOM      7  C   UNL     1       1.446   1.900  -0.260  0.00  0.00    +0.021 C 
ATOM      8  C   UNL     1       1.879   2.840   0.885  0.00  0.00    +0.001 C 
ATOM      9  C   UNL     1       0.921   2.484   2.050  0.00  0.00    +0.001 C 
ATOM     10  C   UNL     1      -0.422   2.230   1.323  0.00  0.00    +0.021 C 
BRANCH   6  11
ATOM     11  C   UNL     1      -0.898   1.969  -1.116  0.00  0.00    -0.032 A 
ATOM     12  C   UNL     1      -1.962   2.816  -0.868  0.00  0.00    +0.004 A 
ATOM     13  C   UNL     1      -2.767   3.238  -1.910  0.00  0.00    +0.000 A 
ATOM     14  C   UNL     1      -2.514   2.805  -3.198  0.00  0.00    +0.000 A 
ATOM     15  C   UNL     1      -1.454   1.953  -3.445  0.00  0.00    +0.000 A 
ATOM     16  C   UNL     1      -0.645   1.535  -2.404  0.00  0.00    +0.004 A 
ENDBRANCH   6  11
ENDBRANCH   4   6
ENDBRANCH   1   3
BRANCH   1  17
ATOM     17  C   UNL     1      -1.309  -2.221   2.206  0.00  0.00    +0.040 C 
BRANCH  17  18
ATOM     18  C   UNL     1      -1.412  -3.721   2.489  0.00  0.00    +0.114 C 
BRANCH  18  19
ATOM     19  N   UNL     1      -1.293  -3.955   3.930  0.00  0.00    -0.384 N 
ATOM     20  C   UNL     1      -1.357  -5.238   4.427  0.00  0.00    +0.053 A 
ATOM     21  C   UNL     1      -1.530  -6.311   3.592  0.00  0.00    +0.113 A 
ATOM     22  C   UNL     1      -1.590  -7.604   4.127  0.00  0.00    +0.286 A 
ATOM     23  O   UNL     1      -1.483  -7.832   5.446  0.00  0.00    -0.425 OA
ATOM     24  C   UNL     1      -1.311  -6.824   6.329  0.00  0.00    +0.141 A 
ATOM     25  C   UNL     1      -1.234  -5.499   5.871  0.00  0.00    +0.041 A 
ATOM     26  C   UNL     1      -1.050  -4.456   6.779  0.00  0.00    +0.013 A 
ATOM     27  C   UNL     1      -0.938  -4.735   8.124  0.00  0.00    +0.001 A 
ATOM     28  C   UNL     1      -1.008  -6.044   8.575  0.00  0.00    +0.004 A 
ATOM     29  C   UNL     1      -1.203  -7.083   7.689  0.00  0.00    +0.047 A 
ATOM     30  H   UNL     1      -1.154  -3.106   4.616  0.00  0.00    +0.160 HD
BRANCH  22  31
ATOM     31  O   UNL     1      -1.744  -8.550   3.374  0.00  0.00    -0.480 OA
ATOM     32  H   UNL     1      -1.794  -9.572   3.777  0.00  0.00    +0.295 HD
ENDBRANCH  22  31
ENDBRANCH  18  19
ENDBRANCH  17  18
ENDBRANCH   1  17
TORSDOF 7
