REMARK  Name = ZINC14749272
REMARK  15 active torsions:
REMARK  status: ('A' for Active; 'I' for Inactive)
REMARK    1  A    between atoms: C_1  and  C_2
REMARK    2  A    between atoms: C_2  and  N_3
REMARK    3  A    between atoms: N_3  and  C_4
REMARK    4  A    between atoms: C_4  and  C_5
REMARK    5  A    between atoms: C_6  and  C_8
REMARK    6  A    between atoms: C_8  and  O_9
REMARK    7  A    between atoms: O_9  and  C_10
REMARK    8  A    between atoms: N_13  and  C_28
REMARK    9  A    between atoms: N_17  and  C_19
REMARK   10  A    between atoms: C_19  and  C_20
REMARK   11  A    between atoms: C_23  and  O_26
REMARK   12  A    between atoms: O_26  and  C_27
REMARK   13  A    between atoms: N_31  and  C_34
REMARK   14  A    between atoms: C_34  and  C_35
REMARK   15  A    between atoms: C_34  and  C_36
REMARK                            x       y       z     vdW  Elec       q    Type
REMARK                         _______ _______ _______ _____ _____    ______ ____
ROOT
ATOM      1  C   UNL     1       1.581  -2.083  -7.723  0.00  0.00    +0.150 C 
ATOM      2  C   UNL     1       0.568  -2.986  -8.400  0.00  0.00    +0.118 C 
ATOM      3  N   UNL     1       0.498  -4.327  -7.832  0.00  0.00    -0.289 NA
ATOM      4  C   UNL     1      -0.048  -4.330  -6.468  0.00  0.00    +0.181 C 
ATOM      5  C   UNL     1       1.086  -4.073  -5.498  0.00  0.00    +0.230 C 
ATOM      6  O   UNL     1       1.491  -4.971  -4.791  0.00  0.00    -0.274 OA
ATOM      7  N   UNL     1       1.637  -2.859  -5.414  0.00  0.00    -0.294 N 
ATOM      8  C   UNL     1       1.156  -1.774  -6.285  0.00  0.00    +0.141 C 
ENDROOT
BRANCH   3   9
ATOM      9  C   UNL     1      -0.264  -5.229  -8.706  0.00  0.00    +0.054 C 
ATOM     10  C   UNL     1       0.440  -5.345 -10.061  0.00  0.00    +0.000 C 
ATOM     11  C   UNL     1      -0.391  -6.236 -10.987  0.00  0.00    -0.077 C 
ATOM     12  N   UNL     1      -1.729  -5.657 -11.157  0.00  0.00    +0.381 N 
ATOM     13  C   UNL     1      -2.442  -5.580  -9.876  0.00  0.00    -0.077 C 
ATOM     14  C   UNL     1      -1.673  -4.668  -8.917  0.00  0.00    +0.000 C 
ATOM     15  H   UNL     1      -1.605  -4.630 -11.533  0.00  0.00    -0.081 HD
BRANCH  12  16
ATOM     16  C   UNL     1      -2.507  -6.412 -12.149  0.00  0.00    -0.075 C 
ATOM     17  C   UNL     1      -1.734  -6.469 -13.468  0.00  0.00    -0.014 C 
ATOM     18  C   UNL     1      -2.746  -7.833 -11.635  0.00  0.00    -0.014 C 
ENDBRANCH  12  16
ENDBRANCH   3   9
BRANCH   1  19
ATOM     19  O   UNL     1       1.686  -0.861  -8.455  0.00  0.00    -0.365 OA
BRANCH  19  20
ATOM     20  C   UNL     1       2.983  -0.262  -8.405  0.00  0.00    +0.256 C 
BRANCH  20  22
ATOM     21  N   UNL     1       4.101   1.753  -9.302  0.00  0.00    -0.300 N 
ATOM     22  C   UNL     1       2.979   1.013  -9.207  0.00  0.00    +0.241 C 
ATOM     23  O   UNL     1       1.966   1.375  -9.767  0.00  0.00    -0.273 OA
BRANCH  21  25
ATOM     24  C   UNL     1       3.709   4.164  -9.177  0.00  0.00    +0.024 C 
ATOM     25  C   UNL     1       4.098   2.993 -10.082  0.00  0.00    +0.104 C 
ENDBRANCH  21  25
BRANCH  21  26
ATOM     26  C   UNL     1       5.326   1.317  -8.626  0.00  0.00    +0.104 C 
ATOM     27  C   UNL     1       6.139   0.426  -9.567  0.00  0.00    +0.024 C 
ENDBRANCH  21  26
ENDBRANCH  20  22
ENDBRANCH  19  20
ENDBRANCH   1  19
BRANCH   7  28
ATOM     28  C   UNL     1       2.723  -2.610  -4.462  0.00  0.00    +0.143 C 
BRANCH  28  29
ATOM     29  C   UNL     1       2.143  -2.154  -3.147  0.00  0.00    -0.030 A 
ATOM     30  C   UNL     1       1.816  -3.084  -2.178  0.00  0.00    +0.009 A 
ATOM     31  C   UNL     1       1.285  -2.669  -0.972  0.00  0.00    +0.046 A 
ATOM     32  C   UNL     1       1.079  -1.317  -0.735  0.00  0.00    +0.120 A 
ATOM     33  C   UNL     1       1.403  -0.387  -1.712  0.00  0.00    +0.046 A 
ATOM     34  C   UNL     1       1.940  -0.807  -2.913  0.00  0.00    +0.009 A 
BRANCH  32  35
ATOM     35  O   UNL     1       0.557  -0.906   0.451  0.00  0.00    -0.495 OA
ATOM     36  C   UNL     1       0.372   0.500   0.625  0.00  0.00    +0.277 C 
ENDBRANCH  32  35
ENDBRANCH  28  29
ENDBRANCH   7  28
TORSDOF 10
