REMARK  Name = ZINC00720134
REMARK  11 active torsions:
REMARK  status: ('A' for Active; 'I' for Inactive)
REMARK    1  A    between atoms: C_1  and  C_2
REMARK    2  A    between atoms: C_3  and  C_23
REMARK    3  A    between atoms: C_4  and  C_10
REMARK    4  A    between atoms: C_12  and  O_21
REMARK    5  A    between atoms: C_13  and  O_19
REMARK    6  A    between atoms: C_14  and  O_17
REMARK    7  A    between atoms: O_17  and  C_18
REMARK    8  A    between atoms: O_19  and  C_20
REMARK    9  A    between atoms: O_21  and  C_22
REMARK   10  A    between atoms: C_23  and  O_25
REMARK   11  A    between atoms: O_25  and  C_26
REMARK                            x       y       z     vdW  Elec       q    Type
REMARK                         _______ _______ _______ _____ _____    ______ ____
ROOT
ATOM      1  C   UNL     1       0.220  -2.588  -0.160  0.00  0.00    +0.061 C 
ATOM      2  C   UNL     1      -1.144  -1.947  -0.119  0.00  0.00    +0.018 C 
ATOM      3  C   UNL     1      -1.241  -0.612  -0.009  0.00  0.00    +0.061 C 
ATOM      4  C   UNL     1      -2.591   0.054   0.070  0.00  0.00    +0.067 C 
ATOM      5  C   UNL     1      -3.599  -0.738  -0.765  0.00  0.00    +0.109 C 
ATOM      6  C   UNL     1      -3.468  -2.205  -0.447  0.00  0.00    +0.218 C 
ATOM      7  O   UNL     1      -4.455  -2.909  -0.422  0.00  0.00    -0.275 OA
ATOM      8  N   UNL     1      -2.260  -2.737  -0.191  0.00  0.00    -0.289 N 
ATOM      9  H   UNL     1      -2.177  -3.695  -0.059  0.00  0.00    +0.155 HD
ENDROOT
BRANCH   4  10
ATOM     10  C   UNL     1      -3.048   0.095   1.505  0.00  0.00    -0.018 A 
ATOM     11  C   UNL     1      -3.220  -1.084   2.207  0.00  0.00    +0.055 A 
ATOM     12  C   UNL     1      -3.635  -1.051   3.530  0.00  0.00    +0.166 A 
ATOM     13  C   UNL     1      -3.890   0.169   4.146  0.00  0.00    +0.205 A 
ATOM     14  C   UNL     1      -3.722   1.351   3.436  0.00  0.00    +0.179 A 
ATOM     15  C   UNL     1      -3.301   1.310   2.114  0.00  0.00    +0.067 A 
ATOM     16 BR   UNL     1      -3.072   2.917   1.145  0.00  0.00    -0.046 Br
BRANCH  14  17
ATOM     17  O   UNL     1      -3.971   2.546   4.034  0.00  0.00    -0.490 OA
ATOM     18  C   UNL     1      -2.856   3.226   4.615  0.00  0.00    +0.277 C 
ENDBRANCH  14  17
BRANCH  13  19
ATOM     19  O   UNL     1      -4.303   0.205   5.442  0.00  0.00    -0.488 OA
ATOM     20  C   UNL     1      -5.704   0.053   5.681  0.00  0.00    +0.277 C 
ENDBRANCH  13  19
BRANCH  12  21
ATOM     21  O   UNL     1      -3.797  -2.211   4.221  0.00  0.00    -0.491 OA
ATOM     22  C   UNL     1      -3.517  -3.426   3.525  0.00  0.00    +0.277 C 
ENDBRANCH  12  21
ENDBRANCH   4  10
BRANCH   3  23
ATOM     23  C   UNL     1      -0.067   0.177   0.028  0.00  0.00    +0.337 C 
ATOM     24  O   UNL     1       1.025  -0.359   0.070  0.00  0.00    -0.245 OA
BRANCH  23  25
ATOM     25  O   UNL     1      -0.157   1.523   0.016  0.00  0.00    -0.465 OA
ATOM     26  C   UNL     1       1.069   2.256   0.055  0.00  0.00    +0.280 C 
ENDBRANCH  23  25
ENDBRANCH   3  23
TORSDOF 6
