REMARK  Name = ZINC64870248
REMARK  7 active torsions:
REMARK  status: ('A' for Active; 'I' for Inactive)
REMARK    1  A    between atoms: C_1  and  C_2
REMARK    2  A    between atoms: C_2  and  O_3
REMARK    3  A    between atoms: O_3  and  C_4
REMARK    4  A    between atoms: C_9  and  C_10
REMARK    5  A    between atoms: C_12  and  C_16
REMARK    6  A    between atoms: N_26  and  C_29
REMARK    7  A    between atoms: C_29  and  C_30
REMARK                            x       y       z     vdW  Elec       q    Type
REMARK                         _______ _______ _______ _____ _____    ______ ____
ROOT
ATOM      1  C   UNL     1       4.514  -0.625  -5.474  0.00  0.00    +0.006 A 
ATOM      2  C   UNL     1       5.307  -1.197  -4.491  0.00  0.00    +0.009 A 
ATOM      3  C   UNL     1       6.681  -1.190  -4.611  0.00  0.00    +0.016 A 
ATOM      4  C   UNL     1       7.269  -0.603  -5.729  0.00  0.00    +0.063 A 
ATOM      5  C   UNL     1       6.464  -0.024  -6.725  0.00  0.00    +0.056 A 
ATOM      6  C   UNL     1       5.085  -0.045  -6.590  0.00  0.00    +0.034 A 
ATOM      7  N   UNL     1       7.078   0.553  -7.827  0.00  0.00    -0.307 N 
ATOM      8  H   UNL     1       6.535   0.957  -8.523  0.00  0.00    +0.170 HD
ATOM      9  C   UNL     1       8.417   0.558  -7.942  0.00  0.00    +0.330 A 
ATOM     10  O   UNL     1       8.915   1.074  -8.923  0.00  0.00    -0.246 OA
ATOM     11  N   UNL     1       9.228   0.018  -7.019  0.00  0.00    -0.256 N 
ATOM     12  C   UNL     1       8.732  -0.569  -5.907  0.00  0.00    +0.265 A 
ATOM     13  O   UNL     1       9.473  -1.056  -5.076  0.00  0.00    -0.267 OA
ENDROOT
BRANCH   1  16
ATOM     14  C   UNL     1       1.986  -1.424  -3.484  0.00  0.00    +0.138 C 
ATOM     15  N   UNL     1       2.593  -1.821  -4.561  0.00  0.00    -0.339 N 
ATOM     16  C   UNL     1       3.014  -0.641  -5.326  0.00  0.00    +0.274 C 
ATOM     17  O   UNL     1       2.577   0.489  -4.558  0.00  0.00    -0.243 OA
ATOM     18  N   UNL     1       1.933  -0.053  -3.416  0.00  0.00    -0.247 N 
ATOM     19  H   UNL     1       1.523   0.460  -2.702  0.00  0.00    +0.196 HD
ATOM     20  H   UNL     1       2.742  -2.745  -4.818  0.00  0.00    +0.164 HD
BRANCH  14  26
ATOM     21  C   UNL     1       0.777  -1.808  -1.336  0.00  0.00    +0.131 A 
ATOM     22  C   UNL     1       0.243  -2.668  -0.388  0.00  0.00    +0.046 A 
ATOM     23  C   UNL     1       0.352  -4.035  -0.554  0.00  0.00    +0.004 A 
ATOM     24  C   UNL     1       0.991  -4.556  -1.666  0.00  0.00    +0.001 A 
ATOM     25  C   UNL     1       1.526  -3.714  -2.618  0.00  0.00    +0.015 A 
ATOM     26  C   UNL     1       1.419  -2.332  -2.464  0.00  0.00    +0.058 A 
BRANCH  21  27
ATOM     27  O   UNL     1       0.671  -0.465  -1.174  0.00  0.00    -0.492 OA
BRANCH  27  29
ATOM     28  C   UNL     1      -0.019   1.526   0.010  0.00  0.00    +0.048 C 
ATOM     29  C   UNL     1       0.002  -0.004   0.002  0.00  0.00    +0.226 C 
ENDBRANCH  27  29
ENDBRANCH  21  27
ENDBRANCH  14  26
ENDBRANCH   1  16
BRANCH  11  30
ATOM     30  C   UNL     1      10.678   0.065  -7.220  0.00  0.00    +0.165 C 
BRANCH  30  31
ATOM     31  C   UNL     1      11.229   1.327  -6.607  0.00  0.00    -0.028 A 
ATOM     32  C   UNL     1      11.314   2.482  -7.362  0.00  0.00    +0.005 A 
ATOM     33  C   UNL     1      11.819   3.639  -6.801  0.00  0.00    +0.000 A 
ATOM     34  C   UNL     1      12.240   3.642  -5.484  0.00  0.00    +0.000 A 
ATOM     35  C   UNL     1      12.154   2.487  -4.729  0.00  0.00    +0.000 A 
ATOM     36  C   UNL     1      11.645   1.331  -5.289  0.00  0.00    +0.005 A 
ENDBRANCH  30  31
ENDBRANCH  11  30
TORSDOF 6
