REMARK  Name = ZINC09783869
REMARK  14 active torsions:
REMARK  status: ('A' for Active; 'I' for Inactive)
REMARK    1  A    between atoms: C_1  and  C_2
REMARK    2  A    between atoms: C_2  and  C_3
REMARK    3  A    between atoms: C_3  and  O_4
REMARK    4  A    between atoms: O_4  and  C_5
REMARK    5  A    between atoms: C_8  and  C_12
REMARK    6  A    between atoms: N_14  and  C_15
REMARK    7  A    between atoms: C_15  and  N_17
REMARK    8  A    between atoms: C_23  and  C_25
REMARK    9  A    between atoms: C_25  and  C_26
REMARK   10  A    between atoms: C_26  and  O_28
REMARK   11  A    between atoms: O_28  and  C_29
REMARK   12  A    between atoms: C_29  and  C_31
REMARK   13  A    between atoms: C_29  and  C_32
REMARK   14  A    between atoms: C_32  and  C_33
REMARK                            x       y       z     vdW  Elec       q    Type
REMARK                         _______ _______ _______ _____ _____    ______ ____
ROOT
ATOM      1  C   UNL     1      -1.939   2.414  -9.662  0.00  0.00    +0.140 C 
ATOM      2  S   UNL     1      -1.052   1.953  -8.272  0.00  0.00    -0.018 S 
ENDROOT
BRANCH   1   3
ATOM      3  N   UNL     1      -1.548   1.993 -10.881  0.00  0.00    -0.299 N 
ATOM      4  C   UNL     1      -0.431   1.047 -11.044  0.00  0.00    +0.126 C 
ATOM      5  C   UNL     1      -0.979  -0.221 -11.712  0.00  0.00    +0.123 C 
ATOM      6  N   UNL     1      -1.816   0.118 -12.854  0.00  0.00    -0.312 N 
ATOM      7  C   UNL     1      -2.413   1.297 -13.032  0.00  0.00    +0.234 C 
ATOM      8  O   UNL     1      -3.150   1.435 -13.985  0.00  0.00    -0.274 OA
ATOM      9  C   UNL     1      -2.215   2.465 -12.104  0.00  0.00    +0.171 C 
ATOM     10  H   UNL     1      -1.948  -0.561 -13.534  0.00  0.00    +0.149 HD
BRANCH   9  11
ATOM     11  C   UNL     1      -1.345   3.521 -12.788  0.00  0.00    +0.152 C 
BRANCH  11  12
ATOM     12  C   UNL     1      -1.262   4.746 -11.914  0.00  0.00    +0.310 C 
ATOM     13  O   UNL     1      -1.937   4.822 -10.915  0.00  0.00    -0.251 OA
BRANCH  12  14
ATOM     14  O   UNL     1      -0.437   5.752 -12.245  0.00  0.00    -0.462 OA
BRANCH  14  15
ATOM     15  C   UNL     1      -0.408   6.900 -11.356  0.00  0.00    +0.173 C 
ATOM     16  C   UNL     1       0.660   6.687 -10.282  0.00  0.00    +0.052 C 
BRANCH  15  17
ATOM     17  C   UNL     1      -0.079   8.159 -12.161  0.00  0.00    +0.041 C 
ATOM     18  C   UNL     1      -1.210   8.442 -13.152  0.00  0.00    +0.007 C 
ENDBRANCH  15  17
ENDBRANCH  14  15
ENDBRANCH  12  14
ENDBRANCH  11  12
ENDBRANCH   9  11
ENDBRANCH   1   3
BRANCH   1  21
ATOM     19  C   UNL     1      -3.480   3.533  -8.312  0.00  0.00    +0.250 C 
ATOM     20  O   UNL     1      -2.905   3.128  -7.321  0.00  0.00    -0.270 OA
ATOM     21  N   UNL     1      -3.028   3.198  -9.537  0.00  0.00    -0.264 N 
ATOM     22  H   UNL     1      -3.486   3.521 -10.328  0.00  0.00    +0.157 HD
BRANCH  19  26
ATOM     23  C   UNL     1      -6.912   6.002  -7.917  0.00  0.00    +0.134 A 
ATOM     24  C   UNL     1      -6.256   5.540  -6.782  0.00  0.00    +0.047 A 
ATOM     25  C   UNL     1      -5.143   4.739  -6.906  0.00  0.00    +0.017 A 
ATOM     26  C   UNL     1      -4.672   4.391  -8.175  0.00  0.00    +0.038 A 
ATOM     27  C   UNL     1      -5.335   4.857  -9.314  0.00  0.00    +0.032 A 
ATOM     28  C   UNL     1      -6.451   5.654  -9.181  0.00  0.00    +0.060 A 
ATOM     29 BR   UNL     1      -7.353   6.279 -10.721  0.00  0.00    -0.046 Br
BRANCH  23  30
ATOM     30  O   UNL     1      -8.009   6.792  -7.790  0.00  0.00    -0.491 OA
BRANCH  30  31
ATOM     31  C   UNL     1      -8.432   7.106  -6.462  0.00  0.00    +0.229 C 
BRANCH  31  33
ATOM     32  C   UNL     1     -10.126   8.335  -5.098  0.00  0.00    +0.007 C 
ATOM     33  C   UNL     1      -9.673   7.998  -6.520  0.00  0.00    +0.038 C 
ENDBRANCH  31  33
ENDBRANCH  30  31
ENDBRANCH  23  30
ENDBRANCH  19  26
ENDBRANCH   1  21
TORSDOF 11
