REMARK  Name = ZINC12457392
REMARK  7 active torsions:
REMARK  status: ('A' for Active; 'I' for Inactive)
REMARK    1  A    between atoms: C_1  and  O_2
REMARK    2  A    between atoms: O_2  and  C_3
REMARK    3  A    between atoms: C_6  and  S_9
REMARK    4  A    between atoms: S_9  and  C_10
REMARK    5  A    between atoms: C_13  and  C_26
REMARK    6  A    between atoms: C_16  and  N_70
REMARK    7  A    between atoms: N_28  and  C_29
REMARK                            x       y       z     vdW  Elec       q    Type
REMARK                         _______ _______ _______ _____ _____    ______ ____
ROOT
ATOM      1  C   UNL     1       3.777  -1.112   6.037  0.00  0.00    +0.034 C 
ATOM      2  C   UNL     1       3.221  -2.215   5.108  0.00  0.00    +0.006 C 
ATOM      3  C   UNL     1       3.621  -3.543   5.776  0.00  0.00    +0.021 C 
ATOM      4  C   UNL     1       3.930  -1.846   7.393  0.00  0.00    -0.063 C 
ATOM      5  N   UNL     1       4.379  -3.181   6.979  0.00  0.00    +0.390 N 
ATOM      6  H   UNL     1       5.382  -3.158   6.764  0.00  0.00    -0.080 HD
ENDROOT
BRANCH   5   7
ATOM      7  C   UNL     1       4.133  -4.178   8.065  0.00  0.00    -0.061 C 
ATOM      8  C   UNL     1       4.704  -3.648   9.382  0.00  0.00    -0.024 C 
ATOM      9  C   UNL     1       6.211  -3.432   9.235  0.00  0.00    +0.005 C 
ATOM     10  C   UNL     1       6.885  -4.760   8.884  0.00  0.00    -0.010 C 
ATOM     11  C   UNL     1       6.622  -5.775   9.998  0.00  0.00    +0.007 C 
ATOM     12  C   UNL     1       5.115  -5.992  10.145  0.00  0.00    -0.010 C 
ATOM     13  C   UNL     1       4.441  -4.664  10.496  0.00  0.00    +0.005 C 
ATOM     14  C   UNL     1       4.545  -6.521   8.828  0.00  0.00    +0.005 C 
ATOM     15  C   UNL     1       4.808  -5.505   7.714  0.00  0.00    -0.024 C 
ATOM     16  C   UNL     1       6.315  -5.289   7.567  0.00  0.00    +0.005 C 
ENDBRANCH   5   7
BRANCH   3  17
ATOM     17  C   UNL     1       4.482  -4.351   4.839  0.00  0.00    +0.200 C 
ATOM     18  O   UNL     1       5.688  -4.222   4.860  0.00  0.00    -0.278 OA
ATOM     19  N   UNL     1       3.912  -5.215   3.977  0.00  0.00    -0.312 N 
ATOM     20  H   UNL     1       2.948  -5.319   3.959  0.00  0.00    +0.149 HD
BRANCH  19  21
ATOM     21  C   UNL     1       4.749  -6.000   3.065  0.00  0.00    +0.095 C 
ATOM     22  C   UNL     1       4.013  -7.289   2.663  0.00  0.00    +0.046 C 
ATOM     23  C   UNL     1       4.735  -7.959   1.470  0.00  0.00    +0.168 C 
ATOM     24  S   UNL     1       5.519  -6.530   0.618  0.00  0.00    -0.029 S 
ATOM     25  O   UNL     1       6.931  -6.685   0.658  0.00  0.00    -0.174 OA
ATOM     26  O   UNL     1       4.872  -6.325  -0.631  0.00  0.00    -0.174 OA
ATOM     27  C   UNL     1       5.031  -5.180   1.774  0.00  0.00    +0.188 C 
ENDBRANCH  19  21
ENDBRANCH   3  17
BRANCH   1  28
ATOM     28  S   UNL     1       2.599   0.261   6.180  0.00  0.00    -0.124 S 
BRANCH  28  32
ATOM     29  C   UNL     1       2.499   2.057   2.022  0.00  0.00    +0.120 A 
ATOM     30  C   UNL     1       3.308   0.961   2.284  0.00  0.00    +0.047 A 
ATOM     31  C   UNL     1       3.343   0.416   3.552  0.00  0.00    +0.018 A 
ATOM     32  C   UNL     1       2.560   0.959   4.563  0.00  0.00    +0.008 A 
ATOM     33  C   UNL     1       1.747   2.054   4.298  0.00  0.00    +0.018 A 
ATOM     34  C   UNL     1       1.718   2.600   3.030  0.00  0.00    +0.047 A 
BRANCH  29  36
ATOM     35  C   UNL     1       3.299   1.986  -0.217  0.00  0.00    +0.277 C 
ATOM     36  O   UNL     1       2.469   2.596   0.773  0.00  0.00    -0.495 OA
ENDBRANCH  29  36
ENDBRANCH  28  32
ENDBRANCH   1  28
TORSDOF 6
