REMARK  Name = ZINC39710915
REMARK  12 active torsions:
REMARK  status: ('A' for Active; 'I' for Inactive)
REMARK    1  A    between atoms: C_1  and  C_2
REMARK    2  A    between atoms: C_8  and  C_14
REMARK    3  A    between atoms: C_14  and  C_16
REMARK    4  A    between atoms: C_14  and  N_25
REMARK    5  A    between atoms: N_20  and  C_21
REMARK    6  A    between atoms: C_21  and  C_22
REMARK    7  A    between atoms: C_22  and  O_23
REMARK    8  A    between atoms: O_23  and  C_24
REMARK    9  A    between atoms: N_25  and  C_26
REMARK   10  A    between atoms: N_25  and  C_33
REMARK   11  A    between atoms: C_26  and  C_27
REMARK   12  A    between atoms: C_33  and  C_34
REMARK                            x       y       z     vdW  Elec       q    Type
REMARK                         _______ _______ _______ _____ _____    ______ ____
ROOT
ATOM      1  C   UNL     1       1.033  -2.904   3.892  0.00  0.00    +0.143 C 
ENDROOT
BRANCH   1   9
ATOM      2  C   UNL     1      -2.991  -1.192  -0.415  0.00  0.00    +0.045 C 
ATOM      3  C   UNL     1      -2.317  -2.514  -0.148  0.00  0.00    -0.029 A 
ATOM      4  C   UNL     1      -2.322  -3.478  -1.105  0.00  0.00    +0.005 A 
ATOM      5  C   UNL     1      -1.718  -4.722  -0.923  0.00  0.00    +0.001 A 
ATOM      6  C   UNL     1      -1.084  -5.038   0.236  0.00  0.00    +0.009 A 
ATOM      7  C   UNL     1      -1.042  -4.044   1.310  0.00  0.00    -0.007 A 
ATOM      8  C   UNL     1      -0.417  -4.317   2.491  0.00  0.00    -0.003 C 
ATOM      9  C   UNL     1      -0.422  -3.229   3.547  0.00  0.00    +0.123 C 
ATOM     10  C   UNL     1      -1.118  -1.931   3.205  0.00  0.00    +0.226 C 
ATOM     11  O   UNL     1      -1.152  -1.024   4.015  0.00  0.00    -0.275 OA
ATOM     12  N   UNL     1      -1.690  -1.786   2.021  0.00  0.00    -0.284 N 
ATOM     13  C   UNL     1      -1.684  -2.737   1.088  0.00  0.00    +0.043 A 
ATOM     14  H   UNL     1      -2.132  -0.945   1.822  0.00  0.00    +0.155 HD
ENDBRANCH   1   9
BRANCH   1  15
ATOM     15  C   UNL     1       1.740  -4.162   4.326  0.00  0.00    +0.170 A 
ATOM     16  N   UNL     1       1.469  -4.886   5.384  0.00  0.00    -0.112 NA
ATOM     17  N   UNL     1       2.291  -5.878   5.408  0.00  0.00    -0.023 NA
ATOM     18  N   UNL     1       3.080  -5.804   4.393  0.00  0.00    -0.044 NA
ATOM     19  N   UNL     1       2.768  -4.763   3.699  0.00  0.00    -0.225 N 
BRANCH  19  20
ATOM     20  C   UNL     1       3.414  -4.316   2.462  0.00  0.00    +0.175 C 
BRANCH  20  21
ATOM     21  C   UNL     1       4.699  -3.559   2.803  0.00  0.00    +0.183 C 
BRANCH  21  22
ATOM     22  O   UNL     1       5.265  -3.019   1.607  0.00  0.00    -0.381 OA
ATOM     23  C   UNL     1       6.476  -2.289   1.815  0.00  0.00    +0.194 C 
ENDBRANCH  21  22
ENDBRANCH  20  21
ENDBRANCH  19  20
ENDBRANCH   1  15
BRANCH   1  24
ATOM     24  N   UNL     1       1.069  -1.921   4.983  0.00  0.00    -0.283 NA
BRANCH  24  25
ATOM     25  C   UNL     1       2.412  -1.343   5.127  0.00  0.00    +0.120 C 
BRANCH  25  26
ATOM     26  C   UNL     1       2.623  -0.293   4.068  0.00  0.00    -0.033 A 
ATOM     27  C   UNL     1       3.022  -0.663   2.797  0.00  0.00    +0.005 A 
ATOM     28  C   UNL     1       3.216   0.300   1.825  0.00  0.00    +0.000 A 
ATOM     29  C   UNL     1       3.011   1.634   2.124  0.00  0.00    +0.000 A 
ATOM     30  C   UNL     1       2.612   2.005   3.394  0.00  0.00    +0.000 A 
ATOM     31  C   UNL     1       2.414   1.041   4.365  0.00  0.00    +0.005 A 
ENDBRANCH  25  26
ENDBRANCH  24  25
BRANCH  24  32
ATOM     32  C   UNL     1       0.614  -2.518   6.246  0.00  0.00    +0.122 C 
BRANCH  32  33
ATOM     33  C   UNL     1       0.256  -1.425   7.219  0.00  0.00    -0.015 A 
ATOM     34  C   UNL     1       1.199  -0.947   8.117  0.00  0.00    +0.008 A 
ATOM     35  C   UNL     1       0.825   0.059   8.993  0.00  0.00    +0.020 A 
ATOM     36  C   UNL     1      -0.466   0.549   8.944  0.00  0.00    +0.111 A 
ATOM     37  N   UNL     1      -1.337   0.071   8.078  0.00  0.00    -0.263 NA
ATOM     38  C   UNL     1      -1.014  -0.882   7.225  0.00  0.00    +0.115 A 
ENDBRANCH  32  33
ENDBRANCH  24  32
ENDBRANCH   1  24
TORSDOF 10
