REMARK  Name = ZINC39482767
REMARK  8 active torsions:
REMARK  status: ('A' for Active; 'I' for Inactive)
REMARK    1  A    between atoms: C_4  and  O_7
REMARK    2  A    between atoms: O_7  and  S_8
REMARK    3  A    between atoms: S_8  and  C_11
REMARK    4  A    between atoms: C_14  and  N_25
REMARK    5  A    between atoms: C_15  and  N_17
REMARK    6  A    between atoms: N_25  and  S_26
REMARK    7  A    between atoms: S_26  and  C_29
REMARK    8  A    between atoms: C_34  and  O_35
REMARK                            x       y       z     vdW  Elec       q    Type
REMARK                         _______ _______ _______ _____ _____    ______ ____
ROOT
ATOM      1  C   UNL     1       2.444  -2.774   0.968  0.00  0.00    +0.130 A 
ATOM      2  C   UNL     1       1.503  -2.365   1.895  0.00  0.00    +0.032 A 
ATOM      3  C   UNL     1       0.894  -3.291   2.722  0.00  0.00    +0.028 A 
ATOM      4  C   UNL     1       1.226  -4.633   2.623  0.00  0.00    +0.069 A 
ATOM      5  C   UNL     1       2.175  -5.046   1.688  0.00  0.00    +0.054 A 
ATOM      6  C   UNL     1       2.777  -4.112   0.859  0.00  0.00    +0.055 A 
ENDROOT
BRANCH   5   7
ATOM      7  N   UNL     1       2.515  -6.400   1.583  0.00  0.00    -0.323 N 
ATOM      8  C   UNL     1       1.788  -7.292   0.667  0.00  0.00    +0.120 C 
ATOM      9  C   UNL     1       1.340  -8.532   1.449  0.00  0.00    +0.102 C 
ATOM     10  N   UNL     1       2.503  -9.136   2.112  0.00  0.00    -0.285 NA
ATOM     11  C   UNL     1       3.088  -8.220   3.100  0.00  0.00    +0.252 C 
ATOM     12  C   UNL     1       3.612  -6.967   2.382  0.00  0.00    +0.158 C 
ATOM     13  F   UNL     1       2.112  -7.855   4.033  0.00  0.00    -0.227 F 
ATOM     14  H   UNL     1       2.259 -10.019   2.536  0.00  0.00    +0.125 HD
ENDBRANCH   5   7
BRANCH   1  15
ATOM     15  S   UNL     1       3.215  -1.588  -0.083  0.00  0.00    +0.151 S 
ATOM     16  O   UNL     1       4.453  -2.153  -0.493  0.00  0.00    -0.131 OA
ATOM     17  O   UNL     1       3.133  -0.338   0.588  0.00  0.00    -0.131 OA
BRANCH  15  18
ATOM     18  O   UNL     1       2.356  -1.469  -1.333  0.00  0.00    -0.342 OA
BRANCH  18  22
ATOM     19  C   UNL     1      -1.138   0.653  -0.773  0.00  0.00    +0.000 A 
ATOM     20  C   UNL     1       0.015   1.311  -1.160  0.00  0.00    +0.004 A 
ATOM     21  C   UNL     1       1.186   0.603  -1.348  0.00  0.00    +0.048 A 
ATOM     22  C   UNL     1       1.205  -0.770  -1.148  0.00  0.00    +0.157 A 
ATOM     23  C   UNL     1       0.047  -1.428  -0.760  0.00  0.00    +0.048 A 
ATOM     24  C   UNL     1      -1.121  -0.715  -0.574  0.00  0.00    +0.004 A 
ENDBRANCH  18  22
ENDBRANCH  15  18
ENDBRANCH   1  15
BRANCH   4  25
ATOM     25  N   UNL     1       0.611  -5.572   3.460  0.00  0.00    -0.214 N 
ATOM     26  H   UNL     1       1.114  -6.335   3.786  0.00  0.00    +0.174 HD
BRANCH  25  27
ATOM     27  S   UNL     1      -0.976  -5.381   3.893  0.00  0.00    +0.076 S 
ATOM     28  O   UNL     1      -1.686  -5.064   2.704  0.00  0.00    -0.150 OA
ATOM     29  O   UNL     1      -1.312  -6.497   4.707  0.00  0.00    -0.150 OA
BRANCH  27  30
ATOM     30  C   UNL     1      -1.066  -3.958   4.929  0.00  0.00    +0.150 A 
ATOM     31  C   UNL     1      -1.790  -2.853   4.524  0.00  0.00    +0.032 A 
ATOM     32  C   UNL     1      -1.860  -1.736   5.335  0.00  0.00    +0.002 A 
ATOM     33  C   UNL     1      -1.207  -1.722   6.554  0.00  0.00    +0.004 A 
ATOM     34  C   UNL     1      -0.482  -2.825   6.964  0.00  0.00    +0.047 A 
ATOM     35  C   UNL     1      -0.414  -3.949   6.153  0.00  0.00    +0.143 A 
BRANCH  35  36
ATOM     36  O   UNL     1       0.293  -5.037   6.556  0.00  0.00    -0.505 OA
ATOM     37  H   UNL     1       1.229  -5.010   6.314  0.00  0.00    +0.292 HD
ENDBRANCH  35  36
ENDBRANCH  27  30
ENDBRANCH  25  27
ENDBRANCH   4  25
TORSDOF 8
