REMARK  Name = ZINC46898041
REMARK  10 active torsions:
REMARK  status: ('A' for Active; 'I' for Inactive)
REMARK    1  A    between atoms: C_1  and  C_2
REMARK    2  A    between atoms: C_2  and  C_3
REMARK    3  A    between atoms: C_2  and  C_4
REMARK    4  A    between atoms: C_2  and  C_5
REMARK    5  A    between atoms: C_5  and  C_6
REMARK    6  A    between atoms: C_6  and  C_8
REMARK    7  A    between atoms: C_6  and  N_14
REMARK    8  A    between atoms: N_17  and  N_18
REMARK    9  A    between atoms: C_19  and  C_21
REMARK   10  A    between atoms: C_26  and  O_27
REMARK                            x       y       z     vdW  Elec       q    Type
REMARK                         _______ _______ _______ _____ _____    ______ ____
ROOT
ATOM      1  N   UNL     1       2.873  -1.090   0.183  0.00  0.00    -0.291 N 
ATOM      2  C   UNL     1       2.575  -0.710   1.442  0.00  0.00    +0.316 C 
ATOM      3  O   UNL     1       1.674   0.081   1.641  0.00  0.00    -0.251 OA
ATOM      4  N   UNL     1       3.277  -1.208   2.479  0.00  0.00    -0.218 N 
ATOM      5  H   UNL     1       3.544  -1.773   0.028  0.00  0.00    +0.151 HD
ATOM      6  H   UNL     1       3.063  -0.935   3.385  0.00  0.00    +0.174 HD
ENDROOT
BRANCH   4   7
ATOM      7  N   UNL     1       4.316  -2.120   2.249  0.00  0.00    -0.229 N 
ATOM      8  C   UNL     1       5.018  -2.617   3.286  0.00  0.00    +0.264 C 
ATOM      9  O   UNL     1       4.750  -2.275   4.422  0.00  0.00    -0.269 OA
ATOM     10  H   UNL     1       4.530  -2.393   1.343  0.00  0.00    +0.173 HD
BRANCH   8  11
ATOM     11  C   UNL     1       6.112  -3.577   3.044  0.00  0.00    +0.079 A 
ATOM     12  C   UNL     1       6.427  -3.969   1.741  0.00  0.00    +0.017 A 
ATOM     13  C   UNL     1       7.450  -4.866   1.521  0.00  0.00    +0.001 A 
ATOM     14  C   UNL     1       8.168  -5.381   2.588  0.00  0.00    +0.004 A 
ATOM     15  C   UNL     1       7.867  -5.003   3.881  0.00  0.00    +0.046 A 
ATOM     16  C   UNL     1       6.844  -4.097   4.120  0.00  0.00    +0.129 A 
BRANCH  16  17
ATOM     17  O   UNL     1       6.551  -3.720   5.390  0.00  0.00    -0.506 OA
ATOM     18  H   UNL     1       5.893  -4.280   5.824  0.00  0.00    +0.292 HD
ENDBRANCH  16  17
ENDBRANCH   8  11
ENDBRANCH   4   7
BRANCH   1  19
ATOM     19  C   UNL     1       2.182  -0.471  -0.951  0.00  0.00    +0.105 C 
BRANCH  19  20
ATOM     20  C   UNL     1       3.037  -0.590  -2.186  0.00  0.00    -0.027 A 
ATOM     21  C   UNL     1       3.458  -1.834  -2.618  0.00  0.00    +0.005 A 
ATOM     22  C   UNL     1       4.243  -1.942  -3.751  0.00  0.00    +0.000 A 
ATOM     23  C   UNL     1       4.606  -0.808  -4.452  0.00  0.00    +0.000 A 
ATOM     24  C   UNL     1       4.184   0.436  -4.020  0.00  0.00    +0.000 A 
ATOM     25  C   UNL     1       3.396   0.544  -2.890  0.00  0.00    +0.005 A 
ENDBRANCH  19  20
BRANCH  19  26
ATOM     26  C   UNL     1       0.847  -1.183  -1.185  0.00  0.00    +0.033 C 
BRANCH  26  28
ATOM     27  C   UNL     1       0.765  -0.476  -3.580  0.00  0.00    +0.010 C 
ATOM     28  C   UNL     1       0.039  -0.418  -2.235  0.00  0.00    -0.036 C 
ATOM     29  C   UNL     1      -0.112   1.041  -1.799  0.00  0.00    +0.010 C 
ATOM     30  C   UNL     1      -1.346  -1.054  -2.374  0.00  0.00    +0.010 C 
ENDBRANCH  26  28
ENDBRANCH  19  26
ENDBRANCH   1  19
TORSDOF 7
