REMARK  Name = ZINC67029273
REMARK  11 active torsions:
REMARK  status: ('A' for Active; 'I' for Inactive)
REMARK    1  A    between atoms: C_1  and  C_2
REMARK    2  A    between atoms: C_2  and  N_3
REMARK    3  A    between atoms: N_3  and  C_4
REMARK    4  A    between atoms: C_4  and  C_5
REMARK    5  A    between atoms: C_6  and  C_8
REMARK    6  A    between atoms: C_9  and  C_29
REMARK    7  A    between atoms: C_14  and  C_16
REMARK    8  A    between atoms: C_20  and  O_22
REMARK    9  A    between atoms: O_22  and  C_23
REMARK   10  A    between atoms: C_23  and  C_25
REMARK   11  A    between atoms: C_23  and  C_26
REMARK                            x       y       z     vdW  Elec       q    Type
REMARK                         _______ _______ _______ _____ _____    ______ ____
ROOT
ATOM      1  C   UNL     1       3.091  -0.534  -0.055  0.00  0.00    +0.056 C 
ATOM      2  C   UNL     1       4.430  -0.614   0.095  0.00  0.00    +0.017 C 
ATOM      3  N   UNL     1       5.275  -0.253  -0.915  0.00  0.00    -0.300 N 
ATOM      4  C   UNL     1       4.860   0.197  -2.106  0.00  0.00    +0.135 C 
ATOM      5  S   UNL     1       6.028   0.615  -3.286  0.00  0.00    -0.019 S 
ATOM      6  N   UNL     1       3.553   0.332  -2.405  0.00  0.00    -0.315 N 
ATOM      7  C   UNL     1       2.558  -0.036  -1.383  0.00  0.00    +0.139 C 
ATOM      8  C   UNL     1       5.001  -1.109   1.399  0.00  0.00    +0.061 C 
ATOM      9  H   UNL     1       6.230  -0.327  -0.761  0.00  0.00    +0.154 HD
ATOM     10  H   UNL     1       3.274   0.660  -3.274  0.00  0.00    +0.149 HD
ENDROOT
BRANCH   7  11
ATOM     11  C   UNL     1       1.670  -1.109  -1.959  0.00  0.00    -0.019 A 
ATOM     12  C   UNL     1       2.229  -2.252  -2.501  0.00  0.00    +0.006 A 
ATOM     13  C   UNL     1       1.417  -3.238  -3.030  0.00  0.00    +0.004 A 
ATOM     14  C   UNL     1       0.044  -3.083  -3.018  0.00  0.00    +0.046 A 
ATOM     15  C   UNL     1      -0.519  -1.938  -2.475  0.00  0.00    +0.122 A 
ATOM     16  C   UNL     1       0.298  -0.953  -1.940  0.00  0.00    +0.051 A 
BRANCH  15  17
ATOM     17  O   UNL     1      -1.869  -1.784  -2.463  0.00  0.00    -0.478 OA
BRANCH  17  18
ATOM     18  C   UNL     1      -2.653  -2.898  -2.895  0.00  0.00    +0.282 C 
ATOM     19  C   UNL     1      -2.781  -2.870  -4.420  0.00  0.00    +0.064 C 
BRANCH  18  20
ATOM     20  C   UNL     1      -4.024  -2.818  -2.274  0.00  0.00    +0.395 C 
ATOM     21  O   UNL     1      -4.335  -1.848  -1.604  0.00  0.00    -0.242 OA
ATOM     22  O   UNL     1      -4.823  -3.724  -2.442  0.00  0.00    -0.242 OA
ENDBRANCH  18  20
ENDBRANCH  17  18
ENDBRANCH  15  17
ENDBRANCH   7  11
BRANCH   1  24
ATOM     23  N   UNL     1       1.913  -0.028   1.967  0.00  0.00    -0.298 N 
ATOM     24  C   UNL     1       2.213  -0.908   0.992  0.00  0.00    +0.246 C 
ATOM     25  O   UNL     1       1.729  -2.026   1.011  0.00  0.00    -0.270 OA
BRANCH  23  27
ATOM     26  C   UNL     1       3.699   1.465   2.721  0.00  0.00    +0.024 C 
ATOM     27  C   UNL     1       2.417   1.346   1.894  0.00  0.00    +0.104 C 
ENDBRANCH  23  27
BRANCH  23  28
ATOM     28  C   UNL     1       1.085  -0.445   3.101  0.00  0.00    +0.104 C 
ATOM     29  C   UNL     1      -0.389  -0.194   2.775  0.00  0.00    +0.024 C 
ENDBRANCH  23  28
ENDBRANCH   1  24
TORSDOF 7
