REMARK  Name = ZINC43253994
REMARK  9 active torsions:
REMARK  status: ('A' for Active; 'I' for Inactive)
REMARK    1  A    between atoms: C_1  and  C_2
REMARK    2  A    between atoms: C_2  and  C_4
REMARK    3  A    between atoms: C_2  and  N_21
REMARK    4  A    between atoms: C_4  and  C_6
REMARK    5  A    between atoms: C_4  and  N_12
REMARK    6  A    between atoms: N_12  and  C_13
REMARK    7  A    between atoms: N_12  and  C_16
REMARK    8  A    between atoms: C_13  and  C_14
REMARK    9  A    between atoms: C_14  and  O_15
REMARK                            x       y       z     vdW  Elec       q    Type
REMARK                         _______ _______ _______ _____ _____    ______ ____
ROOT
ATOM      1  C   UNL     1       0.400  -0.645   1.097  0.00  0.00    -0.014 C 
ENDROOT
BRANCH   1   2
ATOM      2  C   UNL     1       1.803  -0.526   0.559  0.00  0.00    -0.021 A 
ATOM      3  C   UNL     1       2.582  -1.478  -0.008  0.00  0.00    +0.011 A 
ATOM      4  C   UNL     1       3.853  -1.138  -0.434  0.00  0.00    +0.028 A 
ATOM      5  C   UNL     1       4.281   0.139  -0.272  0.00  0.00    +0.078 A 
ATOM      6  S   UNL     1       2.865   0.908   0.497  0.00  0.00    -0.083 S 
ATOM      7 CL   UNL     1       5.807   0.844  -0.705  0.00  0.00    -0.076 Cl
ENDBRANCH   1   2
BRANCH   1   9
ATOM      8  C   UNL     1      -0.032   1.785   0.705  0.00  0.00    +0.022 C 
ATOM      9  C   UNL     1      -0.505   0.365   0.389  0.00  0.00    +0.039 C 
BRANCH   9  10
ATOM     10  N   UNL     1      -0.446   0.141  -1.062  0.00  0.00    -0.329 NA
ATOM     11  H   UNL     1      -1.085   0.753  -1.549  0.00  0.00    +0.118 HD
ATOM     12  H   UNL     1       0.495   0.253  -1.407  0.00  0.00    +0.118 HD
ENDBRANCH   9  10
ENDBRANCH   1   9
BRANCH   1  13
ATOM     13  N   UNL     1       0.404  -0.370   2.541  0.00  0.00    +0.389 N 
ATOM     14  H   UNL     1       0.707   0.579   2.701  0.00  0.00    -0.080 HD
BRANCH  13  15
ATOM     15  C   UNL     1      -0.952  -0.548   3.077  0.00  0.00    -0.068 C 
ATOM     16  C   UNL     1      -1.857   0.615   2.622  0.00  0.00    -0.015 C 
ATOM     17  C   UNL     1      -2.769   0.886   3.845  0.00  0.00    -0.002 C 
ATOM     18  C   UNL     1      -1.807   0.682   5.041  0.00  0.00    -0.002 C 
ATOM     19  C   UNL     1      -0.920  -0.506   4.615  0.00  0.00    -0.015 C 
ENDBRANCH  13  15
BRANCH  13  20
ATOM     20  C   UNL     1       1.323  -1.297   3.213  0.00  0.00    -0.049 C 
BRANCH  20  21
ATOM     21  C   UNL     1       2.741  -0.723   3.183  0.00  0.00    +0.137 C 
BRANCH  21  22
ATOM     22  O   UNL     1       2.764   0.525   3.879  0.00  0.00    -0.397 OA
ATOM     23  H   UNL     1       3.634   0.947   3.900  0.00  0.00    +0.209 HD
ENDBRANCH  21  22
ENDBRANCH  20  21
ENDBRANCH  13  20
ENDBRANCH   1  13
TORSDOF 8
