REMARK  Name = ZINC12333265
REMARK  7 active torsions:
REMARK  status: ('A' for Active; 'I' for Inactive)
REMARK    1  A    between atoms: C_1  and  O_2
REMARK    2  A    between atoms: O_2  and  C_3
REMARK    3  A    between atoms: C_7  and  C_9
REMARK    4  A    between atoms: C_9  and  C_10
REMARK    5  A    between atoms: C_10  and  N_11
REMARK    6  A    between atoms: C_22  and  N_61
REMARK    7  A    between atoms: C_26  and  N_61
REMARK                            x       y       z     vdW  Elec       q    Type
REMARK                         _______ _______ _______ _____ _____    ______ ____
ROOT
ATOM      1  N   UNL     1      -2.521   1.066   7.744  0.00  0.00    -0.298 N 
ATOM      2  C   UNL     1      -3.639   1.834   7.691  0.00  0.00    +0.203 A 
ATOM      3  N   UNL     1      -4.232   2.241   8.782  0.00  0.00    -0.230 NA
ATOM      4  C   UNL     1      -3.756   1.916   9.981  0.00  0.00    +0.116 A 
ATOM      5  C   UNL     1      -2.606   1.127  10.136  0.00  0.00    +0.076 A 
ATOM      6  C   UNL     1      -1.983   0.692   8.920  0.00  0.00    +0.262 A 
ATOM      7  O   UNL     1      -0.981  -0.002   8.951  0.00  0.00    -0.267 OA
ATOM      8  C   UNL     1      -2.201   0.850  11.513  0.00  0.00    -0.023 A 
ATOM      9  C   UNL     1      -2.965   1.375  12.494  0.00  0.00    -0.006 A 
ATOM     10  S   UNL     1      -4.251   2.256  11.651  0.00  0.00    -0.073 S 
ATOM     11  C   UNL     1      -2.764   1.239  13.972  0.00  0.00    +0.027 C 
ATOM     12  C   UNL     1      -1.342   0.717  14.222  0.00  0.00    -0.066 C 
ATOM     13  C   UNL     1      -1.087  -0.475  13.295  0.00  0.00    -0.011 C 
ATOM     14  C   UNL     1      -0.973   0.007  11.848  0.00  0.00    +0.035 C 
ENDROOT
BRANCH  12  15
ATOM     15  N   UNL     1      -1.215   0.279  15.625  0.00  0.00    +0.383 N 
ATOM     16  H   UNL     1      -0.480  -0.435  15.691  0.00  0.00    -0.085 HD
ATOM     17  H   UNL     1      -2.108  -0.118  15.938  0.00  0.00    -0.085 HD
BRANCH  15  18
ATOM     18  C   UNL     1      -0.862   1.423  16.488  0.00  0.00    -0.071 C 
ATOM     19  C   UNL     1       0.655   1.621  16.477  0.00  0.00    -0.016 C 
ATOM     20  C   UNL     1       1.021   2.801  17.380  0.00  0.00    -0.002 C 
ATOM     21  C   UNL     1       0.554   2.515  18.808  0.00  0.00    -0.000 C 
ATOM     22  C   UNL     1      -0.963   2.317  18.819  0.00  0.00    -0.002 C 
ATOM     23  C   UNL     1      -1.329   1.136  17.916  0.00  0.00    -0.016 C 
ENDBRANCH  15  18
ENDBRANCH  12  15
BRANCH   1  24
ATOM     24  C   UNL     1      -1.889   0.632   6.496  0.00  0.00    +0.131 C 
BRANCH  24  25
ATOM     25  C   UNL     1      -0.853   1.670   6.060  0.00  0.00    +0.057 C 
BRANCH  25  30
ATOM     26  C   UNL     1      -0.149   1.182   2.380  0.00  0.00    +0.120 A 
ATOM     27  C   UNL     1       0.991   0.392   2.421  0.00  0.00    +0.045 A 
ATOM     28  C   UNL     1       1.534   0.027   3.637  0.00  0.00    +0.004 A 
ATOM     29  C   UNL     1       0.936   0.440   4.814  0.00  0.00    +0.004 A 
ATOM     30  C   UNL     1      -0.203   1.222   4.776  0.00  0.00    -0.042 A 
ATOM     31  C   UNL     1      -0.747   1.594   3.561  0.00  0.00    +0.049 A 
BRANCH  26  33
ATOM     32  C   UNL     1      -0.013   1.086   0.008  0.00  0.00    +0.277 C 
ATOM     33  O   UNL     1      -0.682   1.547   1.184  0.00  0.00    -0.495 OA
ENDBRANCH  26  33
ENDBRANCH  25  30
ENDBRANCH  24  25
ENDBRANCH   1  24
TORSDOF 6
