REMARK  Name = ZINC12507679
REMARK  3 active torsions:
REMARK  status: ('A' for Active; 'I' for Inactive)
REMARK    1  A    between atoms: C_4  and  O_27
REMARK    2  A    between atoms: C_5  and  C_7
REMARK    3  A    between atoms: O_27  and  C_28
REMARK                            x       y       z     vdW  Elec       q    Type
REMARK                         _______ _______ _______ _____ _____    ______ ____
ROOT
ATOM      1  C   UNL     1       1.227  -2.187  -0.022  0.00  0.00    +0.212 C 
ATOM      2  N   UNL     1      -0.082  -2.701  -0.467  0.00  0.00    -0.294 N 
ATOM      3  C   UNL     1      -1.107  -2.759   0.466  0.00  0.00    +0.159 C 
ATOM      4  N   UNL     1      -0.819  -3.407   1.668  0.00  0.00    -0.259 N 
ATOM      5  C   UNL     1       0.491  -3.254   2.121  0.00  0.00    +0.205 A 
ATOM      6  N   UNL     1       1.467  -2.688   1.335  0.00  0.00    -0.288 N 
ATOM      7  C   UNL     1       2.638  -2.692   2.062  0.00  0.00    +0.076 A 
ATOM      8  C   UNL     1       3.936  -2.270   1.806  0.00  0.00    +0.077 A 
ATOM      9  C   UNL     1       4.908  -2.414   2.777  0.00  0.00    +0.164 A 
ATOM     10  C   UNL     1       4.597  -2.982   4.009  0.00  0.00    +0.164 A 
ATOM     11  C   UNL     1       3.314  -3.410   4.277  0.00  0.00    +0.079 A 
ATOM     12  C   UNL     1       2.320  -3.270   3.304  0.00  0.00    +0.095 A 
ATOM     13  N   UNL     1       0.993  -3.591   3.273  0.00  0.00    -0.214 NA
ATOM     14  O   UNL     1       5.572  -3.111   4.957  0.00  0.00    -0.488 OA
ATOM     15  C   UNL     1       6.605  -4.054   4.667  0.00  0.00    +0.232 C 
ATOM     16  C   UNL     1       7.685  -3.421   3.804  0.00  0.00    +0.082 C 
ATOM     17  C   UNL     1       7.171  -3.026   2.429  0.00  0.00    +0.232 C 
ATOM     18  O   UNL     1       6.186  -1.996   2.532  0.00  0.00    -0.488 OA
ATOM     19  N   UNL     1      -2.277  -2.236   0.233  0.00  0.00    -0.375 N 
ATOM     20  H   UNL     1      -0.221  -2.989  -1.383  0.00  0.00    +0.151 HD
ATOM     21  H   UNL     1      -2.450  -1.791  -0.612  0.00  0.00    +0.158 HD
ATOM     22  H   UNL     1      -1.480  -3.926   2.152  0.00  0.00    +0.158 HD
ATOM     23  H   UNL     1      -2.976  -2.292   0.903  0.00  0.00    +0.158 HD
ENDROOT
BRANCH   1  28
ATOM     24  C   UNL     1       1.046   1.385   1.188  0.00  0.00    +0.001 A 
ATOM     25  C   UNL     1       1.170   2.088   0.004  0.00  0.00    +0.004 A 
ATOM     26  C   UNL     1       1.313   1.410  -1.191  0.00  0.00    +0.046 A 
ATOM     27  C   UNL     1       1.332   0.023  -1.202  0.00  0.00    +0.137 A 
ATOM     28  C   UNL     1       1.207  -0.680  -0.013  0.00  0.00    +0.035 A 
ATOM     29  C   UNL     1       1.064   0.003   1.180  0.00  0.00    +0.011 A 
BRANCH  27  30
ATOM     30  O   UNL     1       1.472  -0.646  -2.377  0.00  0.00    -0.405 OA
BRANCH  30  31
ATOM     31  C   UNL     1       1.594   0.142  -3.562  0.00  0.00    +0.575 C 
ATOM     32  F   UNL     1       2.722   0.964  -3.461  0.00  0.00    -0.133 F 
ATOM     33  F   UNL     1       1.729  -0.700  -4.671  0.00  0.00    -0.133 F 
ATOM     34  F   UNL     1       0.452   0.935  -3.715  0.00  0.00    -0.133 F 
ENDBRANCH  30  31
ENDBRANCH  27  30
ENDBRANCH   1  28
TORSDOF 3
