REMARK  Name = ZINC42684718
REMARK  5 active torsions:
REMARK  status: ('A' for Active; 'I' for Inactive)
REMARK    1  A    between atoms: C_8  and  S_10
REMARK    2  A    between atoms: S_10  and  C_11
REMARK    3  A    between atoms: C_11  and  C_12
REMARK    4  A    between atoms: N_14  and  C_15
REMARK    5  A    between atoms: C_15  and  C_22
REMARK                            x       y       z     vdW  Elec       q    Type
REMARK                         _______ _______ _______ _____ _____    ______ ____
ROOT
ATOM      1  C   UNL     1       5.389  -5.692  -0.080  0.00  0.00    +0.224 C 
ATOM      2  O   UNL     1       4.610  -6.621  -0.077  0.00  0.00    -0.275 OA
ATOM      3  N   UNL     1       6.717  -5.925  -0.094  0.00  0.00    -0.297 N 
ATOM      4  H   UNL     1       7.340  -5.182  -0.096  0.00  0.00    +0.150 HD
ENDROOT
BRANCH   3   5
ATOM      5  C   UNL     1       7.218  -7.302  -0.105  0.00  0.00    +0.121 C 
ATOM      6  C   UNL     1       6.657  -8.048   1.122  0.00  0.00    +0.041 C 
ATOM      7  C   UNL     1       6.730  -9.528   0.856  0.00  0.00    +0.003 C 
ATOM      8  C   UNL     1       8.016 -10.164   1.415  0.00  0.00    +0.000 C 
ATOM      9  C   UNL     1       9.266  -9.295   1.176  0.00  0.00    +0.000 C 
ATOM     10  C   UNL     1       9.288  -8.685  -0.200  0.00  0.00    +0.003 C 
ATOM     11  C   UNL     1       8.673  -7.273  -0.119  0.00  0.00    +0.041 C 
BRANCH   5  12
ATOM     12  C   UNL     1       6.743  -7.971  -1.327  0.00  0.00    +0.088 C 
ATOM     13  N   UNL     1       6.376  -8.488  -2.270  0.00  0.00    -0.194 NA
ENDBRANCH   5  12
ENDBRANCH   3   5
BRANCH   1  14
ATOM     14  C   UNL     1       4.873  -4.276  -0.067  0.00  0.00    +0.172 C 
BRANCH  14  15
ATOM     15  S   UNL     1       3.059  -4.293  -0.050  0.00  0.00    -0.089 S 
BRANCH  15  23
ATOM     16  C   UNL     1      -0.017   1.366   0.010  0.00  0.00    +0.002 A 
ATOM     17  C   UNL     1       1.156   2.107   0.002  0.00  0.00    +0.001 A 
ATOM     18  C   UNL     1       2.373   1.449  -0.013  0.00  0.00    +0.017 A 
ATOM     19  C   UNL     1       2.401   0.077  -0.021  0.00  0.00    +0.040 A 
ATOM     20  C   UNL     1       1.227  -0.710  -0.013  0.00  0.00    +0.079 A 
ATOM     21  C   UNL     1       0.002  -0.004   0.002  0.00  0.00    +0.029 A 
ATOM     22  N   UNL     1       1.419  -2.047  -0.023  0.00  0.00    -0.233 NA
ATOM     23  C   UNL     1       2.617  -2.588  -0.037  0.00  0.00    +0.136 A 
ATOM     24  S   UNL     1       3.683  -1.153  -0.039  0.00  0.00    -0.061 S 
ENDBRANCH  15  23
ENDBRANCH  14  15
ENDBRANCH   1  14
TORSDOF 5
