REMARK  Name = ZINC63486227
REMARK  8 active torsions:
REMARK  status: ('A' for Active; 'I' for Inactive)
REMARK    1  A    between atoms: C_1  and  C_2
REMARK    2  A    between atoms: C_13  and  C_15
REMARK    3  A    between atoms: C_15  and  C_16
REMARK    4  A    between atoms: N_18  and  C_19
REMARK    5  A    between atoms: C_19  and  C_20
REMARK    6  A    between atoms: C_20  and  C_21
REMARK    7  A    between atoms: C_24  and  O_30
REMARK    8  A    between atoms: O_30  and  C_31
REMARK                            x       y       z     vdW  Elec       q    Type
REMARK                         _______ _______ _______ _____ _____    ______ ____
ROOT
ATOM      1  C   UNL     1      -0.019   1.526   0.010  0.00  0.00    +0.013 C 
ATOM      2  C   UNL     1       0.002  -0.004   0.002  0.00  0.00    +0.034 C 
ATOM      3  C   UNL     1      -1.414  -0.524   0.009  0.00  0.00    -0.001 A 
ATOM      4  C   UNL     1      -2.102  -0.540  -1.177  0.00  0.00    +0.019 A 
ATOM      5  C   UNL     1      -3.414  -1.004  -1.222  0.00  0.00    +0.024 A 
ATOM      6  C   UNL     1      -4.038  -1.462  -0.047  0.00  0.00    +0.139 A 
ATOM      7  C   UNL     1      -3.330  -1.442   1.145  0.00  0.00    +0.093 A 
ATOM      8  C   UNL     1      -2.022  -0.977   1.172  0.00  0.00    +0.139 A 
ATOM      9  O   UNL     1      -1.363  -0.992   2.364  0.00  0.00    -0.425 OA
ATOM     10  C   UNL     1      -0.178  -0.354   2.429  0.00  0.00    +0.316 C 
ATOM     11  O   UNL     1       0.131   0.311   3.390  0.00  0.00    -0.250 OA
ATOM     12  C   UNL     1       0.747  -0.510   1.241  0.00  0.00    +0.114 C 
ATOM     13  O   UNL     1      -5.288  -1.848  -0.378  0.00  0.00    -0.459 OA
ATOM     14  C   UNL     1      -5.515  -1.666  -1.690  0.00  0.00    +0.109 A 
ATOM     15  C   UNL     1      -4.418  -1.155  -2.273  0.00  0.00    +0.001 A 
ATOM     16  C   UNL     1      -4.296  -0.819  -3.736  0.00  0.00    +0.039 C 
ATOM     17  C   UNL     1      -5.438  -1.512  -4.490  0.00  0.00    +0.005 C 
ATOM     18  C   UNL     1      -6.763  -1.226  -3.777  0.00  0.00    +0.008 C 
ATOM     19  C   UNL     1      -6.793  -1.971  -2.438  0.00  0.00    +0.075 C 
ENDROOT
BRANCH  12  20
ATOM     20  C   UNL     1       1.115  -1.984   1.060  0.00  0.00    +0.111 C 
BRANCH  20  21
ATOM     21  C   UNL     1       1.952  -2.439   2.227  0.00  0.00    +0.214 C 
ATOM     22  O   UNL     1       2.227  -1.662   3.116  0.00  0.00    -0.276 OA
ATOM     23  N   UNL     1       2.395  -3.711   2.283  0.00  0.00    -0.315 N 
ATOM     24  H   UNL     1       2.175  -4.333   1.572  0.00  0.00    +0.149 HD
BRANCH  23  25
ATOM     25  C   UNL     1       3.209  -4.154   3.418  0.00  0.00    +0.108 C 
BRANCH  25  26
ATOM     26  C   UNL     1       3.578  -5.628   3.237  0.00  0.00    +0.052 C 
BRANCH  26  27
ATOM     27  C   UNL     1       4.415  -6.083   4.404  0.00  0.00    -0.040 C 
ATOM     28  C   UNL     1       3.980  -6.708   5.521  0.00  0.00    +0.002 A 
ATOM     29  C   UNL     1       2.650  -7.134   5.970  0.00  0.00    +0.055 A 
ATOM     30  C   UNL     1       2.516  -7.752   7.168  0.00  0.00    +0.121 A 
ATOM     31  C   UNL     1       3.614  -8.005   8.009  0.00  0.00    +0.047 A 
ATOM     32  C   UNL     1       4.876  -7.651   7.684  0.00  0.00    +0.029 A 
ATOM     33  C   UNL     1       5.136  -6.975   6.408  0.00  0.00    +0.043 A 
ATOM     34  N   UNL     1       6.241  -6.533   5.861  0.00  0.00    -0.380 N 
ATOM     35  C   UNL     1       5.913  -5.940   4.559  0.00  0.00    +0.144 C 
ATOM     36  H   UNL     1       7.128  -6.591   6.249  0.00  0.00    +0.160 HD
BRANCH  30  37
ATOM     37  O   UNL     1       1.278  -8.141   7.571  0.00  0.00    -0.495 OA
ATOM     38  C   UNL     1       1.183  -8.789   8.841  0.00  0.00    +0.277 C 
ENDBRANCH  30  37
ENDBRANCH  26  27
ENDBRANCH  25  26
ENDBRANCH  23  25
ENDBRANCH  20  21
ENDBRANCH  12  20
TORSDOF 6
