REMARK  Name = ZINC05106463
REMARK  5 active torsions:
REMARK  status: ('A' for Active; 'I' for Inactive)
REMARK    1  A    between atoms: C_1  and  C_2
REMARK    2  A    between atoms: C_2  and  N_3
REMARK    3  A    between atoms: C_17  and  S_18
REMARK    4  A    between atoms: S_18  and  C_19
REMARK    5  A    between atoms: C_19  and  C_20
REMARK                            x       y       z     vdW  Elec       q    Type
REMARK                         _______ _______ _______ _____ _____    ______ ____
ROOT
ATOM      1  N   UNL     1       5.665   6.881  -1.952  0.00  0.00    -0.286 N 
ATOM      2  C   UNL     1       5.386   8.163  -2.272  0.00  0.00    +0.279 A 
ATOM      3  O   UNL     1       6.271   8.921  -2.633  0.00  0.00    -0.265 OA
ATOM      4  C   UNL     1       4.050   8.608  -2.180  0.00  0.00    +0.131 A 
ATOM      5  C   UNL     1       3.076   7.703  -1.763  0.00  0.00    +0.104 A 
ATOM      6  C   UNL     1       1.801   8.434  -1.762  0.00  0.00    +0.026 A 
ATOM      7  C   UNL     1       0.489   8.078  -1.446  0.00  0.00    +0.012 A 
ATOM      8  C   UNL     1      -0.511   9.003  -1.548  0.00  0.00    +0.001 A 
ATOM      9  C   UNL     1      -0.232  10.298  -1.962  0.00  0.00    +0.002 A 
ATOM     10  C   UNL     1       1.055  10.671  -2.279  0.00  0.00    +0.026 A 
ATOM     11  C   UNL     1       2.090   9.743  -2.183  0.00  0.00    +0.049 A 
ATOM     12  N   UNL     1       3.444   9.829  -2.429  0.00  0.00    -0.349 N 
ATOM     13  H   UNL     1       3.904  10.627  -2.732  0.00  0.00    +0.166 HD
ATOM     14  N   UNL     1       3.421   6.440  -1.464  0.00  0.00    -0.221 NA
ATOM     15  C   UNL     1       4.670   6.040  -1.548  0.00  0.00    +0.173 A 
ENDROOT
BRANCH   1  17
ATOM     16  C   UNL     1       7.298   5.830  -3.437  0.00  0.00    +0.027 C 
ATOM     17  C   UNL     1       7.043   6.392  -2.037  0.00  0.00    +0.124 C 
ENDBRANCH   1  17
BRANCH  15  18
ATOM     18  S   UNL     1       5.068   4.373  -1.138  0.00  0.00    -0.078 S 
BRANCH  18  19
ATOM     19  C   UNL     1       3.425   3.758  -0.693  0.00  0.00    +0.173 C 
BRANCH  19  20
ATOM     20  C   UNL     1       3.522   2.308  -0.296  0.00  0.00    +0.230 C 
ATOM     21  O   UNL     1       4.607   1.773  -0.214  0.00  0.00    -0.274 OA
ATOM     22  N   UNL     1       2.403   1.605  -0.030  0.00  0.00    -0.270 N 
ATOM     23  C   UNL     1       1.093   2.271   0.005  0.00  0.00    +0.114 C 
ATOM     24  C   UNL     1       0.342   1.760   1.241  0.00  0.00    +0.024 C 
ATOM     25  C   UNL     1       0.100   0.259   1.087  0.00  0.00    +0.038 C 
ATOM     26  C   UNL     1       1.385  -0.451   0.754  0.00  0.00    -0.026 A 
ATOM     27  C   UNL     1       2.468   0.226   0.215  0.00  0.00    +0.039 A 
ATOM     28  C   UNL     1       3.639  -0.460  -0.086  0.00  0.00    +0.024 A 
ATOM     29  C   UNL     1       3.725  -1.817   0.154  0.00  0.00    +0.002 A 
ATOM     30  C   UNL     1       2.646  -2.492   0.694  0.00  0.00    +0.000 A 
ATOM     31  C   UNL     1       1.479  -1.813   0.988  0.00  0.00    +0.005 A 
ENDBRANCH  19  20
ENDBRANCH  18  19
ENDBRANCH  15  18
TORSDOF 4
