REMARK  Name = ZINC34791255
REMARK  14 active torsions:
REMARK  status: ('A' for Active; 'I' for Inactive)
REMARK    1  A    between atoms: C_1  and  C_2
REMARK    2  A    between atoms: C_2  and  N_3
REMARK    3  A    between atoms: C_6  and  C_11
REMARK    4  A    between atoms: C_14  and  C_18
REMARK    5  A    between atoms: C_16  and  C_17
REMARK    6  A    between atoms: N_21  and  C_23
REMARK    7  A    between atoms: C_23  and  C_25
REMARK    8  A    between atoms: C_23  and  C_29
REMARK    9  A    between atoms: C_25  and  C_26
REMARK   10  A    between atoms: C_26  and  C_27
REMARK   11  A    between atoms: C_26  and  C_28
REMARK   12  A    between atoms: N_31  and  C_32
REMARK   13  A    between atoms: C_32  and  C_33
REMARK   14  A    between atoms: C_32  and  C_34
REMARK                            x       y       z     vdW  Elec       q    Type
REMARK                         _______ _______ _______ _____ _____    ______ ____
ROOT
ATOM      1  N   UNL     1       0.341   0.387  -2.029  0.00  0.00    -0.257 N 
ATOM      2  C   UNL     1      -0.448  -0.216  -2.966  0.00  0.00    +0.042 C 
ATOM      3  C   UNL     1       0.087  -0.953  -3.961  0.00  0.00    +0.058 C 
ATOM      4  C   UNL     1       1.596  -1.088  -4.004  0.00  0.00    +0.142 C 
ATOM      5  N   UNL     1       2.357  -0.400  -2.948  0.00  0.00    -0.288 N 
ATOM      6  C   UNL     1       1.678   0.305  -2.021  0.00  0.00    +0.307 C 
ATOM      7  O   UNL     1       2.297   0.880  -1.148  0.00  0.00    -0.252 OA
ATOM      8  C   UNL     1      -0.929  -1.466  -4.793  0.00  0.00    +0.247 C 
ATOM      9  O   UNL     1      -0.731  -2.166  -5.769  0.00  0.00    -0.270 OA
ATOM     10  N   UNL     1      -2.146  -1.082  -4.367  0.00  0.00    -0.281 N 
ATOM     11  C   UNL     1      -1.946  -0.254  -3.168  0.00  0.00    +0.160 C 
ATOM     12  H   UNL     1       3.326  -0.449  -2.921  0.00  0.00    +0.151 HD
ENDROOT
BRANCH   4  13
ATOM     13  C   UNL     1       1.933  -2.555  -3.937  0.00  0.00    -0.020 A 
ATOM     14  C   UNL     1       1.002  -3.457  -3.454  0.00  0.00    +0.006 A 
ATOM     15  C   UNL     1       1.311  -4.803  -3.393  0.00  0.00    +0.004 A 
ATOM     16  C   UNL     1       2.550  -5.247  -3.815  0.00  0.00    -0.050 A 
ATOM     17  C   UNL     1       3.480  -4.346  -4.299  0.00  0.00    +0.007 A 
ATOM     18  C   UNL     1       3.170  -3.001  -4.364  0.00  0.00    -0.045 A 
ATOM     19  C   UNL     1       4.182  -2.019  -4.896  0.00  0.00    +0.044 C 
ATOM     20  C   UNL     1       2.888  -6.715  -3.748  0.00  0.00    +0.044 C 
ENDBRANCH   4  13
BRANCH   1  22
ATOM     21  C   UNL     1      -0.460   2.622  -1.441  0.00  0.00    +0.025 C 
ATOM     22  C   UNL     1      -0.311   1.172  -0.977  0.00  0.00    +0.111 C 
ENDBRANCH   1  22
BRANCH  10  23
ATOM     23  C   UNL     1      -3.430  -1.425  -4.982  0.00  0.00    +0.163 C 
BRANCH  23  24
ATOM     24  C   UNL     1      -3.522  -0.782  -6.342  0.00  0.00    +0.234 C 
ATOM     25  O   UNL     1      -2.606  -0.105  -6.757  0.00  0.00    -0.274 OA
ATOM     26  N   UNL     1      -4.624  -0.960  -7.098  0.00  0.00    -0.311 N 
ATOM     27  H   UNL     1      -5.357  -1.502  -6.767  0.00  0.00    +0.149 HD
BRANCH  26  28
ATOM     28  C   UNL     1      -4.714  -0.335  -8.421  0.00  0.00    +0.067 C 
ATOM     29  C   UNL     1      -4.036  -1.235  -9.457  0.00  0.00    +0.027 C 
ATOM     30  C   UNL     1      -6.185  -0.144  -8.796  0.00  0.00    +0.027 C 
ENDBRANCH  26  28
ENDBRANCH  23  24
BRANCH  23  31
ATOM     31  C   UNL     1      -3.537  -2.944  -5.128  0.00  0.00    +0.035 C 
BRANCH  31  32
ATOM     32  C   UNL     1      -3.658  -3.582  -3.742  0.00  0.00    -0.015 C 
ATOM     33  C   UNL     1      -3.996  -5.066  -3.892  0.00  0.00    +0.007 C 
ATOM     34  C   UNL     1      -2.332  -3.433  -2.994  0.00  0.00    +0.007 C 
ENDBRANCH  31  32
ENDBRANCH  23  31
ENDBRANCH  10  23
TORSDOF 7
