REMARK  Name = ZINC35747313
REMARK  14 active torsions:
REMARK  status: ('A' for Active; 'I' for Inactive)
REMARK    1  A    between atoms: C_1  and  O_2
REMARK    2  A    between atoms: O_2  and  C_3
REMARK    3  A    between atoms: C_6  and  C_11
REMARK    4  A    between atoms: C_8  and  O_9
REMARK    5  A    between atoms: O_9  and  C_10
REMARK    6  A    between atoms: C_20  and  C_22
REMARK    7  A    between atoms: C_22  and  N_23
REMARK    8  A    between atoms: N_23  and  C_24
REMARK    9  A    between atoms: N_23  and  C_32
REMARK   10  A    between atoms: C_24  and  C_25
REMARK   11  A    between atoms: C_25  and  C_27
REMARK   12  A    between atoms: C_25  and  O_31
REMARK   13  A    between atoms: C_27  and  C_28
REMARK   14  A    between atoms: C_28  and  C_29
REMARK                            x       y       z     vdW  Elec       q    Type
REMARK                         _______ _______ _______ _____ _____    ______ ____
ROOT
ATOM      1  C   UNL     1      -4.878  -2.830   0.224  0.00  0.00    +0.004 A 
ATOM      2  C   UNL     1      -5.202  -3.672  -0.786  0.00  0.00    +0.056 A 
ATOM      3  S   UNL     1      -6.941  -3.971  -0.531  0.00  0.00    -0.076 S 
ATOM      4  C   UNL     1      -7.189  -2.969   0.912  0.00  0.00    +0.116 A 
ATOM      5  C   UNL     1      -5.916  -2.430   1.166  0.00  0.00    +0.080 A 
ATOM      6  C   UNL     1      -5.824  -1.567   2.304  0.00  0.00    +0.260 A 
ATOM      7  O   UNL     1      -4.763  -1.048   2.602  0.00  0.00    -0.267 OA
ATOM      8  N   UNL     1      -6.928  -1.337   3.039  0.00  0.00    -0.312 N 
ATOM      9  H   UNL     1      -6.872  -0.752   3.811  0.00  0.00    +0.170 HD
ATOM     10  C   UNL     1      -8.119  -1.906   2.720  0.00  0.00    +0.094 A 
ATOM     11  N   UNL     1      -8.236  -2.691   1.683  0.00  0.00    -0.229 NA
ENDROOT
BRANCH   1  15
ATOM     12  C   UNL     1      -0.896  -1.388   0.655  0.00  0.00    +0.162 A 
ATOM     13  C   UNL     1      -1.961  -0.501   0.678  0.00  0.00    +0.050 A 
ATOM     14  C   UNL     1      -3.253  -0.966   0.538  0.00  0.00    +0.012 A 
ATOM     15  C   UNL     1      -3.490  -2.330   0.374  0.00  0.00    -0.013 A 
ATOM     16  C   UNL     1      -2.419  -3.223   0.350  0.00  0.00    +0.058 A 
ATOM     17  C   UNL     1      -1.126  -2.751   0.486  0.00  0.00    +0.162 A 
BRANCH  12  19
ATOM     18  C   UNL     1       0.539   0.483   0.963  0.00  0.00    +0.277 C 
ATOM     19  O   UNL     1       0.376  -0.926   0.793  0.00  0.00    -0.491 OA
ENDBRANCH  12  19
BRANCH  17  20
ATOM     20  O   UNL     1      -0.079  -3.619   0.458  0.00  0.00    -0.491 OA
ATOM     21  C   UNL     1      -0.388  -5.003   0.281  0.00  0.00    +0.277 C 
ENDBRANCH  17  20
ENDBRANCH   1  15
BRANCH  10  22
ATOM     22  C   UNL     1      -9.328  -1.619   3.573  0.00  0.00    -0.003 C 
BRANCH  22  23
ATOM     23  N   UNL     1     -10.454  -2.446   3.119  0.00  0.00    +0.388 N 
ATOM     24  H   UNL     1     -10.594  -2.311   2.129  0.00  0.00    -0.081 HD
BRANCH  23  25
ATOM     25  C   UNL     1     -11.671  -2.055   3.844  0.00  0.00    -0.068 C 
ATOM     26  C   UNL     1     -12.950  -1.867   3.026  0.00  0.00    -0.017 C 
ATOM     27  C   UNL     1     -12.221  -0.649   3.596  0.00  0.00    -0.017 C 
ENDBRANCH  23  25
BRANCH  23  28
ATOM     28  C   UNL     1     -10.160  -3.861   3.383  0.00  0.00    -0.046 C 
BRANCH  28  29
ATOM     29  C   UNL     1     -11.275  -4.731   2.800  0.00  0.00    +0.098 C 
BRANCH  29  30
ATOM     30  O   UNL     1     -11.282  -4.606   1.377  0.00  0.00    -0.394 OA
ATOM     31  H   UNL     1     -10.456  -4.878   0.954  0.00  0.00    +0.210 HD
ENDBRANCH  29  30
BRANCH  29  32
ATOM     32  C   UNL     1     -11.034  -6.193   3.182  0.00  0.00    +0.033 C 
BRANCH  32  33
ATOM     33  C   UNL     1     -12.211  -7.045   2.706  0.00  0.00    +0.029 C 
BRANCH  33  34
ATOM     34  C   UNL     1     -11.974  -8.485   3.082  0.00  0.00    -0.034 C 
ATOM     35  C   UNL     1     -12.868  -9.135   3.785  0.00  0.00    +0.004 C 
ENDBRANCH  33  34
ENDBRANCH  32  33
ENDBRANCH  29  32
ENDBRANCH  28  29
ENDBRANCH  23  28
ENDBRANCH  22  23
ENDBRANCH  10  22
TORSDOF 12
