REMARK  Name = ZINC39449515
REMARK  6 active torsions:
REMARK  status: ('A' for Active; 'I' for Inactive)
REMARK    1  A    between atoms: C_4  and  O_7
REMARK    2  A    between atoms: O_7  and  S_8
REMARK    3  A    between atoms: S_8  and  N_11
REMARK    4  A    between atoms: C_19  and  O_22
REMARK    5  A    between atoms: C_24  and  C_29
REMARK    6  A    between atoms: C_34  and  O_35
REMARK                            x       y       z     vdW  Elec       q    Type
REMARK                         _______ _______ _______ _____ _____    ______ ____
ROOT
ATOM      1  N   UNL     1       3.321  -1.601   1.729  0.00  0.00    -0.141 N 
ATOM      2  C   UNL     1       2.058  -1.489   2.297  0.00  0.00    +0.137 A 
ATOM      3  C   UNL     1       1.350  -2.612   2.683  0.00  0.00    +0.083 A 
ATOM      4  C   UNL     1       1.941  -3.945   2.502  0.00  0.00    +0.099 A 
ATOM      5  C   UNL     1       3.227  -4.030   1.924  0.00  0.00    +0.072 A 
ATOM      6  C   UNL     1       3.913  -2.792   1.529  0.00  0.00    +0.283 A 
ATOM      7  O   UNL     1       5.019  -2.845   1.023  0.00  0.00    -0.265 OA
ATOM      8  C   UNL     1       3.810  -5.284   1.741  0.00  0.00    +0.062 A 
ATOM      9  C   UNL     1       3.089  -6.402   2.141  0.00  0.00    +0.136 A 
ATOM     10  C   UNL     1       1.825  -6.238   2.704  0.00  0.00    +0.156 A 
ATOM     11  N   UNL     1       1.295  -5.045   2.866  0.00  0.00    -0.249 NA
ATOM     12  N   UNL     1       0.089  -2.478   3.232  0.00  0.00    -0.333 N 
ATOM     13  C   UNL     1      -0.703  -1.290   2.875  0.00  0.00    +0.112 C 
ATOM     14  C   UNL     1       0.150  -0.046   3.143  0.00  0.00    +0.108 C 
ATOM     15  C   UNL     1       1.492  -0.207   2.477  0.00  0.00    +0.185 C 
ATOM     16  O   UNL     1       2.092   0.775   2.090  0.00  0.00    -0.290 OA
ATOM     17  H   UNL     1      -0.264  -3.148   3.838  0.00  0.00    +0.147 HD
ENDROOT
BRANCH  13  18
ATOM     18  C   UNL     1      -1.075  -1.348   1.416  0.00  0.00    +0.014 A 
ATOM     19  C   UNL     1      -0.391  -2.189   0.560  0.00  0.00    +0.009 A 
ATOM     20  C   UNL     1      -0.731  -2.242  -0.778  0.00  0.00    +0.001 A 
ATOM     21  C   UNL     1      -1.758  -1.454  -1.265  0.00  0.00    +0.004 A 
ATOM     22  C   UNL     1      -2.446  -0.611  -0.413  0.00  0.00    +0.046 A 
ATOM     23  C   UNL     1      -2.109  -0.560   0.932  0.00  0.00    +0.122 A 
BRANCH  23  24
ATOM     24  O   UNL     1      -2.788   0.264   1.773  0.00  0.00    -0.506 OA
ATOM     25  H   UNL     1      -2.410   1.151   1.844  0.00  0.00    +0.292 HD
ENDBRANCH  23  24
ENDBRANCH  13  18
BRANCH   1  26
ATOM     26  S   UNL     1       4.121  -0.223   1.278  0.00  0.00    +0.224 S 
ATOM     27  O   UNL     1       3.258   0.476   0.391  0.00  0.00    -0.113 OA
ATOM     28  O   UNL     1       5.435  -0.619   0.908  0.00  0.00    -0.113 OA
BRANCH  26  29
ATOM     29  O   UNL     1       4.262   0.644   2.521  0.00  0.00    -0.329 OA
BRANCH  29  33
ATOM     30  C   UNL     1       7.041  -0.749   5.233  0.00  0.00    +0.000 A 
ATOM     31  C   UNL     1       7.424   0.146   4.250  0.00  0.00    +0.004 A 
ATOM     32  C   UNL     1       6.495   0.613   3.341  0.00  0.00    +0.048 A 
ATOM     33  C   UNL     1       5.178   0.184   3.414  0.00  0.00    +0.158 A 
ATOM     34  C   UNL     1       4.796  -0.713   4.401  0.00  0.00    +0.048 A 
ATOM     35  C   UNL     1       5.729  -1.178   5.308  0.00  0.00    +0.004 A 
ENDBRANCH  29  33
ENDBRANCH  26  29
ENDBRANCH   1  26
BRANCH   9  36
ATOM     36  O   UNL     1       3.612  -7.646   1.984  0.00  0.00    -0.505 OA
ATOM     37  H   UNL     1       4.128  -7.954   2.741  0.00  0.00    +0.292 HD
ENDBRANCH   9  36
TORSDOF 6
