REMARK  Name = ZINC54617619
REMARK  14 active torsions:
REMARK  status: ('A' for Active; 'I' for Inactive)
REMARK    1  A    between atoms: C_1  and  C_2
REMARK    2  A    between atoms: C_2  and  C_3
REMARK    3  A    between atoms: C_3  and  S_4
REMARK    4  A    between atoms: S_4  and  C_5
REMARK    5  A    between atoms: C_10  and  C_27
REMARK    6  A    between atoms: C_12  and  C_16
REMARK    7  A    between atoms: C_13  and  C_15
REMARK    8  A    between atoms: N_18  and  C_19
REMARK    9  A    between atoms: C_23  and  C_26
REMARK   10  A    between atoms: C_24  and  C_25
REMARK   11  A    between atoms: C_29  and  N_36
REMARK   12  A    between atoms: C_30  and  O_35
REMARK   13  A    between atoms: C_31  and  O_33
REMARK   14  A    between atoms: O_33  and  C_34
REMARK                            x       y       z     vdW  Elec       q    Type
REMARK                         _______ _______ _______ _____ _____    ______ ____
ROOT
ATOM      1  C   UNL     1       2.726  -3.476  -2.314  0.00  0.00    +0.210 A 
ATOM      2  N   UNL     1       2.595  -2.656  -3.368  0.00  0.00    -0.187 NA
ATOM      3  C   UNL     1       2.956  -3.283  -4.455  0.00  0.00    +0.219 A 
ATOM      4  N   UNL     1       3.338  -4.537  -4.111  0.00  0.00    -0.220 N 
ATOM      5  N   UNL     1       3.184  -4.638  -2.729  0.00  0.00    -0.141 NA
ATOM      6  C   UNL     1       3.818  -5.528  -5.071  0.00  0.00    +0.177 C 
ATOM      7  C   UNL     1       3.536  -5.047  -6.470  0.00  0.00    +0.060 C 
ATOM      8  C   UNL     1       3.156  -3.792  -6.750  0.00  0.00    +0.018 C 
ATOM      9  N   UNL     1       2.983  -2.844  -5.771  0.00  0.00    -0.287 N 
ATOM     10  C   UNL     1       2.911  -3.409  -8.187  0.00  0.00    +0.061 C 
ATOM     11  H   UNL     1       2.884  -1.905  -5.992  0.00  0.00    +0.155 HD
ENDROOT
BRANCH   6  12
ATOM     12  C   UNL     1       5.302  -5.720  -4.896  0.00  0.00    -0.013 A 
ATOM     13  C   UNL     1       6.164  -4.657  -5.093  0.00  0.00    +0.042 A 
ATOM     14  C   UNL     1       7.526  -4.828  -4.934  0.00  0.00    +0.171 A 
ATOM     15  C   UNL     1       8.031  -6.068  -4.574  0.00  0.00    +0.189 A 
ATOM     16  C   UNL     1       7.164  -7.138  -4.375  0.00  0.00    +0.164 A 
ATOM     17  C   UNL     1       5.799  -6.958  -4.532  0.00  0.00    +0.055 A 
BRANCH  14  18
ATOM     18  N   UNL     1       8.445  -3.688  -5.147  0.00  0.00    +0.060 N 
ATOM     19  O   UNL     1       8.005  -2.607  -5.460  0.00  0.00    -0.126 OA
ATOM     20  O   UNL     1       9.637  -3.838  -5.007  0.00  0.00    -0.126 OA
ENDBRANCH  14  18
BRANCH  16  21
ATOM     21  O   UNL     1       7.655  -8.356  -4.023  0.00  0.00    -0.491 OA
ATOM     22  C   UNL     1       6.716  -9.428  -3.919  0.00  0.00    +0.277 C 
ENDBRANCH  16  21
BRANCH  15  23
ATOM     23  O   UNL     1       9.371  -6.238  -4.417  0.00  0.00    -0.502 OA
ATOM     24  H   UNL     1       9.686  -6.070  -3.519  0.00  0.00    +0.292 HD
ENDBRANCH  15  23
ENDBRANCH   6  12
BRANCH   7  25
ATOM     25  C   UNL     1       3.679  -5.963  -7.539  0.00  0.00    +0.248 C 
ATOM     26  O   UNL     1       2.813  -6.793  -7.749  0.00  0.00    -0.270 OA
ATOM     27  N   UNL     1       4.773  -5.916  -8.325  0.00  0.00    -0.281 N 
ATOM     28  H   UNL     1       5.425  -5.208  -8.206  0.00  0.00    +0.155 HD
BRANCH  27  29
ATOM     29  C   UNL     1       4.968  -6.889  -9.310  0.00  0.00    +0.037 A 
ATOM     30  C   UNL     1       3.904  -7.296 -10.106  0.00  0.00    +0.023 A 
ATOM     31  C   UNL     1       4.100  -8.257 -11.078  0.00  0.00    +0.002 A 
ATOM     32  C   UNL     1       5.353  -8.813 -11.261  0.00  0.00    +0.004 A 
ATOM     33  C   UNL     1       6.414  -8.409 -10.471  0.00  0.00    -0.046 A 
ATOM     34  C   UNL     1       6.226  -7.445  -9.500  0.00  0.00    -0.026 A 
ATOM     35  C   UNL     1       7.384  -7.001  -8.644  0.00  0.00    +0.046 C 
ATOM     36  C   UNL     1       7.778  -9.018 -10.673  0.00  0.00    +0.044 C 
ENDBRANCH  27  29
ENDBRANCH   7  25
BRANCH   1  37
ATOM     37  S   UNL     1       2.354  -3.061  -0.643  0.00  0.00    -0.084 S 
BRANCH  37  38
ATOM     38  C   UNL     1       1.775  -1.344  -0.735  0.00  0.00    +0.077 C 
BRANCH  38  40
ATOM     39  C   UNL     1       0.924   0.596   0.589  0.00  0.00    +0.004 C 
ATOM     40  C   UNL     1       1.413  -0.852   0.667  0.00  0.00    +0.008 C 
ENDBRANCH  38  40
ENDBRANCH  37  38
ENDBRANCH   1  37
TORSDOF 9
