REMARK  Name = ZINC12654138
REMARK  7 active torsions:
REMARK  status: ('A' for Active; 'I' for Inactive)
REMARK    1  A    between atoms: C_4  and  C_7
REMARK    2  A    between atoms: C_8  and  C_23
REMARK    3  A    between atoms: N_10  and  C_13
REMARK    4  A    between atoms: C_11  and  N_12
REMARK    5  A    between atoms: C_18  and  C_19
REMARK    6  A    between atoms: C_23  and  S_24
REMARK    7  A    between atoms: S_24  and  C_25
REMARK                            x       y       z     vdW  Elec       q    Type
REMARK                         _______ _______ _______ _____ _____    ______ ____
ROOT
ATOM      1  C   UNL     1       0.006   1.356   0.269  0.00  0.00    +0.045 A 
ATOM      2  C   UNL     1       1.321   1.816   0.061  0.00  0.00    +0.083 A 
ATOM      3  N   UNL     1       2.077   0.790  -0.226  0.00  0.00    -0.168 NA
ATOM      4  N   UNL     1       1.293  -0.370  -0.216  0.00  0.00    -0.218 N 
ATOM      5  C   UNL     1       0.016  -0.016   0.089  0.00  0.00    +0.128 A 
ENDROOT
BRANCH   1   9
ATOM      6  C   UNL     1      -3.372   3.745   1.250  0.00  0.00    +0.000 A 
ATOM      7  C   UNL     1      -2.906   2.806   2.153  0.00  0.00    +0.001 A 
ATOM      8  C   UNL     1      -1.810   2.028   1.840  0.00  0.00    +0.008 A 
ATOM      9  C   UNL     1      -1.172   2.189   0.611  0.00  0.00    -0.013 A 
ATOM     10  C   UNL     1      -1.643   3.140  -0.293  0.00  0.00    +0.008 A 
ATOM     11  C   UNL     1      -2.743   3.909   0.029  0.00  0.00    +0.001 A 
ENDBRANCH   1   9
BRANCH   4  12
ATOM     12  C   UNL     1       1.746  -1.671  -0.477  0.00  0.00    +0.079 A 
ATOM     13  C   UNL     1       1.132  -2.437  -1.459  0.00  0.00    +0.028 A 
ATOM     14  C   UNL     1       1.581  -3.718  -1.714  0.00  0.00    +0.002 A 
ATOM     15  C   UNL     1       2.641  -4.237  -0.993  0.00  0.00    +0.001 A 
ATOM     16  C   UNL     1       3.254  -3.476  -0.015  0.00  0.00    +0.014 A 
ATOM     17  C   UNL     1       2.813  -2.192   0.241  0.00  0.00    +0.080 A 
BRANCH  17  18
ATOM     18  C   UNL     1       3.486  -1.361   1.303  0.00  0.00    +0.419 C 
ATOM     19  F   UNL     1       4.525  -2.098   1.883  0.00  0.00    -0.166 F 
ATOM     20  F   UNL     1       4.005  -0.198   0.725  0.00  0.00    -0.166 F 
ATOM     21  F   UNL     1       2.553  -1.018   2.287  0.00  0.00    -0.166 F 
ENDBRANCH  17  18
ENDBRANCH   4  12
BRANCH   5  22
ATOM     22  N   UNL     1      -1.072  -0.871   0.201  0.00  0.00    -0.343 N 
ATOM     23  H   UNL     1      -1.961  -0.508   0.341  0.00  0.00    +0.144 HD
ATOM     24  H   UNL     1      -0.944  -1.830   0.138  0.00  0.00    +0.144 HD
ENDBRANCH   5  22
BRANCH   2  25
ATOM     25  C   UNL     1       1.779   3.249   0.153  0.00  0.00    +0.135 C 
BRANCH  25  26
ATOM     26  S   UNL     1       2.300   3.608   1.849  0.00  0.00    -0.082 S 
BRANCH  26  27
ATOM     27  C   UNL     1       2.770   5.297   1.673  0.00  0.00    +0.168 A 
ATOM     28  N   UNL     1       3.254   6.086   2.678  0.00  0.00    -0.333 N 
ATOM     29  H   UNL     1       3.401   5.812   3.628  0.00  0.00    +0.168 HD
ATOM     30  C   UNL     1       3.502   7.336   2.135  0.00  0.00    +0.067 A 
ATOM     31  C   UNL     1       3.989   8.528   2.650  0.00  0.00    +0.028 A 
ATOM     32  C   UNL     1       4.124   9.627   1.827  0.00  0.00    +0.002 A 
ATOM     33  C   UNL     1       3.775   9.549   0.487  0.00  0.00    +0.002 A 
ATOM     34  C   UNL     1       3.289   8.373  -0.041  0.00  0.00    +0.030 A 
ATOM     35  C   UNL     1       3.147   7.251   0.779  0.00  0.00    +0.090 A 
ATOM     36  N   UNL     1       2.713   5.982   0.558  0.00  0.00    -0.222 NA
ENDBRANCH  26  27
ENDBRANCH  25  26
ENDBRANCH   2  25
TORSDOF 7
