REMARK  Name = ZINC66766652
REMARK  5 active torsions:
REMARK  status: ('A' for Active; 'I' for Inactive)
REMARK    1  A    between atoms: C_1  and  C_2
REMARK    2  A    between atoms: C_2  and  C_3
REMARK    3  A    between atoms: C_3  and  C_5
REMARK    4  A    between atoms: C_3  and  N_15
REMARK    5  A    between atoms: C_16  and  C_18
REMARK                            x       y       z     vdW  Elec       q    Type
REMARK                         _______ _______ _______ _____ _____    ______ ____
ROOT
ATOM      1  N   UNL     1      -0.008  -0.140   2.444  0.00  0.00    -0.300 N 
ATOM      2  C   UNL     1       0.164   1.077   2.997  0.00  0.00    +0.262 C 
ATOM      3  O   UNL     1       0.943   1.867   2.498  0.00  0.00    -0.269 OA
ATOM      4  H   UNL     1      -0.629  -0.770   2.842  0.00  0.00    +0.150 HD
ENDROOT
BRANCH   2   5
ATOM      5  C   UNL     1      -0.588   1.448   4.203  0.00  0.00    +0.117 A 
ATOM      6  C   UNL     1      -0.505   2.643   4.848  0.00  0.00    +0.055 A 
ATOM      7  C   UNL     1      -1.386   2.597   5.956  0.00  0.00    +0.014 A 
ATOM      8  C   UNL     1      -1.717   3.515   6.961  0.00  0.00    +0.011 A 
ATOM      9  C   UNL     1      -2.626   3.175   7.920  0.00  0.00    +0.001 A 
ATOM     10  C   UNL     1      -3.228   1.923   7.911  0.00  0.00    +0.002 A 
ATOM     11  C   UNL     1      -2.920   1.003   6.934  0.00  0.00    +0.026 A 
ATOM     12  C   UNL     1      -1.996   1.327   5.945  0.00  0.00    +0.048 A 
ATOM     13  N   UNL     1      -1.499   0.642   4.861  0.00  0.00    -0.350 N 
ATOM     14  H   UNL     1      -1.744  -0.260   4.602  0.00  0.00    +0.166 HD
ATOM     15 BR   UNL     1       0.590   4.104   4.353  0.00  0.00    -0.047 Br
ENDBRANCH   2   5
BRANCH   1  16
ATOM     16  C   UNL     1       0.742  -0.511   1.242  0.00  0.00    +0.139 C 
BRANCH  16  17
ATOM     17  C   UNL     1       0.870  -2.011   1.172  0.00  0.00    +0.129 A 
ATOM     18  N   UNL     1       2.041  -2.698   1.262  0.00  0.00    -0.340 N 
ATOM     19  H   UNL     1       2.924  -2.316   1.381  0.00  0.00    +0.167 HD
ATOM     20  C   UNL     1       1.738  -4.041   1.154  0.00  0.00    +0.066 A 
ATOM     21  C   UNL     1       2.491  -5.206   1.172  0.00  0.00    +0.028 A 
ATOM     22  C   UNL     1       1.865  -6.427   1.035  0.00  0.00    +0.002 A 
ATOM     23  C   UNL     1       0.488  -6.497   0.879  0.00  0.00    +0.002 A 
ATOM     24  C   UNL     1      -0.270  -5.361   0.859  0.00  0.00    +0.030 A 
ATOM     25  C   UNL     1       0.343  -4.112   0.997  0.00  0.00    +0.089 A 
ATOM     26  N   UNL     1      -0.124  -2.837   1.022  0.00  0.00    -0.231 NA
ENDBRANCH  16  17
BRANCH  16  28
ATOM     27  C   UNL     1      -0.019   1.526   0.010  0.00  0.00    +0.006 C 
ATOM     28  C   UNL     1       0.002  -0.004   0.002  0.00  0.00    +0.027 C 
ENDBRANCH  16  28
ENDBRANCH   1  16
TORSDOF 4
