REMARK  Name = ZINC03623111
REMARK  5 active torsions:
REMARK  status: ('A' for Active; 'I' for Inactive)
REMARK    1  A    between atoms: C_4  and  C_7
REMARK    2  A    between atoms: C_7  and  C_8
REMARK    3  A    between atoms: N_10  and  C_11
REMARK    4  A    between atoms: C_11  and  C_30
REMARK    5  A    between atoms: N_19  and  C_24
REMARK                            x       y       z     vdW  Elec       q    Type
REMARK                         _______ _______ _______ _____ _____    ______ ____
ROOT
ATOM      1  C   UNL     1      -2.662   7.684  -0.195  0.00  0.00    +0.240 C 
ATOM      2  C   UNL     1      -1.224   7.225  -0.149  0.00  0.00    +0.097 A 
ATOM      3  C   UNL     1      -0.003   7.907  -0.066  0.00  0.00    +0.262 A 
ATOM      4  O   UNL     1       0.021   9.124  -0.017  0.00  0.00    -0.267 OA
ATOM      5  N   UNL     1       1.147   7.201  -0.043  0.00  0.00    -0.274 N 
ATOM      6  H   UNL     1       2.024   7.678   0.013  0.00  0.00    +0.173 HD
ATOM      7  C   UNL     1       1.117   5.857  -0.093  0.00  0.00    +0.335 A 
ATOM      8  O   UNL     1       2.162   5.237  -0.066  0.00  0.00    -0.246 OA
ATOM      9  N   UNL     1      -0.044   5.185  -0.177  0.00  0.00    -0.249 N 
ATOM     10  C   UNL     1      -1.247   5.863  -0.204  0.00  0.00    +0.125 A 
ATOM     11  N   UNL     1      -2.537   5.396  -0.280  0.00  0.00    -0.269 N 
ATOM     12  C   UNL     1      -3.444   6.388  -0.282  0.00  0.00    +0.256 C 
ATOM     13  O   UNL     1      -4.650   6.270  -0.341  0.00  0.00    -0.272 OA
ATOM     14  H   UNL     1      -2.767   4.455  -0.329  0.00  0.00    +0.156 HD
ENDROOT
BRANCH   9  15
ATOM     15  C   UNL     1      -0.035   3.785  -0.232  0.00  0.00    +0.053 A 
ATOM     16  C   UNL     1      -0.549   3.044   0.823  0.00  0.00    +0.026 A 
ATOM     17  C   UNL     1      -0.538   1.664   0.767  0.00  0.00    +0.002 A 
ATOM     18  C   UNL     1      -0.014   1.021  -0.340  0.00  0.00    +0.000 A 
ATOM     19  C   UNL     1       0.504   1.756  -1.390  0.00  0.00    +0.002 A 
ATOM     20  C   UNL     1       0.490   3.136  -1.341  0.00  0.00    +0.026 A 
ENDBRANCH   9  15
BRANCH   1  23
ATOM     21  C   UNL     1      -2.831   7.839   2.231  0.00  0.00    +0.219 C 
ATOM     22  O   UNL     1      -2.478   6.681   2.303  0.00  0.00    -0.275 OA
ATOM     23  N   UNL     1      -3.010   8.415   1.026  0.00  0.00    -0.290 N 
ATOM     24  H   UNL     1      -3.369   9.315   0.967  0.00  0.00    +0.150 HD
BRANCH  21  25
ATOM     25  C   UNL     1      -3.069   8.634   3.489  0.00  0.00    +0.131 C 
BRANCH  25  29
ATOM     26  C   UNL     1      -2.308   6.171   6.895  0.00  0.00    +0.000 A 
ATOM     27  C   UNL     1      -1.286   6.918   6.340  0.00  0.00    +0.000 A 
ATOM     28  C   UNL     1      -1.532   7.715   5.238  0.00  0.00    +0.004 A 
ATOM     29  C   UNL     1      -2.800   7.765   4.691  0.00  0.00    -0.039 A 
ATOM     30  C   UNL     1      -3.824   7.022   5.248  0.00  0.00    +0.004 A 
ATOM     31  C   UNL     1      -3.577   6.221   6.348  0.00  0.00    +0.000 A 
ENDBRANCH  25  29
ENDBRANCH  21  25
ENDBRANCH   1  23
BRANCH   1  32
ATOM     32  C   UNL     1      -2.913   8.548  -1.432  0.00  0.00    +0.424 C 
ATOM     33  F   UNL     1      -2.708   7.782  -2.585  0.00  0.00    -0.167 F 
ATOM     34  F   UNL     1      -4.229   9.020  -1.413  0.00  0.00    -0.167 F 
ATOM     35  F   UNL     1      -2.029   9.632  -1.431  0.00  0.00    -0.167 F 
ENDBRANCH   1  32
TORSDOF 5
