REMARK  Name = ZINC41586293
REMARK  9 active torsions:
REMARK  status: ('A' for Active; 'I' for Inactive)
REMARK    1  A    between atoms: C_1  and  C_2
REMARK    2  A    between atoms: C_2  and  O_3
REMARK    3  A    between atoms: O_3  and  C_4
REMARK    4  A    between atoms: C_4  and  C_6
REMARK    5  A    between atoms: N_9  and  C_12
REMARK    6  A    between atoms: C_12  and  C_13
REMARK    7  A    between atoms: C_14  and  O_35
REMARK    8  A    between atoms: C_22  and  C_24
REMARK    9  A    between atoms: C_26  and  C_29
REMARK                            x       y       z     vdW  Elec       q    Type
REMARK                         _______ _______ _______ _____ _____    ______ ____
ROOT
ATOM      1  C   UNL     1      -5.976  -6.238   1.600  0.00  0.00    +0.020 A 
ATOM      2  C   UNL     1      -5.942  -7.042   0.472  0.00  0.00    +0.122 A 
ATOM      3  C   UNL     1      -5.775  -8.421   0.592  0.00  0.00    +0.046 A 
ATOM      4  C   UNL     1      -5.657  -8.999   1.822  0.00  0.00    +0.015 A 
ATOM      5  C   UNL     1      -5.714  -8.204   2.976  0.00  0.00    +0.019 A 
ATOM      6  C   UNL     1      -5.845  -6.807   2.856  0.00  0.00    +0.144 A 
ATOM      7  O   UNL     1      -5.825  -6.025   3.963  0.00  0.00    -0.421 OA
ATOM      8  C   UNL     1      -6.239  -6.593   5.120  0.00  0.00    +0.347 A 
ATOM      9  O   UNL     1      -6.899  -5.965   5.928  0.00  0.00    -0.244 OA
ATOM     10  C   UNL     1      -5.864  -7.996   5.368  0.00  0.00    +0.092 A 
ATOM     11  C   UNL     1      -5.627  -8.796   4.263  0.00  0.00    +0.029 A 
ENDROOT
BRANCH  10  12
ATOM     12  C   UNL     1      -5.756  -8.530   6.739  0.00  0.00    +0.116 A 
ATOM     13  N   UNL     1      -5.960  -7.917   7.896  0.00  0.00    -0.239 NA
ATOM     14  C   UNL     1      -5.818  -8.554   9.043  0.00  0.00    +0.079 A 
ATOM     15  C   UNL     1      -5.451  -9.875   9.038  0.00  0.00    +0.075 A 
ATOM     16  S   UNL     1      -5.323 -10.177   7.280  0.00  0.00    -0.075 S 
BRANCH  14  17
ATOM     17  C   UNL     1      -6.051  -7.847  10.326  0.00  0.00    +0.001 A 
ATOM     18  C   UNL     1      -5.894  -8.522  11.535  0.00  0.00    +0.010 A 
ATOM     19  C   UNL     1      -6.112  -7.859  12.726  0.00  0.00    +0.001 A 
ATOM     20  C   UNL     1      -6.488  -6.527  12.720  0.00  0.00    +0.000 A 
ATOM     21  C   UNL     1      -6.646  -5.853  11.523  0.00  0.00    +0.001 A 
ATOM     22  C   UNL     1      -6.424  -6.504  10.326  0.00  0.00    +0.010 A 
ENDBRANCH  14  17
ENDBRANCH  10  12
BRANCH   2  23
ATOM     23  O   UNL     1      -6.072  -6.484  -0.758  0.00  0.00    -0.506 OA
ATOM     24  H   UNL     1      -5.234  -6.220  -1.161  0.00  0.00    +0.292 HD
ENDBRANCH   2  23
BRANCH   1  25
ATOM     25  C   UNL     1      -6.150  -4.747   1.460  0.00  0.00    -0.036 C 
BRANCH  25  29
ATOM     26  C   UNL     1      -2.881  -2.427   0.017  0.00  0.00    +0.094 C 
ATOM     27  C   UNL     1      -3.621  -1.980   1.281  0.00  0.00    -0.004 C 
ATOM     28  C   UNL     1      -4.996  -2.651   1.324  0.00  0.00    -0.078 C 
ATOM     29  N   UNL     1      -4.832  -4.110   1.340  0.00  0.00    +0.383 N 
ATOM     30  C   UNL     1      -4.188  -4.552   0.098  0.00  0.00    -0.078 C 
ATOM     31  C   UNL     1      -2.782  -3.955   0.007  0.00  0.00    -0.004 C 
ATOM     32  H   UNL     1      -4.260  -4.374   2.128  0.00  0.00    -0.081 HD
BRANCH  26  33
ATOM     33  C   UNL     1      -1.496  -1.832   0.006  0.00  0.00    +0.310 C 
ATOM     34  O   UNL     1      -0.528  -2.555  -0.007  0.00  0.00    -0.251 OA
BRANCH  33  35
ATOM     35  O   UNL     1      -1.339  -0.499   0.012  0.00  0.00    -0.465 OA
BRANCH  35  37
ATOM     36  C   UNL     1      -0.019   1.526   0.010  0.00  0.00    +0.048 C 
ATOM     37  C   UNL     1       0.002  -0.004   0.002  0.00  0.00    +0.229 C 
ENDBRANCH  35  37
ENDBRANCH  33  35
ENDBRANCH  26  33
ENDBRANCH  25  29
ENDBRANCH   1  25
TORSDOF 8
