REMARK  Name = ZINC39686046
REMARK  9 active torsions:
REMARK  status: ('A' for Active; 'I' for Inactive)
REMARK    1  A    between atoms: C_1  and  C_2
REMARK    2  A    between atoms: C_2  and  C_3
REMARK    3  A    between atoms: C_2  and  C_4
REMARK    4  A    between atoms: C_9  and  N_12
REMARK    5  A    between atoms: C_13  and  C_15
REMARK    6  A    between atoms: C_26  and  C_28
REMARK    7  A    between atoms: C_32  and  N_34
REMARK    8  A    between atoms: N_34  and  C_35
REMARK    9  A    between atoms: N_34  and  C_36
REMARK                            x       y       z     vdW  Elec       q    Type
REMARK                         _______ _______ _______ _____ _____    ______ ____
ROOT
ATOM      1  C   UNL     1      -4.304  -6.730  -2.780  0.00  0.00    +0.100 C 
ATOM      2  C   UNL     1      -4.746  -6.387  -4.220  0.00  0.00    +0.121 C 
ATOM      3  N   UNL     1      -5.701  -7.461  -4.584  0.00  0.00    -0.296 N 
ATOM      4  C   UNL     1      -6.482  -7.695  -3.345  0.00  0.00    +0.115 C 
ATOM      5  C   UNL     1      -5.446  -7.587  -2.209  0.00  0.00    -0.004 C 
ATOM      6  C   UNL     1      -6.065  -6.902  -0.995  0.00  0.00    -0.010 C 
ATOM      7  C   UNL     1      -7.158  -7.800  -0.409  0.00  0.00    -0.082 C 
ATOM      8  N   UNL     1      -6.579  -9.093  -0.025  0.00  0.00    +0.379 N 
ATOM      9  C   UNL     1      -6.069  -9.787  -1.214  0.00  0.00    -0.082 C 
ATOM     10  C   UNL     1      -4.929  -8.973  -1.833  0.00  0.00    -0.010 C 
ATOM     11  C   UNL     1      -5.830  -8.084  -5.772  0.00  0.00    +0.247 C 
ATOM     12  O   UNL     1      -5.029  -7.869  -6.661  0.00  0.00    -0.270 OA
ATOM     13  H   UNL     1      -5.822  -8.941   0.625  0.00  0.00    -0.086 HD
ATOM     14  H   UNL     1      -7.287  -9.660   0.416  0.00  0.00    -0.086 HD
ENDROOT
BRANCH  11  15
ATOM     15  C   UNL     1      -6.944  -9.030  -5.993  0.00  0.00    +0.039 A 
ATOM     16  C   UNL     1      -8.074  -8.986  -5.174  0.00  0.00    +0.013 A 
ATOM     17  C   UNL     1      -9.113  -9.869  -5.383  0.00  0.00    +0.003 A 
ATOM     18  C   UNL     1      -9.041 -10.800  -6.402  0.00  0.00    +0.023 A 
ATOM     19  C   UNL     1      -7.921 -10.852  -7.224  0.00  0.00    +0.030 A 
ATOM     20  C   UNL     1      -6.874  -9.965  -7.026  0.00  0.00    +0.036 A 
BRANCH  19  21
ATOM     21  N   UNL     1      -7.853 -11.795  -8.252  0.00  0.00    -0.336 N 
ATOM     22  C   UNL     1      -9.012 -12.640  -8.550  0.00  0.00    +0.129 C 
ATOM     23  C   UNL     1      -6.622 -11.940  -9.033  0.00  0.00    +0.129 C 
ENDBRANCH  19  21
ENDBRANCH  11  15
BRANCH   1  25
ATOM     24  N   UNL     1      -3.346  -5.472  -0.877  0.00  0.00    -0.312 N 
ATOM     25  C   UNL     1      -4.137  -5.471  -1.969  0.00  0.00    +0.218 C 
ATOM     26  O   UNL     1      -4.713  -4.456  -2.298  0.00  0.00    -0.275 OA
ATOM     27  H   UNL     1      -2.885  -6.284  -0.613  0.00  0.00    +0.149 HD
BRANCH  24  33
ATOM     28  C   UNL     1      -0.658  -1.937   2.180  0.00  0.00    +0.218 C 
ATOM     29  O   UNL     1       0.082  -1.143   1.640  0.00  0.00    -0.275 OA
ATOM     30  N   UNL     1      -1.716  -2.436   1.511  0.00  0.00    -0.301 N 
ATOM     31  C   UNL     1      -2.668  -3.334   2.178  0.00  0.00    +0.109 C 
ATOM     32  C   UNL     1      -2.803  -4.614   1.348  0.00  0.00    +0.041 C 
ATOM     33  C   UNL     1      -3.184  -4.248  -0.088  0.00  0.00    +0.076 C 
ATOM     34  C   UNL     1      -2.082  -3.386  -0.707  0.00  0.00    +0.041 C 
ATOM     35  C   UNL     1      -1.942  -2.087   0.102  0.00  0.00    +0.109 C 
BRANCH  28  37
ATOM     36  C   UNL     1       0.462  -3.635   3.599  0.00  0.00    +0.017 C 
ATOM     37  C   UNL     1      -0.394  -2.367   3.601  0.00  0.00    +0.069 C 
ATOM     38  C   UNL     1       0.347  -1.252   4.341  0.00  0.00    +0.017 C 
ENDBRANCH  28  37
ENDBRANCH  24  33
ENDBRANCH   1  25
TORSDOF 5
