REMARK  Name = ZINC00872644
REMARK  6 active torsions:
REMARK  status: ('A' for Active; 'I' for Inactive)
REMARK    1  A    between atoms: C_1  and  C_2
REMARK    2  A    between atoms: C_12  and  N_28
REMARK    3  A    between atoms: C_13  and  C_15
REMARK    4  A    between atoms: N_17  and  N_18
REMARK    5  A    between atoms: C_19  and  C_21
REMARK    6  A    between atoms: C_21  and  C_22
REMARK                            x       y       z     vdW  Elec       q    Type
REMARK                         _______ _______ _______ _____ _____    ______ ____
ROOT
ATOM      1  C   UNL     1       2.133  -4.662  -0.042  0.00  0.00    +0.046 C 
ATOM      2  C   UNL     1       0.722  -4.132  -0.025  0.00  0.00    -0.024 A 
ATOM      3  C   UNL     1      -0.331  -4.993  -0.019  0.00  0.00    +0.005 A 
ATOM      4  C   UNL     1      -1.644  -4.524  -0.004  0.00  0.00    +0.001 A 
ATOM      5  C   UNL     1      -1.909  -3.189   0.005  0.00  0.00    +0.010 A 
ATOM      6  C   UNL     1      -0.846  -2.266  -0.001  0.00  0.00    +0.001 A 
ATOM      7  C   UNL     1       0.490  -2.745  -0.017  0.00  0.00    +0.075 A 
ATOM      8  N   UNL     1       1.506  -1.878  -0.022  0.00  0.00    -0.239 NA
ATOM      9  C   UNL     1       1.300  -0.585  -0.013  0.00  0.00    +0.111 A 
ATOM     10  C   UNL     1       0.002  -0.004   0.002  0.00  0.00    +0.030 A 
ATOM     11  C   UNL     1      -1.091  -0.889   0.008  0.00  0.00    +0.022 A 
ATOM     12  C   UNL     1      -0.018   1.454   0.010  0.00  0.00    +0.053 A 
ATOM     13  C   UNL     1       1.183   2.124   0.002  0.00  0.00    +0.098 A 
ATOM     14  S   UNL     1       2.392   0.816  -0.016  0.00  0.00    -0.062 S 
ENDROOT
BRANCH  13  15
ATOM     15  C   UNL     1       1.405   3.523   0.008  0.00  0.00    +0.269 C 
ATOM     16  O   UNL     1       0.459   4.290   0.021  0.00  0.00    -0.268 OA
ATOM     17  N   UNL     1       2.664   4.006  -0.002  0.00  0.00    -0.230 N 
ATOM     18  H   UNL     1       3.417   3.395  -0.012  0.00  0.00    +0.173 HD
BRANCH  17  19
ATOM     19  N   UNL     1       2.884   5.389   0.004  0.00  0.00    -0.234 N 
ATOM     20  C   UNL     1       4.142   5.872  -0.006  0.00  0.00    +0.233 C 
ATOM     21  O   UNL     1       5.084   5.108  -0.019  0.00  0.00    -0.274 OA
ATOM     22  H   UNL     1       2.130   6.000   0.014  0.00  0.00    +0.173 HD
BRANCH  20  23
ATOM     23  C   UNL     1       4.378   7.360  -0.000  0.00  0.00    +0.132 C 
BRANCH  23  24
ATOM     24  C   UNL     1       5.861   7.633  -0.013  0.00  0.00    -0.039 A 
ATOM     25  C   UNL     1       6.551   7.758   1.178  0.00  0.00    +0.004 A 
ATOM     26  C   UNL     1       7.911   8.004   1.167  0.00  0.00    +0.000 A 
ATOM     27  C   UNL     1       8.579   8.135  -0.036  0.00  0.00    +0.000 A 
ATOM     28  C   UNL     1       7.888   8.016  -1.227  0.00  0.00    +0.000 A 
ATOM     29  C   UNL     1       6.529   7.765  -1.216  0.00  0.00    +0.004 A 
ENDBRANCH  23  24
ENDBRANCH  20  23
ENDBRANCH  17  19
ENDBRANCH  13  15
BRANCH  12  30
ATOM     30  N   UNL     1      -1.218   2.147   0.019  0.00  0.00    -0.356 N 
ATOM     31  H   UNL     1      -2.059   1.663   0.021  0.00  0.00    +0.142 HD
ATOM     32  H   UNL     1      -1.218   3.118   0.025  0.00  0.00    +0.142 HD
ENDBRANCH  12  30
TORSDOF 5
