REMARK  Name = ZINC14016918
REMARK  4 active torsions:
REMARK  status: ('A' for Active; 'I' for Inactive)
REMARK    1  A    between atoms: C_1  and  C_2
REMARK    2  A    between atoms: C_15  and  C_17
REMARK    3  A    between atoms: N_22  and  S_24
REMARK    4  A    between atoms: S_24  and  C_27
REMARK                            x       y       z     vdW  Elec       q    Type
REMARK                         _______ _______ _______ _____ _____    ______ ____
ROOT
ATOM      1  C   UNL     1       3.874  -4.892  -0.061  0.00  0.00    +0.073 C 
ATOM      2  C   UNL     1       2.671  -3.985  -0.045  0.00  0.00    +0.076 A 
ATOM      3  N   UNL     1       2.641  -2.682  -0.038  0.00  0.00    -0.243 NA
ATOM      4  C   UNL     1       1.488  -1.981  -0.023  0.00  0.00    +0.094 A 
ATOM      5  C   UNL     1       0.321  -2.780  -0.016  0.00  0.00    +0.040 A 
ATOM      6  S   UNL     1       0.991  -4.422  -0.032  0.00  0.00    -0.072 S 
ATOM      7  C   UNL     1      -0.940  -2.227  -0.001  0.00  0.00    +0.019 A 
ATOM      8  C   UNL     1      -1.118  -0.878   0.008  0.00  0.00    +0.030 A 
ATOM      9  C   UNL     1       0.002  -0.004   0.002  0.00  0.00    +0.082 A 
ATOM     10  C   UNL     1       1.276  -0.593  -0.013  0.00  0.00    +0.067 A 
ATOM     11  S   UNL     1       2.355   0.817  -0.016  0.00  0.00    -0.050 S 
ATOM     12  C   UNL     1       1.080   2.070   0.003  0.00  0.00    +0.166 A 
ATOM     13  N   UNL     1      -0.016   1.350   0.009  0.00  0.00    -0.224 NA
ATOM     14  N   UNL     1       1.216   3.450   0.009  0.00  0.00    -0.264 N 
ATOM     15  C   UNL     1       0.120   4.235   0.023  0.00  0.00    +0.223 C 
ATOM     16  O   UNL     1      -0.985   3.734   0.032  0.00  0.00    -0.275 OA
ATOM     17  H   UNL     1       2.099   3.851   0.002  0.00  0.00    +0.157 HD
ENDROOT
BRANCH  15  18
ATOM     18  C   UNL     1       0.267   5.735   0.029  0.00  0.00    +0.091 C 
ATOM     19  C   UNL     1       1.023   6.179  -1.225  0.00  0.00    +0.015 C 
ATOM     20  C   UNL     1       1.201   7.699  -1.204  0.00  0.00    +0.018 C 
ATOM     21  C   UNL     1      -0.175   8.371  -1.205  0.00  0.00    +0.109 C 
ATOM     22  N   UNL     1      -0.962   7.840  -0.083  0.00  0.00    -0.176 NA
ATOM     23  C   UNL     1      -1.120   6.385   0.042  0.00  0.00    +0.122 C 
BRANCH  22  24
ATOM     24  S   UNL     1      -1.657   8.862   1.019  0.00  0.00    +0.061 S 
ATOM     25  O   UNL     1      -1.837   8.112   2.212  0.00  0.00    -0.153 OA
ATOM     26  O   UNL     1      -0.907  10.068   0.983  0.00  0.00    -0.153 OA
BRANCH  24  27
ATOM     27  C   UNL     1      -3.268   9.254   0.422  0.00  0.00    +0.106 A 
ATOM     28  C   UNL     1      -3.454  10.351  -0.398  0.00  0.00    +0.030 A 
ATOM     29  C   UNL     1      -4.716  10.655  -0.871  0.00  0.00    +0.022 A 
ATOM     30  C   UNL     1      -5.796   9.867  -0.514  0.00  0.00    +0.041 A 
ATOM     31  C   UNL     1      -5.611   8.773   0.311  0.00  0.00    +0.022 A 
ATOM     32  C   UNL     1      -4.347   8.466   0.779  0.00  0.00    +0.030 A 
ATOM     33 CL   UNL     1      -7.384  10.253  -1.103  0.00  0.00    -0.084 Cl
ENDBRANCH  24  27
ENDBRANCH  22  24
ENDBRANCH  15  18
TORSDOF 3
