REMARK  Name = ZINC64073377
REMARK  13 active torsions:
REMARK  status: ('A' for Active; 'I' for Inactive)
REMARK    1  A    between atoms: C_1  and  N_2
REMARK    2  A    between atoms: N_2  and  C_3
REMARK    3  A    between atoms: C_3  and  C_4
REMARK    4  A    between atoms: C_7  and  C_10
REMARK    5  A    between atoms: C_10  and  O_12
REMARK    6  A    between atoms: O_12  and  C_13
REMARK    7  A    between atoms: C_14  and  C_16
REMARK    8  A    between atoms: C_16  and  C_18
REMARK    9  A    between atoms: C_16  and  N_28
REMARK   10  A    between atoms: C_18  and  C_19
REMARK   11  A    between atoms: C_29  and  O_31
REMARK   12  A    between atoms: O_31  and  C_32
REMARK   13  A    between atoms: C_32  and  C_33
REMARK                            x       y       z     vdW  Elec       q    Type
REMARK                         _______ _______ _______ _____ _____    ______ ____
ROOT
ATOM      1  C   UNL     1      -0.124   0.083  -2.467  0.00  0.00    +0.166 C 
ENDROOT
BRANCH   1   4
ATOM      2  C   UNL     1       0.656   1.217   0.013  0.00  0.00    +0.132 C 
ATOM      3  N   UNL     1       0.269  -0.195  -0.041  0.00  0.00    -0.299 N 
ATOM      4  C   UNL     1      -0.158  -0.733  -1.200  0.00  0.00    +0.236 C 
ATOM      5  O   UNL     1      -0.571  -1.873  -1.224  0.00  0.00    -0.274 OA
BRANCH   3   6
ATOM      6  C   UNL     1       0.347  -1.023   1.166  0.00  0.00    +0.142 C 
BRANCH   6   7
ATOM      7  C   UNL     1      -0.962  -0.953   1.908  0.00  0.00    -0.030 A 
ATOM      8  C   UNL     1      -1.160   0.026   2.865  0.00  0.00    +0.006 A 
ATOM      9  C   UNL     1      -2.356   0.096   3.549  0.00  0.00    +0.015 A 
ATOM     10  C   UNL     1      -3.368  -0.825   3.273  0.00  0.00    +0.059 A 
ATOM     11  C   UNL     1      -3.162  -1.811   2.306  0.00  0.00    +0.015 A 
ATOM     12  C   UNL     1      -1.963  -1.865   1.626  0.00  0.00    +0.006 A 
BRANCH  10  13
ATOM     13  C   UNL     1      -4.652  -0.757   4.001  0.00  0.00    +0.339 C 
ATOM     14  O   UNL     1      -4.828   0.102   4.843  0.00  0.00    -0.245 OA
BRANCH  13  15
ATOM     15  O   UNL     1      -5.627  -1.647   3.733  0.00  0.00    -0.464 OA
ATOM     16  C   UNL     1      -6.841  -1.522   4.475  0.00  0.00    +0.280 C 
ENDBRANCH  13  15
ENDBRANCH  10  13
ENDBRANCH   6   7
ENDBRANCH   3   6
ENDBRANCH   1   4
BRANCH   1  17
ATOM     17  N   UNL     1      -0.314  -0.799  -3.621  0.00  0.00    -0.270 N 
ATOM     18  C   UNL     1       0.160  -0.438  -4.830  0.00  0.00    +0.401 C 
ATOM     19  O   UNL     1       0.745   0.619  -4.963  0.00  0.00    -0.226 OA
ATOM     20  H   UNL     1      -0.782  -1.642  -3.515  0.00  0.00    +0.153 HD
BRANCH  18  21
ATOM     21  O   UNL     1      -0.015  -1.249  -5.891  0.00  0.00    -0.446 OA
BRANCH  21  22
ATOM     22  C   UNL     1       0.514  -0.803  -7.141  0.00  0.00    +0.269 C 
BRANCH  22  23
ATOM     23  C   UNL     1       0.225  -1.832  -8.204  0.00  0.00    -0.010 A 
ATOM     24  C   UNL     1       1.128  -2.852  -8.442  0.00  0.00    +0.007 A 
ATOM     25  C   UNL     1       0.863  -3.796  -9.417  0.00  0.00    +0.000 A 
ATOM     26  C   UNL     1      -0.305  -3.720 -10.153  0.00  0.00    +0.000 A 
ATOM     27  C   UNL     1      -1.208  -2.702  -9.914  0.00  0.00    +0.000 A 
ATOM     28  C   UNL     1      -0.945  -1.760  -8.936  0.00  0.00    +0.007 A 
ENDBRANCH  22  23
ENDBRANCH  21  22
ENDBRANCH  18  21
ENDBRANCH   1  17
BRANCH   1  29
ATOM     29  C   UNL     1      -1.244   1.126  -2.432  0.00  0.00    +0.065 C 
BRANCH  29  30
ATOM     30  C   UNL     1      -1.115   2.041  -3.622  0.00  0.00    -0.039 C 
ATOM     31  C   UNL     1      -1.755   1.929  -4.808  0.00  0.00    -0.001 A 
ATOM     32  C   UNL     1      -2.726   0.957  -5.325  0.00  0.00    +0.010 A 
ATOM     33  C   UNL     1      -3.200   1.109  -6.582  0.00  0.00    +0.001 A 
ATOM     34  C   UNL     1      -2.789   2.170  -7.402  0.00  0.00    +0.002 A 
ATOM     35  C   UNL     1      -1.901   3.102  -6.997  0.00  0.00    +0.026 A 
ATOM     36  C   UNL     1      -1.337   3.039  -5.693  0.00  0.00    +0.043 A 
ATOM     37  N   UNL     1      -0.472   3.809  -5.078  0.00  0.00    -0.380 N 
ATOM     38  C   UNL     1      -0.247   3.276  -3.730  0.00  0.00    +0.144 C 
ATOM     39  H   UNL     1      -0.053   4.600  -5.451  0.00  0.00    +0.160 HD
ENDBRANCH  29  30
ENDBRANCH   1  29
TORSDOF 11
