REMARK  Name = ZINC37422854
REMARK  13 active torsions:
REMARK  status: ('A' for Active; 'I' for Inactive)
REMARK    1  A    between atoms: C_4  and  C_39
REMARK    2  A    between atoms: C_5  and  C_7
REMARK    3  A    between atoms: C_7  and  O_8
REMARK    4  A    between atoms: O_8  and  C_9
REMARK    5  A    between atoms: C_12  and  C_20
REMARK    6  A    between atoms: C_12  and  O_27
REMARK    7  A    between atoms: C_14  and  O_19
REMARK    8  A    between atoms: C_16  and  O_18
REMARK    9  A    between atoms: N_22  and  C_23
REMARK   10  A    between atoms: C_23  and  C_24
REMARK   11  A    between atoms: O_27  and  C_28
REMARK   12  A    between atoms: C_28  and  C_29
REMARK   13  A    between atoms: C_33  and  C_35
REMARK                            x       y       z     vdW  Elec       q    Type
REMARK                         _______ _______ _______ _____ _____    ______ ____
ROOT
ATOM      1  C   UNL     1      -0.120  -4.245  -0.368  0.00  0.00    +0.153 C 
ATOM      2  C   UNL     1      -1.484  -4.593  -0.968  0.00  0.00    +0.079 C 
ATOM      3  C   UNL     1      -1.705  -6.105  -0.890  0.00  0.00    +0.150 C 
ATOM      4  C   UNL     1      -1.662  -6.552   0.572  0.00  0.00    +0.078 C 
ATOM      5  C   UNL     1      -0.298  -6.205   1.172  0.00  0.00    +0.149 C 
ATOM      6  C   UNL     1      -0.077  -4.693   1.094  0.00  0.00    +0.172 C 
ENDROOT
BRANCH   3   7
ATOM      7  C   UNL     1      -3.049  -6.447  -1.481  0.00  0.00    +0.245 C 
ATOM      8  O   UNL     1      -3.925  -5.609  -1.522  0.00  0.00    -0.273 OA
ATOM      9  N   UNL     1      -3.277  -7.684  -1.964  0.00  0.00    -0.313 N 
ATOM     10  H   UNL     1      -2.602  -8.374  -1.871  0.00  0.00    +0.149 HD
BRANCH   9  11
ATOM     11  C   UNL     1      -4.546  -7.988  -2.631  0.00  0.00    +0.107 C 
BRANCH  11  12
ATOM     12  C   UNL     1      -4.549  -9.450  -3.081  0.00  0.00    +0.006 C 
ATOM     13  C   UNL     1      -4.621  -9.726  -4.584  0.00  0.00    +0.005 C 
ATOM     14  C   UNL     1      -5.838  -9.997  -3.697  0.00  0.00    +0.005 C 
ENDBRANCH  11  12
ENDBRANCH   9  11
ENDBRANCH   3   7
BRANCH   6  15
ATOM     15  O   UNL     1       1.197  -4.368   1.654  0.00  0.00    -0.387 OA
ATOM     16  H   UNL     1       1.295  -4.624   2.582  0.00  0.00    +0.210 HD
ENDBRANCH   6  15
BRANCH   5  17
ATOM     17  O   UNL     1       0.729  -6.875   0.438  0.00  0.00    -0.389 OA
ATOM     18  H   UNL     1       1.623  -6.700   0.764  0.00  0.00    +0.210 HD
ENDBRANCH   5  17
BRANCH   1  19
ATOM     19  O   UNL     1       0.086  -2.833  -0.441  0.00  0.00    -0.369 OA
BRANCH  19  20
ATOM     20  C   UNL     1       1.458  -2.452  -0.568  0.00  0.00    +0.196 C 
BRANCH  20  25
ATOM     21  C   UNL     1       0.506   1.201  -0.636  0.00  0.00    +0.000 A 
ATOM     22  C   UNL     1       1.740   1.816  -0.760  0.00  0.00    +0.001 A 
ATOM     23  C   UNL     1       2.889   1.056  -0.823  0.00  0.00    +0.019 A 
ATOM     24  C   UNL     1       2.806  -0.337  -0.760  0.00  0.00    +0.057 A 
ATOM     25  C   UNL     1       1.558  -0.950  -0.635  0.00  0.00    -0.005 A 
ATOM     26  C   UNL     1       0.416  -0.178  -0.574  0.00  0.00    +0.007 A 
BRANCH  24  27
ATOM     27  C   UNL     1       3.995  -1.132  -0.826  0.00  0.00    +0.100 C 
ATOM     28  N   UNL     1       4.938  -1.763  -0.877  0.00  0.00    -0.191 NA
ENDBRANCH  24  27
ENDBRANCH  20  25
ENDBRANCH  19  20
ENDBRANCH   1  19
BRANCH   3  29
ATOM     29  O   UNL     1      -0.678  -6.775  -1.624  0.00  0.00    -0.359 OA
BRANCH  29  30
ATOM     30  C   UNL     1      -0.578  -6.367  -2.990  0.00  0.00    +0.196 C 
BRANCH  30  31
ATOM     31  C   UNL     1       0.589  -7.065  -3.639  0.00  0.00    -0.021 A 
ATOM     32  C   UNL     1       1.844  -6.486  -3.609  0.00  0.00    +0.006 A 
ATOM     33  C   UNL     1       2.915  -7.126  -4.204  0.00  0.00    +0.001 A 
ATOM     34  C   UNL     1       2.731  -8.346  -4.829  0.00  0.00    +0.012 A 
ATOM     35  C   UNL     1       1.476  -8.925  -4.857  0.00  0.00    +0.055 A 
ATOM     36  C   UNL     1       0.406  -8.286  -4.258  0.00  0.00    +0.018 A 
BRANCH  35  37
ATOM     37  C   UNL     1       1.275 -10.254  -5.538  0.00  0.00    +0.417 C 
ATOM     38  F   UNL     1       2.494 -10.699  -6.062  0.00  0.00    -0.166 F 
ATOM     39  F   UNL     1       0.798 -11.186  -4.610  0.00  0.00    -0.166 F 
ATOM     40  F   UNL     1       0.347 -10.111  -6.575  0.00  0.00    -0.166 F 
ENDBRANCH  35  37
ENDBRANCH  30  31
ENDBRANCH  29  30
ENDBRANCH   3  29
TORSDOF 13
