REMARK  Name = ZINC43242976
REMARK  10 active torsions:
REMARK  status: ('A' for Active; 'I' for Inactive)
REMARK    1  A    between atoms: C_1  and  C_2
REMARK    2  A    between atoms: C_5  and  C_7
REMARK    3  A    between atoms: C_7  and  C_9
REMARK    4  A    between atoms: C_7  and  N_13
REMARK    5  A    between atoms: C_9  and  C_11
REMARK    6  A    between atoms: C_9  and  N_12
REMARK    7  A    between atoms: N_13  and  C_14
REMARK    8  A    between atoms: N_13  and  C_17
REMARK    9  A    between atoms: C_14  and  C_15
REMARK   10  A    between atoms: C_15  and  O_16
REMARK                            x       y       z     vdW  Elec       q    Type
REMARK                         _______ _______ _______ _____ _____    ______ ____
ROOT
ATOM      1  C   UNL     1      -0.479  -4.008   1.110  0.00  0.00    -0.014 C 
ENDROOT
BRANCH   1   6
ATOM      2  C   UNL     1      -1.093   1.605   1.573  0.00  0.00    +0.051 C 
ATOM      3  C   UNL     1      -1.012   0.147   1.202  0.00  0.00    -0.013 A 
ATOM      4  C   UNL     1      -1.296  -0.450   0.019  0.00  0.00    +0.011 A 
ATOM      5  C   UNL     1      -1.147  -1.820  -0.094  0.00  0.00    +0.010 A 
ATOM      6  C   UNL     1      -0.719  -2.525   0.981  0.00  0.00    -0.022 A 
ATOM      7  S   UNL     1      -0.507  -1.242   2.204  0.00  0.00    -0.100 S 
ENDBRANCH   1   6
BRANCH   1   8
ATOM      8  C   UNL     1       1.019  -4.294   0.995  0.00  0.00    +0.039 C 
ATOM      9  C   UNL     1       1.776  -3.477   2.044  0.00  0.00    +0.022 C 
BRANCH   8  10
ATOM     10  N   UNL     1       1.487  -3.921  -0.347  0.00  0.00    -0.329 NA
ATOM     11  H   UNL     1       1.048  -4.492  -1.054  0.00  0.00    +0.118 HD
ATOM     12  H   UNL     1       1.330  -2.940  -0.525  0.00  0.00    +0.118 HD
ENDBRANCH   8  10
ENDBRANCH   1   8
BRANCH   1  13
ATOM     13  N   UNL     1      -0.968  -4.471   2.416  0.00  0.00    +0.389 N 
ATOM     14  H   UNL     1      -0.607  -3.871   3.142  0.00  0.00    -0.080 HD
BRANCH  13  15
ATOM     15  C   UNL     1      -2.436  -4.431   2.432  0.00  0.00    -0.068 C 
ATOM     16  C   UNL     1      -2.908  -2.978   2.357  0.00  0.00    -0.015 C 
ATOM     17  C   UNL     1      -4.437  -2.937   2.374  0.00  0.00    -0.002 C 
ATOM     18  C   UNL     1      -4.950  -3.574   3.667  0.00  0.00    -0.000 C 
ATOM     19  C   UNL     1      -4.478  -5.027   3.742  0.00  0.00    -0.002 C 
ATOM     20  C   UNL     1      -2.949  -5.068   3.725  0.00  0.00    -0.015 C 
ENDBRANCH  13  15
BRANCH  13  21
ATOM     21  C   UNL     1      -0.512  -5.848   2.648  0.00  0.00    -0.049 C 
BRANCH  21  22
ATOM     22  C   UNL     1       0.905  -5.827   3.224  0.00  0.00    +0.137 C 
BRANCH  22  23
ATOM     23  O   UNL     1       0.920  -5.047   4.422  0.00  0.00    -0.397 OA
ATOM     24  H   UNL     1       1.789  -4.990   4.843  0.00  0.00    +0.209 HD
ENDBRANCH  22  23
ENDBRANCH  21  22
ENDBRANCH  13  21
ENDBRANCH   1  13
TORSDOF 8
