REMARK  Name = ZINC64044081
REMARK  9 active torsions:
REMARK  status: ('A' for Active; 'I' for Inactive)
REMARK    1  A    between atoms: C_1  and  C_2
REMARK    2  A    between atoms: C_7  and  C_30
REMARK    3  A    between atoms: C_8  and  C_12
REMARK    4  A    between atoms: C_12  and  N_13
REMARK    5  A    between atoms: N_16  and  C_23
REMARK    6  A    between atoms: C_17  and  C_20
REMARK    7  A    between atoms: C_20  and  C_21
REMARK    8  A    between atoms: C_21  and  O_22
REMARK    9  A    between atoms: N_26  and  C_29
REMARK                            x       y       z     vdW  Elec       q    Type
REMARK                         _______ _______ _______ _____ _____    ______ ____
ROOT
ATOM      1  N   UNL     1       1.214  -0.370   5.253  0.00  0.00    -0.297 NA
ATOM      2  C   UNL     1       1.260   0.656   4.201  0.00  0.00    +0.100 C 
ATOM      3  C   UNL     1       1.141   2.042   4.839  0.00  0.00    +0.100 C 
ATOM      4  N   UNL     1       2.235   2.230   5.803  0.00  0.00    -0.294 NA
ATOM      5  C   UNL     1       2.188   1.204   6.854  0.00  0.00    +0.073 C 
ATOM      6  C   UNL     1       2.307  -0.182   6.216  0.00  0.00    +0.103 C 
ENDROOT
BRANCH   4   7
ATOM      7  C   UNL     1       2.200   3.579   6.383  0.00  0.00    +0.054 C 
ATOM      8  C   UNL     1       2.410   4.617   5.277  0.00  0.00    +0.000 C 
ATOM      9  C   UNL     1       2.293   6.022   5.873  0.00  0.00    -0.078 C 
ATOM     10  N   UNL     1       0.961   6.197   6.464  0.00  0.00    +0.378 N 
ATOM     11  C   UNL     1       0.779   5.253   7.572  0.00  0.00    -0.078 C 
ATOM     12  C   UNL     1       0.838   3.819   7.041  0.00  0.00    +0.000 C 
ATOM     13  C   UNL     1       0.827   7.571   6.966  0.00  0.00    -0.096 C 
ATOM     14  H   UNL     1       0.258   6.028   5.760  0.00  0.00    -0.082 HD
ENDBRANCH   4   7
BRANCH   1  15
ATOM     15  C   UNL     1       1.249  -1.719   4.673  0.00  0.00    +0.113 C 
BRANCH  15  23
ATOM     16  C   UNL     1      -3.695  -2.498   6.496  0.00  0.00    +0.046 C 
ATOM     17  C   UNL     1      -2.849  -3.578   5.872  0.00  0.00    -0.027 A 
ATOM     18  C   UNL     1      -3.426  -4.721   5.446  0.00  0.00    +0.005 A 
ATOM     19  C   UNL     1      -2.697  -5.764   4.858  0.00  0.00    +0.001 A 
ATOM     20  C   UNL     1      -1.358  -5.685   4.681  0.00  0.00    +0.010 A 
ATOM     21  C   UNL     1      -0.653  -4.474   5.118  0.00  0.00    -0.001 A 
ATOM     22  C   UNL     1       0.648  -4.106   5.078  0.00  0.00    -0.040 C 
ATOM     23  C   UNL     1       0.713  -2.726   5.693  0.00  0.00    +0.120 C 
ATOM     24  N   UNL     1      -0.665  -2.386   6.065  0.00  0.00    -0.376 N 
ATOM     25  C   UNL     1      -1.447  -3.385   5.731  0.00  0.00    +0.046 A 
ATOM     26  C   UNL     1       1.800  -4.910   4.531  0.00  0.00    +0.042 C 
ATOM     27  H   UNL     1      -0.951  -1.560   6.485  0.00  0.00    +0.160 HD
ENDBRANCH  15  23
ENDBRANCH   1  15
BRANCH   5  28
ATOM     28  C   UNL     1       3.348   1.419   7.829  0.00  0.00    +0.048 C 
BRANCH  28  29
ATOM     29  C   UNL     1       3.248   0.407   8.972  0.00  0.00    +0.157 C 
BRANCH  29  30
ATOM     30  O   UNL     1       4.257   0.686   9.945  0.00  0.00    -0.395 OA
ATOM     31  H   UNL     1       4.253   0.082  10.700  0.00  0.00    +0.209 HD
ENDBRANCH  29  30
ENDBRANCH  28  29
ENDBRANCH   5  28
TORSDOF 6
