REMARK  Name = ZINC39664697
REMARK  11 active torsions:
REMARK  status: ('A' for Active; 'I' for Inactive)
REMARK    1  A    between atoms: C_1  and  C_2
REMARK    2  A    between atoms: C_2  and  C_4
REMARK    3  A    between atoms: C_2  and  O_32
REMARK    4  A    between atoms: C_8  and  C_17
REMARK    5  A    between atoms: N_19  and  C_20
REMARK    6  A    between atoms: C_20  and  C_22
REMARK    7  A    between atoms: C_20  and  C_26
REMARK    8  A    between atoms: C_22  and  N_23
REMARK    9  A    between atoms: N_23  and  C_24
REMARK   10  A    between atoms: N_23  and  C_25
REMARK   11  A    between atoms: O_32  and  C_33
REMARK                            x       y       z     vdW  Elec       q    Type
REMARK                         _______ _______ _______ _____ _____    ______ ____
ROOT
ATOM      1  C   UNL     1       2.643  -1.156   1.982  0.00  0.00    +0.256 C 
ATOM      2  O   UNL     1       1.900  -1.702   2.769  0.00  0.00    -0.272 OA
ATOM      3  N   UNL     1       3.890  -0.811   2.360  0.00  0.00    -0.297 N 
ATOM      4  C   UNL     1       4.953  -0.197   1.531  0.00  0.00    +0.121 C 
ATOM      5  C   UNL     1       5.632   0.830   2.465  0.00  0.00    +0.100 C 
ATOM      6  C   UNL     1       5.337   0.324   3.886  0.00  0.00    -0.004 C 
ATOM      7  C   UNL     1       4.504  -0.953   3.702  0.00  0.00    +0.115 C 
ATOM      8  C   UNL     1       4.533   1.363   4.661  0.00  0.00    -0.010 C 
ATOM      9  C   UNL     1       4.301   0.861   6.089  0.00  0.00    -0.082 C 
ATOM     10  N   UNL     1       5.594   0.626   6.743  0.00  0.00    +0.379 N 
ATOM     11  C   UNL     1       6.321  -0.441   6.045  0.00  0.00    -0.082 C 
ATOM     12  C   UNL     1       6.639   0.006   4.615  0.00  0.00    -0.010 C 
ATOM     13  H   UNL     1       6.140   1.474   6.721  0.00  0.00    -0.086 HD
ATOM     14  H   UNL     1       5.439   0.354   7.702  0.00  0.00    -0.086 HD
ENDROOT
BRANCH   5  15
ATOM     15  C   UNL     1       5.038   2.200   2.259  0.00  0.00    +0.219 C 
ATOM     16  O   UNL     1       3.857   2.317   2.008  0.00  0.00    -0.275 OA
ATOM     17  N   UNL     1       5.818   3.294   2.354  0.00  0.00    -0.310 N 
ATOM     18  H   UNL     1       6.769   3.199   2.521  0.00  0.00    +0.149 HD
BRANCH  17  19
ATOM     19  C   UNL     1       5.230   4.628   2.204  0.00  0.00    +0.087 C 
BRANCH  19  20
ATOM     20  C   UNL     1       6.265   5.574   1.650  0.00  0.00    -0.029 A 
ATOM     21  C   UNL     1       7.574   5.499   2.087  0.00  0.00    +0.005 A 
ATOM     22  C   UNL     1       8.523   6.366   1.578  0.00  0.00    +0.000 A 
ATOM     23  C   UNL     1       8.162   7.308   0.633  0.00  0.00    +0.000 A 
ATOM     24  C   UNL     1       6.853   7.382   0.195  0.00  0.00    +0.000 A 
ATOM     25  C   UNL     1       5.905   6.512   0.701  0.00  0.00    +0.005 A 
ENDBRANCH  19  20
BRANCH  19  26
ATOM     26  C   UNL     1       4.758   5.133   3.569  0.00  0.00    -0.052 C 
BRANCH  26  27
ATOM     27  N   UNL     1       3.658   4.285   4.050  0.00  0.00    +0.377 N 
ATOM     28  C   UNL     1       3.309   4.670   5.425  0.00  0.00    -0.097 C 
ATOM     29  C   UNL     1       2.487   4.462   3.181  0.00  0.00    -0.097 C 
ATOM     30  H   UNL     1       3.947   3.319   4.034  0.00  0.00    -0.083 HD
ENDBRANCH  26  27
ENDBRANCH  19  26
ENDBRANCH  17  19
ENDBRANCH   5  15
BRANCH   1  32
ATOM     31  C   UNL     1       1.929   0.640   0.428  0.00  0.00    +0.062 C 
ATOM     32  C   UNL     1       2.173  -0.863   0.580  0.00  0.00    +0.256 C 
BRANCH  32  33
ATOM     33  O   UNL     1       0.957  -1.571   0.328  0.00  0.00    -0.480 OA
BRANCH  33  34
ATOM     34  C   UNL     1       0.661  -1.845  -0.969  0.00  0.00    +0.122 A 
ATOM     35  C   UNL     1       1.514  -1.427  -1.980  0.00  0.00    +0.045 A 
ATOM     36  C   UNL     1       1.211  -1.708  -3.299  0.00  0.00    +0.004 A 
ATOM     37  C   UNL     1       0.058  -2.404  -3.611  0.00  0.00    +0.000 A 
ATOM     38  C   UNL     1      -0.794  -2.822  -2.605  0.00  0.00    +0.004 A 
ATOM     39  C   UNL     1      -0.493  -2.549  -1.285  0.00  0.00    +0.045 A 
ENDBRANCH  33  34
ENDBRANCH  32  33
ENDBRANCH   1  32
TORSDOF 8
