REMARK  Name = ZINC20727483
REMARK  8 active torsions:
REMARK  status: ('A' for Active; 'I' for Inactive)
REMARK    1  A    between atoms: C_1  and  C_2
REMARK    2  A    between atoms: C_2  and  C_3
REMARK    3  A    between atoms: C_2  and  C_4
REMARK    4  A    between atoms: C_4  and  C_6
REMARK    5  A    between atoms: C_4  and  N_10
REMARK    6  A    between atoms: C_6  and  O_8
REMARK    7  A    between atoms: O_8  and  C_9
REMARK    8  A    between atoms: C_22  and  C_24
REMARK                            x       y       z     vdW  Elec       q    Type
REMARK                         _______ _______ _______ _____ _____    ______ ____
ROOT
ATOM      1  N   UNL     1      -1.243  -1.990  -2.270  0.00  0.00    -0.286 N 
ATOM      2  C   UNL     1      -1.990  -0.870  -2.338  0.00  0.00    +0.304 C 
ATOM      3  O   UNL     1      -2.192  -0.213  -1.335  0.00  0.00    -0.253 OA
ATOM      4  N   UNL     1      -2.513  -0.479  -3.517  0.00  0.00    -0.273 N 
ATOM      5  C   UNL     1      -3.236   0.796  -3.635  0.00  0.00    +0.116 C 
ATOM      6  C   UNL     1      -2.465   1.726  -4.581  0.00  0.00    +0.076 C 
ATOM      7  C   UNL     1      -2.047   0.942  -5.800  0.00  0.00    +0.066 A 
ATOM      8  C   UNL     1      -2.004  -0.406  -5.862  0.00  0.00    +0.064 A 
ATOM      9  N   UNL     1      -1.579  -0.739  -7.111  0.00  0.00    -0.346 N 
ATOM     10  H   UNL     1      -1.446  -1.636  -7.455  0.00  0.00    +0.167 HD
ATOM     11  C   UNL     1      -1.377   0.419  -7.781  0.00  0.00    +0.197 A 
ATOM     12  N   UNL     1      -1.661   1.419  -6.988  0.00  0.00    -0.240 NA
ATOM     13  C   UNL     1      -2.371  -1.316  -4.722  0.00  0.00    +0.158 C 
ATOM     14  H   UNL     1      -1.148  -2.557  -3.051  0.00  0.00    +0.151 HD
ENDROOT
BRANCH  13  15
ATOM     15  C   UNL     1      -3.676  -2.008  -5.023  0.00  0.00    -0.003 A 
ATOM     16  C   UNL     1      -4.793  -1.263  -5.353  0.00  0.00    +0.009 A 
ATOM     17  C   UNL     1      -5.990  -1.896  -5.630  0.00  0.00    +0.020 A 
ATOM     18  C   UNL     1      -6.071  -3.276  -5.577  0.00  0.00    +0.042 A 
ATOM     19  C   UNL     1      -4.954  -4.022  -5.247  0.00  0.00    +0.040 A 
ATOM     20  C   UNL     1      -3.755  -3.388  -4.975  0.00  0.00    +0.048 A 
ATOM     21 CL   UNL     1      -2.350  -4.324  -4.568  0.00  0.00    -0.083 Cl
ATOM     22 CL   UNL     1      -7.574  -4.072  -5.923  0.00  0.00    -0.083 Cl
ENDBRANCH  13  15
BRANCH   1  23
ATOM     23  C   UNL     1      -0.575  -2.350  -1.018  0.00  0.00    +0.186 C 
BRANCH  23  25
ATOM     24  C   UNL     1      -1.905  -4.452  -0.789  0.00  0.00    +0.009 C 
ATOM     25  C   UNL     1      -1.548  -3.122  -0.124  0.00  0.00    +0.014 C 
ATOM     26  C   UNL     1      -0.892  -3.390   1.232  0.00  0.00    +0.009 C 
ENDBRANCH  23  25
BRANCH  23  27
ATOM     27  C   UNL     1       0.624  -3.213  -1.318  0.00  0.00    +0.328 C 
ATOM     28  O   UNL     1       0.892  -3.498  -2.461  0.00  0.00    -0.249 OA
BRANCH  27  29
ATOM     29  O   UNL     1       1.393  -3.666  -0.315  0.00  0.00    -0.467 OA
ATOM     30  C   UNL     1       2.513  -4.479  -0.672  0.00  0.00    +0.280 C 
ENDBRANCH  27  29
ENDBRANCH  23  27
ENDBRANCH   1  23
TORSDOF 5
