REMARK  Name = ZINC64971407
REMARK  7 active torsions:
REMARK  status: ('A' for Active; 'I' for Inactive)
REMARK    1  A    between atoms: C_1  and  S_2
REMARK    2  A    between atoms: S_2  and  C_3
REMARK    3  A    between atoms: C_6  and  C_9
REMARK    4  A    between atoms: C_9  and  N_10
REMARK    5  A    between atoms: C_11  and  C_13
REMARK    6  A    between atoms: C_13  and  N_14
REMARK    7  A    between atoms: N_27  and  C_28
REMARK                            x       y       z     vdW  Elec       q    Type
REMARK                         _______ _______ _______ _____ _____    ______ ____
ROOT
ATOM      1  N   UNL     1      -9.467  -1.835  -3.277  0.00  0.00    -0.260 N 
ATOM      2  C   UNL     1      -9.497  -3.136  -3.790  0.00  0.00    +0.058 A 
ATOM      3  C   UNL     1      -8.328  -3.864  -3.946  0.00  0.00    +0.025 A 
ATOM      4  C   UNL     1      -8.379  -5.147  -4.458  0.00  0.00    +0.002 A 
ATOM      5  C   UNL     1      -9.591  -5.709  -4.817  0.00  0.00    +0.002 A 
ATOM      6  C   UNL     1     -10.764  -4.990  -4.663  0.00  0.00    +0.025 A 
ATOM      7  C   UNL     1     -10.719  -3.707  -4.148  0.00  0.00    +0.060 A 
ATOM      8  N   UNL     1     -11.892  -2.957  -3.969  0.00  0.00    -0.245 N 
ATOM      9  C   UNL     1     -11.915  -1.964  -2.884  0.00  0.00    +0.211 C 
ATOM     10  C   UNL     1     -10.596  -1.235  -2.856  0.00  0.00    +0.238 C 
ATOM     11  O   UNL     1     -10.552  -0.092  -2.452  0.00  0.00    -0.273 OA
ATOM     12  C   UNL     1     -12.964  -3.141  -4.765  0.00  0.00    +0.311 C 
ATOM     13  O   UNL     1     -12.892  -3.894  -5.716  0.00  0.00    -0.252 OA
ATOM     14  N   UNL     1     -14.116  -2.491  -4.506  0.00  0.00    -0.269 N 
ATOM     15  H   UNL     1     -14.152  -1.833  -3.794  0.00  0.00    +0.156 HD
ENDROOT
BRANCH  14  16
ATOM     16  C   UNL     1     -15.260  -2.764  -5.264  0.00  0.00    +0.035 A 
ATOM     17  C   UNL     1     -15.483  -4.046  -5.749  0.00  0.00    +0.023 A 
ATOM     18  C   UNL     1     -16.613  -4.313  -6.497  0.00  0.00    +0.002 A 
ATOM     19  C   UNL     1     -17.521  -3.305  -6.763  0.00  0.00    +0.000 A 
ATOM     20  C   UNL     1     -17.302  -2.028  -6.282  0.00  0.00    +0.002 A 
ATOM     21  C   UNL     1     -16.177  -1.756  -5.528  0.00  0.00    +0.023 A 
ENDBRANCH  14  16
BRANCH   1  22
ATOM     22  C   UNL     1      -8.191  -1.119  -3.194  0.00  0.00    +0.209 C 
BRANCH  22  24
ATOM     23  N   UNL     1      -6.356  -0.841  -1.559  0.00  0.00    -0.310 N 
ATOM     24  C   UNL     1      -7.546  -1.397  -1.861  0.00  0.00    +0.231 C 
ATOM     25  O   UNL     1      -8.096  -2.123  -1.060  0.00  0.00    -0.274 OA
ATOM     26  H   UNL     1      -5.915  -0.261  -2.200  0.00  0.00    +0.149 HD
BRANCH  23  27
ATOM     27  C   UNL     1      -5.728  -1.111  -0.264  0.00  0.00    +0.139 C 
BRANCH  27  31
ATOM     28  C   UNL     1      -2.007   0.977  -0.019  0.00  0.00    +0.008 A 
ATOM     29  C   UNL     1      -3.178   1.588   0.414  0.00  0.00    +0.015 A 
ATOM     30  C   UNL     1      -4.378   0.910   0.333  0.00  0.00    +0.006 A 
ATOM     31  C   UNL     1      -4.416  -0.375  -0.177  0.00  0.00    -0.030 A 
ATOM     32  C   UNL     1      -3.252  -0.986  -0.608  0.00  0.00    +0.006 A 
ATOM     33  C   UNL     1      -2.049  -0.312  -0.537  0.00  0.00    +0.015 A 
BRANCH  28  35
ATOM     34  C   UNL     1      -0.916   3.441   0.806  0.00  0.00    +0.090 C 
ATOM     35  S   UNL     1      -0.473   1.838   0.082  0.00  0.00    -0.129 S 
ENDBRANCH  28  35
ENDBRANCH  27  31
ENDBRANCH  23  27
ENDBRANCH  22  24
ENDBRANCH   1  22
TORSDOF 6
