REMARK  Name = ZINC36156665
REMARK  13 active torsions:
REMARK  status: ('A' for Active; 'I' for Inactive)
REMARK    1  A    between atoms: C_1  and  C_2
REMARK    2  A    between atoms: C_2  and  C_3
REMARK    3  A    between atoms: C_3  and  C_4
REMARK    4  A    between atoms: C_4  and  O_6
REMARK    5  A    between atoms: O_6  and  C_7
REMARK    6  A    between atoms: C_7  and  C_8
REMARK    7  A    between atoms: C_8  and  C_10
REMARK    8  A    between atoms: C_8  and  O_35
REMARK    9  A    between atoms: C_10  and  N_11
REMARK   10  A    between atoms: N_11  and  C_12
REMARK   11  A    between atoms: N_11  and  C_19
REMARK   12  A    between atoms: C_12  and  C_13
REMARK   13  A    between atoms: C_19  and  C_20
REMARK                            x       y       z     vdW  Elec       q    Type
REMARK                         _______ _______ _______ _____ _____    ______ ____
ROOT
ATOM      1  N   UNL     1      -5.109  -6.588  -0.068  0.00  0.00    +0.389 N 
ATOM      2  H   UNL     1      -5.575  -6.222  -0.885  0.00  0.00    -0.081 HD
ENDROOT
BRANCH   1   3
ATOM      3  C   UNL     1      -3.780  -5.975   0.053  0.00  0.00    -0.043 C 
BRANCH   3   4
ATOM      4  C   UNL     1      -3.890  -4.467  -0.183  0.00  0.00    +0.136 C 
BRANCH   4   5
ATOM      5  O   UNL     1      -4.627  -3.870   0.886  0.00  0.00    -0.390 OA
ATOM      6  H   UNL     1      -4.169  -3.887   1.737  0.00  0.00    +0.210 HD
ENDBRANCH   4   5
BRANCH   4   7
ATOM      7  C   UNL     1      -2.488  -3.856  -0.239  0.00  0.00    +0.261 C 
BRANCH   7   8
ATOM      8  O   UNL     1      -2.586  -2.471  -0.575  0.00  0.00    -0.462 OA
BRANCH   8   9
ATOM      9  C   UNL     1      -1.436  -1.783  -0.665  0.00  0.00    +0.307 C 
ATOM     10  O   UNL     1      -0.382  -2.339  -0.466  0.00  0.00    -0.251 OA
BRANCH   9  11
ATOM     11  C   UNL     1      -1.460  -0.318  -1.016  0.00  0.00    +0.120 C 
BRANCH  11  13
ATOM     12  C   UNL     1      -0.054   1.710  -1.408  0.00  0.00    +0.004 C 
ATOM     13  C   UNL     1      -0.029   0.222  -1.053  0.00  0.00    +0.008 C 
ENDBRANCH  11  13
ENDBRANCH   9  11
ENDBRANCH   8   9
ENDBRANCH   7   8
ENDBRANCH   4   7
ENDBRANCH   3   4
ENDBRANCH   1   3
BRANCH   1  14
ATOM     14  C   UNL     1      -5.903  -6.277   1.128  0.00  0.00    -0.042 C 
BRANCH  14  15
ATOM     15  C   UNL     1      -5.278  -6.937   2.331  0.00  0.00    -0.064 A 
ATOM     16  C   UNL     1      -5.671  -8.209   2.704  0.00  0.00    +0.002 A 
ATOM     17  C   UNL     1      -5.098  -8.813   3.807  0.00  0.00    +0.000 A 
ATOM     18  C   UNL     1      -4.131  -8.147   4.537  0.00  0.00    +0.000 A 
ATOM     19  C   UNL     1      -3.738  -6.875   4.163  0.00  0.00    +0.000 A 
ATOM     20  C   UNL     1      -4.308  -6.272   3.058  0.00  0.00    +0.002 A 
ENDBRANCH  14  15
ENDBRANCH   1  14
BRANCH   1  21
ATOM     21  C   UNL     1      -4.967  -8.044  -0.197  0.00  0.00    -0.003 C 
BRANCH  21  22
ATOM     22  C   UNL     1      -6.319  -8.661  -0.444  0.00  0.00    +0.094 A 
ATOM     23  N   UNL     1      -6.422 -10.008  -0.589  0.00  0.00    -0.312 N 
ATOM     24  H   UNL     1      -5.622 -10.554  -0.531  0.00  0.00    +0.170 HD
ATOM     25  C   UNL     1      -7.610 -10.600  -0.811  0.00  0.00    +0.260 A 
ATOM     26  O   UNL     1      -7.685 -11.809  -0.938  0.00  0.00    -0.267 OA
ATOM     27  C   UNL     1      -8.786  -9.784  -0.895  0.00  0.00    +0.075 A 
ATOM     28  C   UNL     1     -10.167 -10.202  -1.128  0.00  0.00    -0.023 A 
ATOM     29  C   UNL     1     -11.104  -9.230  -1.163  0.00  0.00    -0.004 A 
ATOM     30  S   UNL     1     -10.211  -7.723  -0.891  0.00  0.00    -0.073 S 
ATOM     31  C   UNL     1      -8.580  -8.404  -0.732  0.00  0.00    +0.116 A 
ATOM     32  N   UNL     1      -7.373  -7.892  -0.510  0.00  0.00    -0.229 NA
ATOM     33  C   UNL     1     -12.576  -9.396  -1.385  0.00  0.00    +0.043 C 
ATOM     34  C   UNL     1     -12.826 -10.805  -1.940  0.00  0.00    +0.005 C 
ATOM     35  C   UNL     1     -12.057 -11.815  -1.082  0.00  0.00    +0.005 C 
ATOM     36  C   UNL     1     -10.555 -11.665  -1.325  0.00  0.00    +0.037 C 
ENDBRANCH  21  22
ENDBRANCH   1  21
TORSDOF 12
