REMARK  Name = ZINC30921252
REMARK  9 active torsions:
REMARK  status: ('A' for Active; 'I' for Inactive)
REMARK    1  A    between atoms: C_1  and  O_2
REMARK    2  A    between atoms: O_2  and  C_3
REMARK    3  A    between atoms: C_3  and  C_5
REMARK    4  A    between atoms: C_5  and  C_7
REMARK    5  A    between atoms: C_5  and  N_18
REMARK    6  A    between atoms: C_7  and  C_8
REMARK    7  A    between atoms: C_19  and  C_21
REMARK    8  A    between atoms: C_21  and  O_22
REMARK    9  A    between atoms: O_22  and  C_23
REMARK                            x       y       z     vdW  Elec       q    Type
REMARK                         _______ _______ _______ _____ _____    ______ ____
ROOT
ATOM      1  N   UNL     1       0.604  -0.491   1.246  0.00  0.00    -0.299 N 
ATOM      2  C   UNL     1       1.188  -1.706   1.281  0.00  0.00    +0.251 C 
ATOM      3  O   UNL     1       1.214  -2.395   0.284  0.00  0.00    -0.272 OA
ATOM      4  H   UNL     1       0.580   0.134   2.150  0.00  0.00    +0.150 HD
ENDROOT
BRANCH   1   5
ATOM      5  C   UNL     1       0.002  -0.004   0.002  0.00  0.00    +0.186 C 
BRANCH   5   6
ATOM      6  C   UNL     1      -1.407  -0.525  -0.111  0.00  0.00    +0.328 C 
ATOM      7  O   UNL     1      -1.862  -1.231   0.758  0.00  0.00    -0.249 OA
BRANCH   6   9
ATOM      8  C   UNL     1      -3.506  -0.742  -1.220  0.00  0.00    +0.280 C 
ATOM      9  O   UNL     1      -2.158  -0.205  -1.177  0.00  0.00    -0.467 OA
ENDBRANCH   6   9
ENDBRANCH   5   6
BRANCH   5  10
ATOM     10  C   UNL     1      -0.019   1.526   0.010  0.00  0.00    +0.071 C 
BRANCH  10  11
ATOM     11  C   UNL     1       1.395   2.047  -0.000  0.00  0.00    -0.020 A 
ATOM     12  C   UNL     1       2.120   2.412   1.069  0.00  0.00    +0.087 A 
ATOM     13  N   UNL     1       3.360   2.832   0.671  0.00  0.00    -0.360 N 
ATOM     14  H   UNL     1       4.095   3.163   1.420  0.00  0.00    +0.165 HD
ATOM     15  C   UNL     1       3.463   2.754  -0.699  0.00  0.00    +0.047 A 
ATOM     16  C   UNL     1       2.237   2.259  -1.180  0.00  0.00    +0.003 A 
ATOM     17  C   UNL     1       2.050   2.073  -2.551  0.00  0.00    +0.010 A 
ATOM     18  C   UNL     1       3.062   2.373  -3.420  0.00  0.00    +0.001 A 
ATOM     19  C   UNL     1       4.273   2.862  -2.951  0.00  0.00    +0.002 A 
ATOM     20  C   UNL     1       4.478   3.053  -1.602  0.00  0.00    +0.026 A 
ENDBRANCH  10  11
ENDBRANCH   5  10
ENDBRANCH   1   5
BRANCH   2  21
ATOM     21  C   UNL     1       1.807  -2.207   2.560  0.00  0.00    +0.324 C 
BRANCH  21  22
ATOM     22  O   UNL     1       2.357  -3.508   2.346  0.00  0.00    -0.483 OA
BRANCH  22  23
ATOM     23  C   UNL     1       2.958  -4.107   3.408  0.00  0.00    +0.122 A 
ATOM     24  C   UNL     1       3.021  -3.451   4.632  0.00  0.00    +0.049 A 
ATOM     25  C   UNL     1       3.623  -4.050   5.718  0.00  0.00    +0.050 A 
ATOM     26  C   UNL     1       4.184  -5.316   5.595  0.00  0.00    +0.136 A 
ATOM     27  C   UNL     1       4.124  -5.975   4.360  0.00  0.00    +0.031 A 
ATOM     28  C   UNL     1       3.511  -5.368   3.269  0.00  0.00    +0.058 A 
ATOM     29  C   UNL     1       4.798  -7.271   4.566  0.00  0.00    +0.028 A 
ATOM     30  C   UNL     1       5.068  -8.362   3.746  0.00  0.00    +0.012 A 
ATOM     31  C   UNL     1       5.737  -9.454   4.257  0.00  0.00    +0.001 A 
ATOM     32  C   UNL     1       6.140  -9.464   5.583  0.00  0.00    +0.004 A 
ATOM     33  C   UNL     1       5.878  -8.389   6.405  0.00  0.00    +0.047 A 
ATOM     34  C   UNL     1       5.205  -7.279   5.907  0.00  0.00    +0.136 A 
ATOM     35  O   UNL     1       4.826  -6.114   6.477  0.00  0.00    -0.455 OA
ENDBRANCH  22  23
ENDBRANCH  21  22
ENDBRANCH   2  21
TORSDOF 8
