REMARK  Name = ZINC12832965
REMARK  12 active torsions:
REMARK  status: ('A' for Active; 'I' for Inactive)
REMARK    1  A    between atoms: C_1  and  C_2
REMARK    2  A    between atoms: C_7  and  C_15
REMARK    3  A    between atoms: C_13  and  C_14
REMARK    4  A    between atoms: C_15  and  N_64
REMARK    5  A    between atoms: C_16  and  C_17
REMARK    6  A    between atoms: C_16  and  N_64
REMARK    7  A    between atoms: C_22  and  C_23
REMARK    8  A    between atoms: C_22  and  N_64
REMARK    9  A    between atoms: N_27  and  C_28
REMARK   10  A    between atoms: C_28  and  C_29
REMARK   11  A    between atoms: C_32  and  O_35
REMARK   12  A    between atoms: O_35  and  C_36
REMARK                            x       y       z     vdW  Elec       q    Type
REMARK                         _______ _______ _______ _____ _____    ______ ____
ROOT
ATOM      1  N   UNL     1       1.738  -2.716  -1.494  0.00  0.00    +0.392 N 
ATOM      2  H   UNL     1       0.905  -2.600  -2.083  0.00  0.00    -0.080 HD
ENDROOT
BRANCH   1   3
ATOM      3  C   UNL     1       1.925  -4.154  -1.206  0.00  0.00    -0.036 C 
BRANCH   3  10
ATOM      4  C   UNL     1      -5.229  -7.620  -0.561  0.00  0.00    +0.044 C 
ATOM      5  C   UNL     1      -3.890  -7.022  -0.909  0.00  0.00    -0.046 A 
ATOM      6  C   UNL     1      -3.431  -7.081  -2.218  0.00  0.00    +0.004 A 
ATOM      7  C   UNL     1      -2.220  -6.545  -2.554  0.00  0.00    +0.010 A 
ATOM      8  C   UNL     1      -1.437  -5.931  -1.572  0.00  0.00    -0.001 A 
ATOM      9  C   UNL     1      -0.137  -5.342  -1.899  0.00  0.00    +0.017 A 
ATOM     10  C   UNL     1       0.582  -4.765  -0.904  0.00  0.00    +0.001 A 
ATOM     11  C   UNL     1       0.073  -4.730   0.412  0.00  0.00    +0.251 A 
ATOM     12  O   UNL     1       0.733  -4.203   1.290  0.00  0.00    -0.268 OA
ATOM     13  N   UNL     1      -1.122  -5.264   0.721  0.00  0.00    -0.322 N 
ATOM     14  H   UNL     1      -1.442  -5.223   1.636  0.00  0.00    +0.169 HD
ATOM     15  C   UNL     1      -1.899  -5.870  -0.244  0.00  0.00    +0.052 A 
ATOM     16  C   UNL     1      -3.135  -6.423   0.075  0.00  0.00    -0.024 A 
ATOM     17  C   UNL     1      -3.646  -6.366   1.492  0.00  0.00    +0.046 C 
ENDBRANCH   3  10
ENDBRANCH   1   3
BRANCH   1  18
ATOM     18  C   UNL     1       2.914  -2.188  -2.216  0.00  0.00    -0.002 C 
BRANCH  18  19
ATOM     19  C   UNL     1       2.885  -2.703  -3.631  0.00  0.00    +0.089 A 
ATOM     20  C   UNL     1       2.354  -2.065  -4.690  0.00  0.00    +0.042 A 
ATOM     21  C   UNL     1       2.545  -2.904  -5.812  0.00  0.00    +0.041 A 
ATOM     22  C   UNL     1       3.182  -4.004  -5.372  0.00  0.00    +0.195 A 
ATOM     23  O   UNL     1       3.390  -3.874  -4.051  0.00  0.00    -0.470 OA
ENDBRANCH  18  19
ENDBRANCH   1  18
BRANCH   1  24
ATOM     24  C   UNL     1       1.541  -1.970  -0.233  0.00  0.00    +0.001 C 
BRANCH  24  25
ATOM     25  C   UNL     1       1.204  -0.538  -0.562  0.00  0.00    +0.135 A 
ATOM     26  N   UNL     1       2.054   0.433  -0.791  0.00  0.00    -0.115 NA
ATOM     27  N   UNL     1       1.379   1.503  -1.035  0.00  0.00    -0.023 NA
ATOM     28  N   UNL     1       0.121   1.240  -0.968  0.00  0.00    -0.044 NA
ATOM     29  N   UNL     1      -0.028  -0.009  -0.679  0.00  0.00    -0.227 N 
BRANCH  29  30
ATOM     30  C   UNL     1      -1.299  -0.717  -0.509  0.00  0.00    +0.182 C 
BRANCH  30  31
ATOM     31  C   UNL     1      -1.831  -1.126  -1.859  0.00  0.00    -0.026 A 
ATOM     32  C   UNL     1      -2.580  -0.234  -2.603  0.00  0.00    +0.009 A 
ATOM     33  C   UNL     1      -3.064  -0.604  -3.844  0.00  0.00    +0.046 A 
ATOM     34  C   UNL     1      -2.807  -1.875  -4.336  0.00  0.00    +0.120 A 
ATOM     35  C   UNL     1      -2.059  -2.769  -3.585  0.00  0.00    +0.046 A 
ATOM     36  C   UNL     1      -1.573  -2.393  -2.348  0.00  0.00    +0.009 A 
BRANCH  34  37
ATOM     37  O   UNL     1      -3.286  -2.243  -5.554  0.00  0.00    -0.495 OA
ATOM     38  C   UNL     1      -4.048  -1.270  -6.272  0.00  0.00    +0.277 C 
ENDBRANCH  34  37
ENDBRANCH  30  31
ENDBRANCH  29  30
ENDBRANCH  24  25
ENDBRANCH   1  24
TORSDOF 9
