REMARK  Name = ZINC12305325
REMARK  6 active torsions:
REMARK  status: ('A' for Active; 'I' for Inactive)
REMARK    1  A    between atoms: C_4  and  C_7
REMARK    2  A    between atoms: C_10  and  C_13
REMARK    3  A    between atoms: C_14  and  C_19
REMARK    4  A    between atoms: C_19  and  N_49
REMARK    5  A    between atoms: C_20  and  C_21
REMARK    6  A    between atoms: C_20  and  N_49
REMARK                            x       y       z     vdW  Elec       q    Type
REMARK                         _______ _______ _______ _____ _____    ______ ____
ROOT
ATOM      1  C   UNL     1       6.011   2.241  -3.540  0.00  0.00    +0.094 A 
ATOM      2  C   UNL     1       6.189   1.025  -2.852  0.00  0.00    -0.019 A 
ATOM      3  C   UNL     1       6.438   0.063  -3.767  0.00  0.00    +0.107 A 
ATOM      4  N   UNL     1       6.427   0.638  -4.989  0.00  0.00    -0.284 N 
ATOM      5  H   UNL     1       6.582   0.169  -5.859  0.00  0.00    +0.188 HD
ATOM      6  N   UNL     1       6.162   2.003  -4.826  0.00  0.00    -0.174 NA
ENDROOT
BRANCH   1  10
ATOM      7  C   UNL     1       5.150   6.016  -1.775  0.00  0.00    -0.018 A 
ATOM      8  C   UNL     1       6.093   5.923  -2.799  0.00  0.00    +0.009 A 
ATOM      9  C   UNL     1       6.371   4.701  -3.370  0.00  0.00    +0.010 A 
ATOM     10  C   UNL     1       5.711   3.557  -2.925  0.00  0.00    +0.002 A 
ATOM     11  C   UNL     1       4.765   3.650  -1.905  0.00  0.00    +0.010 A 
ATOM     12  C   UNL     1       4.490   4.871  -1.330  0.00  0.00    +0.009 A 
BRANCH   7  16
ATOM     13  C   UNL     1       4.292   9.787  -0.010  0.00  0.00    +0.000 A 
ATOM     14  C   UNL     1       3.634   8.653   0.433  0.00  0.00    +0.001 A 
ATOM     15  C   UNL     1       3.909   7.427  -0.136  0.00  0.00    +0.008 A 
ATOM     16  C   UNL     1       4.851   7.331  -1.159  0.00  0.00    -0.018 A 
ATOM     17  C   UNL     1       5.514   8.476  -1.598  0.00  0.00    +0.008 A 
ATOM     18  C   UNL     1       5.227   9.698  -1.025  0.00  0.00    +0.001 A 
ENDBRANCH   7  16
ENDBRANCH   1  10
BRANCH   2  19
ATOM     19  C   UNL     1       6.108   0.830  -1.359  0.00  0.00    -0.043 C 
BRANCH  19  20
ATOM     20  N   UNL     1       7.326   1.380  -0.734  0.00  0.00    +0.385 N 
ATOM     21  H   UNL     1       7.443   2.358  -1.023  0.00  0.00    -0.085 HD
ATOM     22  H   UNL     1       8.140   0.833  -1.039  0.00  0.00    -0.085 HD
BRANCH  20  23
ATOM     23  C   UNL     1       7.220   1.316   0.736  0.00  0.00    -0.026 C 
BRANCH  23  24
ATOM     24  C   UNL     1       8.475   1.884   1.347  0.00  0.00    +0.026 A 
ATOM     25  C   UNL     1       8.659   3.154   1.768  0.00  0.00    +0.132 A 
ATOM     26  N   UNL     1       9.899   3.270   2.247  0.00  0.00    -0.236 NA
ATOM     27  C   UNL     1      10.517   2.101   2.143  0.00  0.00    +0.138 A 
ATOM     28  N   UNL     1       9.643   1.209   1.578  0.00  0.00    -0.305 N 
ATOM     29  C   UNL     1      10.023  -0.083   1.354  0.00  0.00    +0.093 A 
ATOM     30  C   UNL     1      11.262  -0.502   1.684  0.00  0.00    +0.018 A 
ATOM     31  C   UNL     1      12.181   0.389   2.263  0.00  0.00    +0.005 A 
ATOM     32  C   UNL     1      11.813   1.678   2.497  0.00  0.00    +0.047 A 
ENDBRANCH  23  24
ENDBRANCH  20  23
ENDBRANCH  19  20
ENDBRANCH   2  19
TORSDOF 6
