REMARK  Name = ZINC36602768
REMARK  14 active torsions:
REMARK  status: ('A' for Active; 'I' for Inactive)
REMARK    1  A    between atoms: C_1  and  C_2
REMARK    2  A    between atoms: C_2  and  C_3
REMARK    3  A    between atoms: C_3  and  C_4
REMARK    4  A    between atoms: C_4  and  N_5
REMARK    5  A    between atoms: C_6  and  C_8
REMARK    6  A    between atoms: C_8  and  C_10
REMARK    7  A    between atoms: C_8  and  N_19
REMARK    8  A    between atoms: C_11  and  O_18
REMARK    9  A    between atoms: C_13  and  O_17
REMARK   10  A    between atoms: C_15  and  O_16
REMARK   11  A    between atoms: N_19  and  C_20
REMARK   12  A    between atoms: C_20  and  C_21
REMARK   13  A    between atoms: C_24  and  C_26
REMARK   14  A    between atoms: C_27  and  C_29
REMARK                            x       y       z     vdW  Elec       q    Type
REMARK                         _______ _______ _______ _____ _____    ______ ____
ROOT
ATOM      1  C   UNL     1      -3.803  -4.492   0.264  0.00  0.00    +0.200 C 
ENDROOT
BRANCH   1   2
ATOM      2  C   UNL     1      -3.994  -3.971   1.665  0.00  0.00    +0.065 A 
ATOM      3  C   UNL     1      -3.426  -4.642   2.738  0.00  0.00    +0.129 A 
ATOM      4  C   UNL     1      -3.602  -4.162   4.027  0.00  0.00    +0.091 A 
ATOM      5  C   UNL     1      -4.346  -3.012   4.244  0.00  0.00    +0.124 A 
ATOM      6  C   UNL     1      -4.914  -2.341   3.171  0.00  0.00    +0.091 A 
ATOM      7  C   UNL     1      -4.734  -2.818   1.881  0.00  0.00    +0.129 A 
BRANCH   7   8
ATOM      8  O   UNL     1      -5.286  -2.158   0.829  0.00  0.00    -0.506 OA
ATOM      9  H   UNL     1      -6.179  -2.453   0.605  0.00  0.00    +0.292 HD
ENDBRANCH   7   8
BRANCH   5  10
ATOM     10  O   UNL     1      -4.520  -2.543   5.507  0.00  0.00    -0.507 OA
ATOM     11  H   UNL     1      -3.839  -1.919   5.792  0.00  0.00    +0.292 HD
ENDBRANCH   5  10
BRANCH   3  12
ATOM     12  O   UNL     1      -2.697  -5.769   2.526  0.00  0.00    -0.506 OA
ATOM     13  H   UNL     1      -1.744  -5.615   2.462  0.00  0.00    +0.292 HD
ENDBRANCH   3  12
ENDBRANCH   1   2
BRANCH   1  15
ATOM     14  N   UNL     1      -1.478  -3.666   0.085  0.00  0.00    -0.313 N 
ATOM     15  C   UNL     1      -2.333  -4.704   0.004  0.00  0.00    +0.238 C 
ATOM     16  O   UNL     1      -1.921  -5.809  -0.279  0.00  0.00    -0.273 OA
ATOM     17  H   UNL     1      -1.808  -2.782   0.311  0.00  0.00    +0.149 HD
BRANCH  14  18
ATOM     18  C   UNL     1      -0.050  -3.872  -0.169  0.00  0.00    +0.104 C 
BRANCH  18  19
ATOM     19  C   UNL     1       0.693  -2.544  -0.012  0.00  0.00    +0.018 C 
BRANCH  19  21
ATOM     20  C   UNL     1       2.927  -1.430  -0.121  0.00  0.00    +0.004 C 
ATOM     21  C   UNL     1       2.184  -2.759  -0.277  0.00  0.00    -0.002 C 
ENDBRANCH  19  21
ENDBRANCH  18  19
ENDBRANCH  14  18
ENDBRANCH   1  15
BRANCH   1  22
ATOM     22  N   UNL     1      -4.513  -5.764   0.115  0.00  0.00    -0.274 N 
ATOM     23  C   UNL     1      -4.338  -6.508  -0.996  0.00  0.00    +0.248 C 
ATOM     24  O   UNL     1      -5.023  -7.495  -1.181  0.00  0.00    -0.270 OA
BRANCH  23  25
ATOM     25  C   UNL     1      -3.315  -6.123  -1.989  0.00  0.00    +0.037 A 
ATOM     26  C   UNL     1      -2.851  -4.807  -2.043  0.00  0.00    +0.016 A 
ATOM     27  C   UNL     1      -1.895  -4.453  -2.971  0.00  0.00    +0.039 A 
ATOM     28  C   UNL     1      -1.395  -5.401  -3.850  0.00  0.00    +0.123 A 
ATOM     29  C   UNL     1      -1.852  -6.709  -3.801  0.00  0.00    +0.039 A 
ATOM     30  C   UNL     1      -2.803  -7.075  -2.873  0.00  0.00    +0.016 A 
ATOM     31  F   UNL     1      -0.459  -5.048  -4.759  0.00  0.00    -0.205 F 
ENDBRANCH  23  25
BRANCH  22  32
ATOM     32  C   UNL     1      -5.415  -6.229   1.172  0.00  0.00    +0.183 C 
BRANCH  32  33
ATOM     33  C   UNL     1      -6.833  -5.860   0.821  0.00  0.00    +0.122 A 
ATOM     34  C   UNL     1      -7.726  -6.660   0.211  0.00  0.00    +0.046 A 
ATOM     35  C   UNL     1      -8.920  -5.915   0.079  0.00  0.00    +0.045 A 
ATOM     36  C   UNL     1      -8.686  -4.704   0.617  0.00  0.00    +0.102 A 
ATOM     37  O   UNL     1      -7.422  -4.679   1.070  0.00  0.00    -0.463 OA
ATOM     38  C   UNL     1      -9.676  -3.571   0.701  0.00  0.00    +0.086 C 
ENDBRANCH  32  33
ENDBRANCH  22  32
ENDBRANCH   1  22
TORSDOF 12
