REMARK  Name = ZINC06193681
REMARK  10 active torsions:
REMARK  status: ('A' for Active; 'I' for Inactive)
REMARK    1  A    between atoms: C_1  and  C_2
REMARK    2  A    between atoms: C_2  and  N_63
REMARK    3  A    between atoms: C_3  and  C_4
REMARK    4  A    between atoms: C_3  and  N_63
REMARK    5  A    between atoms: C_10  and  C_12
REMARK    6  A    between atoms: C_10  and  C_25
REMARK    7  A    between atoms: C_10  and  N_63
REMARK    8  A    between atoms: C_18  and  C_24
REMARK    9  A    between atoms: N_29  and  C_30
REMARK   10  A    between atoms: C_30  and  C_31
REMARK                            x       y       z     vdW  Elec       q    Type
REMARK                         _______ _______ _______ _____ _____    ______ ____
ROOT
ATOM      1  C   UNL     1      -0.082  -1.972   5.024  0.00  0.00    +0.039 C 
ENDROOT
BRANCH   1   2
ATOM      2  C   UNL     1      -0.382  -1.331   3.694  0.00  0.00    +0.011 A 
ATOM      3  C   UNL     1       0.499  -0.454   3.152  0.00  0.00    +0.017 A 
ATOM      4  C   UNL     1       0.177   0.152   1.859  0.00  0.00    -0.001 A 
ATOM      5  C   UNL     1       1.047   1.063   1.250  0.00  0.00    +0.010 A 
ATOM      6  C   UNL     1       0.718   1.610   0.043  0.00  0.00    +0.001 A 
ATOM      7  C   UNL     1      -0.470   1.266  -0.588  0.00  0.00    +0.005 A 
ATOM      8  C   UNL     1      -1.345   0.376  -0.004  0.00  0.00    -0.026 A 
ATOM      9  C   UNL     1      -1.031  -0.195   1.225  0.00  0.00    +0.052 A 
ATOM     10  N   UNL     1      -1.884  -1.093   1.829  0.00  0.00    -0.322 N 
ATOM     11  H   UNL     1      -2.742  -1.339   1.377  0.00  0.00    +0.169 HD
ATOM     12  C   UNL     1      -1.580  -1.645   3.017  0.00  0.00    +0.251 A 
ATOM     13  O   UNL     1      -2.358  -2.436   3.521  0.00  0.00    -0.268 OA
ATOM     14  C   UNL     1      -2.634   0.016  -0.698  0.00  0.00    +0.046 C 
ENDBRANCH   1   2
BRANCH   1  15
ATOM     15  C   UNL     1       1.319  -1.614   5.449  0.00  0.00    +0.143 A 
ATOM     16  N   UNL     1       1.704  -0.495   6.011  0.00  0.00    -0.115 NA
ATOM     17  N   UNL     1       2.973  -0.571   6.222  0.00  0.00    -0.023 NA
ATOM     18  N   UNL     1       3.407  -1.711   5.810  0.00  0.00    -0.044 NA
ATOM     19  N   UNL     1       2.416  -2.385   5.331  0.00  0.00    -0.226 N 
BRANCH  19  20
ATOM     20  C   UNL     1       2.475  -3.734   4.763  0.00  0.00    +0.182 C 
BRANCH  20  21
ATOM     21  C   UNL     1       2.884  -3.652   3.315  0.00  0.00    -0.026 A 
ATOM     22  C   UNL     1       1.924  -3.478   2.335  0.00  0.00    +0.008 A 
ATOM     23  C   UNL     1       2.298  -3.398   1.007  0.00  0.00    +0.038 A 
ATOM     24  C   UNL     1       3.634  -3.502   0.657  0.00  0.00    +0.123 A 
ATOM     25  C   UNL     1       4.594  -3.681   1.639  0.00  0.00    +0.038 A 
ATOM     26  C   UNL     1       4.218  -3.756   2.967  0.00  0.00    +0.008 A 
ATOM     27  F   UNL     1       4.000  -3.428  -0.641  0.00  0.00    -0.205 F 
ENDBRANCH  20  21
ENDBRANCH  19  20
ENDBRANCH   1  15
BRANCH   1  28
ATOM     28  N   UNL     1      -1.023  -1.484   6.054  0.00  0.00    +0.392 N 
ATOM     29  H   UNL     1      -0.519  -1.375   6.942  0.00  0.00    -0.080 HD
BRANCH  28  31
ATOM     30  C   UNL     1      -0.529   0.905   5.922  0.00  0.00    -0.017 C 
ATOM     31  C   UNL     1      -1.578  -0.175   5.651  0.00  0.00    -0.080 C 
ENDBRANCH  28  31
BRANCH  28  32
ATOM     32  C   UNL     1      -2.118  -2.461   6.241  0.00  0.00    -0.042 C 
BRANCH  32  33
ATOM     33  C   UNL     1      -1.610  -3.598   7.089  0.00  0.00    -0.064 A 
ATOM     34  C   UNL     1      -1.041  -4.706   6.491  0.00  0.00    +0.002 A 
ATOM     35  C   UNL     1      -0.570  -5.747   7.270  0.00  0.00    +0.000 A 
ATOM     36  C   UNL     1      -0.680  -5.684   8.646  0.00  0.00    +0.000 A 
ATOM     37  C   UNL     1      -1.254  -4.578   9.245  0.00  0.00    +0.000 A 
ATOM     38  C   UNL     1      -1.719  -3.535   8.466  0.00  0.00    +0.002 A 
ENDBRANCH  32  33
ENDBRANCH  28  32
ENDBRANCH   1  28
TORSDOF 8
