REMARK  Name = ZINC04628702
REMARK  9 active torsions:
REMARK  status: ('A' for Active; 'I' for Inactive)
REMARK    1  A    between atoms: C_1  and  C_2
REMARK    2  A    between atoms: C_2  and  C_3
REMARK    3  A    between atoms: C_3  and  C_4
REMARK    4  A    between atoms: C_3  and  C_5
REMARK    5  A    between atoms: C_3  and  C_6
REMARK    6  A    between atoms: C_13  and  N_18
REMARK    7  A    between atoms: C_14  and  C_15
REMARK    8  A    between atoms: C_19  and  C_21
REMARK    9  A    between atoms: C_24  and  C_26
REMARK                            x       y       z     vdW  Elec       q    Type
REMARK                         _______ _______ _______ _____ _____    ______ ____
ROOT
ATOM      1  C   UNL     1       5.979   0.477  -7.709  0.00  0.00    -0.000 C 
ATOM      2  C   UNL     1       5.460   1.673  -8.514  0.00  0.00    +0.009 C 
ATOM      3  C   UNL     1       5.482   2.933  -7.647  0.00  0.00    +0.037 C 
ATOM      4  C   UNL     1       4.749   2.643  -6.343  0.00  0.00    -0.023 A 
ATOM      5  C   UNL     1       4.531   1.374  -5.935  0.00  0.00    -0.004 A 
ATOM      6  S   UNL     1       3.662   1.536  -4.400  0.00  0.00    -0.077 S 
ATOM      7  C   UNL     1       3.589   3.264  -4.301  0.00  0.00    +0.084 A 
ATOM      8  C   UNL     1       4.232   3.675  -5.460  0.00  0.00    +0.068 A 
ATOM      9  C   UNL     1       4.941   0.116  -6.636  0.00  0.00    +0.046 C 
ENDROOT
BRANCH   8  10
ATOM     10  C   UNL     1       4.389   5.097  -5.779  0.00  0.00    +0.244 C 
ATOM     11  O   UNL     1       5.373   5.702  -5.396  0.00  0.00    -0.270 OA
ATOM     12  N   UNL     1       3.443   5.735  -6.497  0.00  0.00    -0.325 N 
ATOM     13  H   UNL     1       2.658   5.253  -6.802  0.00  0.00    +0.145 HD
ATOM     14  H   UNL     1       3.546   6.676  -6.708  0.00  0.00    +0.145 HD
ENDBRANCH   8  10
BRANCH   7  15
ATOM     15  N   UNL     1       3.019   4.047  -3.308  0.00  0.00    -0.279 N 
ATOM     16  C   UNL     1       2.427   3.463  -2.248  0.00  0.00    +0.221 C 
ATOM     17  O   UNL     1       2.391   2.254  -2.162  0.00  0.00    -0.275 OA
ATOM     18  H   UNL     1       3.048   5.014  -3.377  0.00  0.00    +0.155 HD
BRANCH  16  19
ATOM     19  C   UNL     1       1.808   4.314  -1.168  0.00  0.00    +0.083 C 
ATOM     20  C   UNL     1       2.485   4.316   0.204  0.00  0.00    +0.022 C 
ATOM     21  C   UNL     1       1.151   3.592   0.010  0.00  0.00    +0.032 C 
BRANCH  21  22
ATOM     22  C   UNL     1       1.171   2.086   0.002  0.00  0.00    -0.044 A 
ATOM     23  C   UNL     1      -0.017   1.378   0.010  0.00  0.00    +0.004 A 
ATOM     24  C   UNL     1       0.002  -0.004   0.002  0.00  0.00    +0.000 A 
ATOM     25  C   UNL     1       1.208  -0.679  -0.014  0.00  0.00    +0.000 A 
ATOM     26  C   UNL     1       2.396   0.029  -0.021  0.00  0.00    +0.000 A 
ATOM     27  C   UNL     1       2.377   1.411  -0.014  0.00  0.00    +0.004 A 
ENDBRANCH  21  22
ENDBRANCH  16  19
ENDBRANCH   7  15
BRANCH   1  28
ATOM     28  C   UNL     1       6.189  -0.717  -8.642  0.00  0.00    -0.032 C 
ATOM     29  C   UNL     1       4.864  -1.077  -9.316  0.00  0.00    +0.011 C 
ATOM     30  C   UNL     1       7.223  -0.354  -9.710  0.00  0.00    +0.011 C 
BRANCH  28  32
ATOM     31  C   UNL     1       6.900  -3.109  -8.765  0.00  0.00    +0.004 C 
ATOM     32  C   UNL     1       6.690  -1.914  -7.832  0.00  0.00    +0.003 C 
ENDBRANCH  28  32
ENDBRANCH   1  28
TORSDOF 6
