REMARK  Name = ZINC10801550
REMARK  5 active torsions:
REMARK  status: ('A' for Active; 'I' for Inactive)
REMARK    1  A    between atoms: C_1  and  C_2
REMARK    2  A    between atoms: C_2  and  C_20
REMARK    3  A    between atoms: N_5  and  N_9
REMARK    4  A    between atoms: C_10  and  C_12
REMARK    5  A    between atoms: C_12  and  C_13
REMARK                            x       y       z     vdW  Elec       q    Type
REMARK                         _______ _______ _______ _____ _____    ______ ____
ROOT
ATOM      1  C   UNL     1       4.955   4.649  -6.072  0.00  0.00    +0.047 C 
ATOM      2  C   UNL     1       6.043   4.366  -5.034  0.00  0.00    +0.137 C 
ATOM      3  C   UNL     1       5.507   4.571  -3.631  0.00  0.00    +0.267 C 
ATOM      4  O   UNL     1       5.072   5.599  -3.156  0.00  0.00    -0.271 OA
ATOM      5  N   UNL     1       5.614   3.374  -3.021  0.00  0.00    -0.137 N 
ATOM      6  C   UNL     1       6.142   2.452  -3.834  0.00  0.00    +0.327 C 
ATOM      7  O   UNL     1       6.340   1.298  -3.508  0.00  0.00    -0.251 OA
ATOM      8  N   UNL     1       6.425   2.943  -5.054  0.00  0.00    -0.280 N 
ATOM      9  H   UNL     1       6.809   2.457  -5.800  0.00  0.00    +0.152 HD
ENDROOT
BRANCH   2  10
ATOM     10  C   UNL     1       7.245   5.241  -5.276  0.00  0.00    -0.015 A 
ATOM     11  C   UNL     1       7.356   6.458  -4.629  0.00  0.00    +0.006 A 
ATOM     12  C   UNL     1       8.461   7.259  -4.847  0.00  0.00    +0.000 A 
ATOM     13  C   UNL     1       9.451   6.848  -5.720  0.00  0.00    +0.000 A 
ATOM     14  C   UNL     1       9.338   5.634  -6.371  0.00  0.00    +0.000 A 
ATOM     15  C   UNL     1       8.235   4.830  -6.149  0.00  0.00    +0.006 A 
ENDBRANCH   2  10
BRANCH   5  16
ATOM     16  N   UNL     1       5.226   3.128  -1.698  0.00  0.00    -0.223 N 
ATOM     17  C   UNL     1       4.090   2.448  -1.444  0.00  0.00    +0.234 C 
ATOM     18  O   UNL     1       3.404   2.050  -2.362  0.00  0.00    -0.274 OA
ATOM     19  H   UNL     1       5.774   3.446  -0.964  0.00  0.00    +0.174 HD
BRANCH  17  20
ATOM     20  C   UNL     1       3.672   2.183  -0.021  0.00  0.00    +0.132 C 
BRANCH  20  21
ATOM     21  C   UNL     1       2.377   1.411  -0.013  0.00  0.00    -0.039 A 
ATOM     22  C   UNL     1       1.171   2.086   0.002  0.00  0.00    +0.005 A 
ATOM     23  C   UNL     1      -0.017   1.379   0.010  0.00  0.00    +0.015 A 
ATOM     24  C   UNL     1       0.002  -0.004   0.002  0.00  0.00    +0.018 A 
ATOM     25  C   UNL     1       1.210  -0.679  -0.013  0.00  0.00    +0.015 A 
ATOM     26  C   UNL     1       2.397   0.029  -0.021  0.00  0.00    +0.005 A 
ATOM     27 BR   UNL     1      -1.622  -0.972   0.013  0.00  0.00    -0.050 Br
ENDBRANCH  20  21
ENDBRANCH  17  20
ENDBRANCH   5  16
TORSDOF 4
