REMARK  Name = ZINC20558675
REMARK  6 active torsions:
REMARK  status: ('A' for Active; 'I' for Inactive)
REMARK    1  A    between atoms: C_1  and  C_2
REMARK    2  A    between atoms: C_7  and  C_8
REMARK    3  A    between atoms: C_8  and  N_9
REMARK    4  A    between atoms: C_21  and  C_29
REMARK    5  A    between atoms: C_23  and  C_27
REMARK    6  A    between atoms: C_24  and  N_26
REMARK                            x       y       z     vdW  Elec       q    Type
REMARK                         _______ _______ _______ _____ _____    ______ ____
ROOT
ATOM      1  N   UNL     1       2.834   3.955   0.109  0.00  0.00    -0.198 N 
ATOM      2  C   UNL     1       1.676   3.170   0.169  0.00  0.00    +0.062 A 
ATOM      3  C   UNL     1       0.443   3.806   0.246  0.00  0.00    +0.025 A 
ATOM      4  C   UNL     1      -0.717   3.061   0.320  0.00  0.00    +0.002 A 
ATOM      5  C   UNL     1      -0.655   1.678   0.310  0.00  0.00    +0.001 A 
ATOM      6  C   UNL     1       0.561   1.036   0.234  0.00  0.00    +0.013 A 
ATOM      7  C   UNL     1       1.748   1.777   0.158  0.00  0.00    +0.042 A 
ATOM      8  C   UNL     1       3.025   1.030   0.064  0.00  0.00    +0.162 C 
ATOM      9  C   UNL     1       4.193   1.609   0.323  0.00  0.00    +0.141 C 
ATOM     10  S   UNL     1       4.215   3.317   0.786  0.00  0.00    +0.076 S 
ATOM     11  O   UNL     1       4.048   3.368   2.196  0.00  0.00    -0.150 OA
ATOM     12  O   UNL     1       5.319   3.914   0.120  0.00  0.00    -0.150 OA
ATOM     13  C   UNL     1       5.489   0.853   0.231  0.00  0.00    +0.118 C 
ATOM     14  C   UNL     1       5.228  -0.628   0.249  0.00  0.00    +0.099 C 
ATOM     15  C   UNL     1       3.986  -1.106  -0.017  0.00  0.00    +0.199 C 
ATOM     16  O   UNL     1       2.969  -0.278  -0.302  0.00  0.00    -0.439 OA
ENDROOT
BRANCH  13  17
ATOM     17  C   UNL     1       6.193   1.221  -1.050  0.00  0.00    -0.033 A 
ATOM     18  C   UNL     1       5.589   0.967  -2.267  0.00  0.00    +0.004 A 
ATOM     19  C   UNL     1       6.232   1.308  -3.442  0.00  0.00    +0.000 A 
ATOM     20  C   UNL     1       7.483   1.895  -3.400  0.00  0.00    +0.000 A 
ATOM     21  C   UNL     1       8.089   2.144  -2.183  0.00  0.00    +0.000 A 
ATOM     22  C   UNL     1       7.444   1.807  -1.008  0.00  0.00    +0.004 A 
ENDBRANCH  13  17
BRANCH  15  23
ATOM     23  N   UNL     1       3.767  -2.461   0.006  0.00  0.00    -0.328 N 
ATOM     24  H   UNL     1       2.764  -2.859  -0.209  0.00  0.00    +0.145 HD
ATOM     25  H   UNL     1       4.594  -3.148   0.238  0.00  0.00    +0.145 HD
ENDBRANCH  15  23
BRANCH  14  26
ATOM     26  C   UNL     1       6.294  -1.537   0.548  0.00  0.00    +0.101 C 
ATOM     27  N   UNL     1       7.139  -2.258   0.785  0.00  0.00    -0.191 NA
ENDBRANCH  14  26
BRANCH   1  28
ATOM     28  C   UNL     1       2.831   5.277  -0.522  0.00  0.00    +0.167 C 
BRANCH  28  35
ATOM     29  C   UNL     1       2.880   7.615  -2.219  0.00  0.00    +0.044 C 
ATOM     30  C   UNL     1       3.040   6.243  -2.821  0.00  0.00    -0.046 A 
ATOM     31  C   UNL     1       3.210   6.103  -4.186  0.00  0.00    +0.003 A 
ATOM     32  C   UNL     1       3.357   4.845  -4.739  0.00  0.00    +0.000 A 
ATOM     33  C   UNL     1       3.333   3.726  -3.927  0.00  0.00    +0.000 A 
ATOM     34  C   UNL     1       3.168   3.866  -2.562  0.00  0.00    +0.005 A 
ATOM     35  C   UNL     1       3.016   5.125  -2.010  0.00  0.00    -0.025 A 
ENDBRANCH  28  35
ENDBRANCH   1  28
TORSDOF 5
