REMARK  Name = ZINC40987518
REMARK  12 active torsions:
REMARK  status: ('A' for Active; 'I' for Inactive)
REMARK    1  A    between atoms: C_1  and  C_2
REMARK    2  A    between atoms: C_2  and  O_3
REMARK    3  A    between atoms: O_3  and  C_4
REMARK    4  A    between atoms: C_4  and  C_6
REMARK    5  A    between atoms: C_7  and  C_36
REMARK    6  A    between atoms: C_8  and  C_31
REMARK    7  A    between atoms: C_10  and  N_11
REMARK    8  A    between atoms: C_12  and  C_14
REMARK    9  A    between atoms: N_17  and  C_19
REMARK   10  A    between atoms: C_31  and  O_33
REMARK   11  A    between atoms: O_33  and  C_34
REMARK   12  A    between atoms: C_34  and  C_35
REMARK                            x       y       z     vdW  Elec       q    Type
REMARK                         _______ _______ _______ _____ _____    ______ ____
ROOT
ATOM      1  N   UNL     1       3.749  -2.426   1.393  0.00  0.00    -0.274 N 
ATOM      2  C   UNL     1       5.053  -2.736   1.539  0.00  0.00    +0.269 C 
ATOM      3  O   UNL     1       5.454  -3.195   2.591  0.00  0.00    -0.268 OA
ATOM      4  H   UNL     1       3.429  -2.060   0.553  0.00  0.00    +0.156 HD
ENDROOT
BRANCH   2   5
ATOM      5  C   UNL     1       5.994  -2.518   0.422  0.00  0.00    +0.151 A 
ATOM      6  C   UNL     1       7.372  -2.794   0.419  0.00  0.00    +0.006 A 
ATOM      7  C   UNL     1       7.821  -2.435  -0.808  0.00  0.00    +0.044 A 
ATOM      8  N   UNL     1       6.765  -1.973  -1.498  0.00  0.00    -0.263 N 
ATOM      9  N   UNL     1       5.703  -2.030  -0.772  0.00  0.00    -0.166 NA
ATOM     10  C   UNL     1       9.257  -2.559  -1.246  0.00  0.00    +0.055 C 
ATOM     11  C   UNL     1      10.130  -2.737   0.003  0.00  0.00    +0.006 C 
ATOM     12  C   UNL     1       9.549  -3.848   0.882  0.00  0.00    +0.005 C 
ATOM     13  C   UNL     1       8.233  -3.369   1.510  0.00  0.00    +0.039 C 
BRANCH   8  14
ATOM     14  C   UNL     1       6.814  -1.482  -2.878  0.00  0.00    +0.130 C 
ATOM     15  C   UNL     1       5.876  -2.329  -3.755  0.00  0.00    +0.051 C 
ATOM     16  C   UNL     1       5.705  -1.604  -5.120  0.00  0.00    +0.168 C 
ATOM     17  S   UNL     1       5.566   0.145  -4.558  0.00  0.00    -0.029 S 
ATOM     18  O   UNL     1       6.371   0.965  -5.396  0.00  0.00    -0.174 OA
ATOM     19  O   UNL     1       4.194   0.466  -4.377  0.00  0.00    -0.174 OA
ATOM     20  C   UNL     1       6.370   0.001  -2.911  0.00  0.00    +0.192 C 
ENDBRANCH   8  14
ENDBRANCH   2   5
BRANCH   1  25
ATOM     21  C   UNL     1       1.498  -2.372   2.469  0.00  0.00    +0.091 A 
ATOM     22  C   UNL     1       0.816  -2.667   3.641  0.00  0.00    -0.014 A 
ATOM     23  C   UNL     1       1.564  -3.184   4.665  0.00  0.00    +0.102 A 
ATOM     24  S   UNL     1       3.201  -3.244   3.964  0.00  0.00    -0.066 S 
ATOM     25  C   UNL     1       2.870  -2.630   2.436  0.00  0.00    +0.087 A 
ATOM     26  C   UNL     1      -0.666  -2.431   3.780  0.00  0.00    +0.046 C 
BRANCH  21  27
ATOM     27  C   UNL     1       0.801  -1.814   1.304  0.00  0.00    +0.342 C 
ATOM     28  O   UNL     1       0.321  -2.556   0.470  0.00  0.00    -0.245 OA
BRANCH  27  29
ATOM     29  O   UNL     1       0.693  -0.477   1.160  0.00  0.00    -0.461 OA
BRANCH  29  31
ATOM     30  C   UNL     1      -0.019   1.526   0.010  0.00  0.00    +0.048 C 
ATOM     31  C   UNL     1       0.002  -0.004   0.002  0.00  0.00    +0.229 C 
ENDBRANCH  29  31
ENDBRANCH  27  29
ENDBRANCH  21  27
BRANCH  23  32
ATOM     32  C   UNL     1       1.129  -3.587   6.002  0.00  0.00    +0.346 C 
ATOM     33  O   UNL     1      -0.041  -3.477   6.319  0.00  0.00    -0.244 OA
BRANCH  32  34
ATOM     34  O   UNL     1       2.023  -4.080   6.883  0.00  0.00    -0.461 OA
BRANCH  34  35
ATOM     35  C   UNL     1       1.528  -4.454   8.170  0.00  0.00    +0.229 C 
ATOM     36  C   UNL     1       2.679  -4.987   9.025  0.00  0.00    +0.048 C 
ENDBRANCH  34  35
ENDBRANCH  32  34
ENDBRANCH  23  32
ENDBRANCH   1  25
TORSDOF 9
