REMARK  Name = ZINC09444407
REMARK  6 active torsions:
REMARK  status: ('A' for Active; 'I' for Inactive)
REMARK    1  A    between atoms: C_3  and  C_6
REMARK    2  A    between atoms: N_10  and  C_14
REMARK    3  A    between atoms: C_14  and  C_15
REMARK    4  A    between atoms: C_15  and  C_16
REMARK    5  A    between atoms: C_16  and  C_17
REMARK    6  A    between atoms: N_19  and  C_20
REMARK                            x       y       z     vdW  Elec       q    Type
REMARK                         _______ _______ _______ _____ _____    ______ ____
ROOT
ATOM      1  C   UNL     1       5.926   1.238  -1.274  0.00  0.00    +0.029 C 
ENDROOT
BRANCH   1   2
ATOM      2  C   UNL     1       5.529   1.620   0.154  0.00  0.00    +0.115 C 
BRANCH   2   7
ATOM      3  C   UNL     1       0.919   3.453  -0.011  0.00  0.00    +0.066 C 
ATOM      4  C   UNL     1       2.282   3.481   0.034  0.00  0.00    +0.080 C 
ATOM      5  C   UNL     1       3.243   2.365   0.073  0.00  0.00    +0.258 C 
ATOM      6  O   UNL     1       2.874   1.204   0.068  0.00  0.00    -0.269 OA
ATOM      7  N   UNL     1       4.525   2.686   0.113  0.00  0.00    -0.255 N 
ATOM      8  C   UNL     1       4.929   3.973   0.118  0.00  0.00    +0.121 C 
ATOM      9  S   UNL     1       6.526   4.586   0.166  0.00  0.00    -0.027 S 
ATOM     10  S   UNL     1       3.393   4.881   0.054  0.00  0.00    -0.061 S 
BRANCH   3  13
ATOM     11  C   UNL     1      -1.365   0.678   0.302  0.00  0.00    +0.042 A 
ATOM     12  C   UNL     1      -1.128   2.034   0.029  0.00  0.00    +0.049 A 
ATOM     13  C   UNL     1       0.231   2.232   0.173  0.00  0.00    +0.129 A 
ATOM     14  O   UNL     1       0.784   1.051   0.521  0.00  0.00    -0.463 OA
ATOM     15  C   UNL     1      -0.174   0.116   0.602  0.00  0.00    +0.195 A 
ENDBRANCH   3  13
ENDBRANCH   2   7
ENDBRANCH   1   2
BRANCH   1  16
ATOM     16  C   UNL     1       6.975   0.125  -1.231  0.00  0.00    +0.097 C 
BRANCH  16  17
ATOM     17  C   UNL     1       7.366  -0.251  -2.637  0.00  0.00    +0.217 C 
ATOM     18  O   UNL     1       6.856   0.316  -3.580  0.00  0.00    -0.275 OA
ATOM     19  N   UNL     1       8.282  -1.217  -2.846  0.00  0.00    -0.285 N 
ATOM     20  H   UNL     1       8.631  -1.725  -2.097  0.00  0.00    +0.155 HD
BRANCH  19  21
ATOM     21  C   UNL     1       8.731  -1.487  -4.146  0.00  0.00    +0.037 A 
ATOM     22  C   UNL     1       8.839  -0.457  -5.071  0.00  0.00    +0.027 A 
ATOM     23  C   UNL     1       9.281  -0.722  -6.353  0.00  0.00    +0.051 A 
ATOM     24  C   UNL     1       9.618  -2.015  -6.719  0.00  0.00    +0.166 A 
ATOM     25  C   UNL     1       9.511  -3.050  -5.793  0.00  0.00    +0.168 A 
ATOM     26  C   UNL     1       9.073  -2.783  -4.506  0.00  0.00    +0.072 A 
ATOM     27  O   UNL     1       9.897  -4.214  -6.392  0.00  0.00    -0.453 OA
ATOM     28  C   UNL     1      10.629  -3.817  -7.567  0.00  0.00    +0.466 C 
ATOM     29  O   UNL     1      10.072  -2.532  -7.899  0.00  0.00    -0.453 OA
ENDBRANCH  19  21
ENDBRANCH  16  17
ENDBRANCH   1  16
TORSDOF 6
