REMARK  Name = ZINC59014441
REMARK  8 active torsions:
REMARK  status: ('A' for Active; 'I' for Inactive)
REMARK    1  A    between atoms: C_1  and  S_2
REMARK    2  A    between atoms: S_2  and  C_3
REMARK    3  A    between atoms: C_8  and  N_9
REMARK    4  A    between atoms: C_10  and  C_12
REMARK    5  A    between atoms: C_12  and  S_13
REMARK    6  A    between atoms: S_13  and  C_14
REMARK    7  A    between atoms: N_19  and  N_20
REMARK    8  A    between atoms: C_21  and  C_22
REMARK                            x       y       z     vdW  Elec       q    Type
REMARK                         _______ _______ _______ _____ _____    ______ ____
ROOT
ATOM      1  C   UNL     1       0.185  -7.911   0.420  0.00  0.00    +0.211 A 
ATOM      2  N   UNL     1       0.086  -9.241   0.518  0.00  0.00    -0.186 NA
ATOM      3  C   UNL     1       1.290  -9.772   0.578  0.00  0.00    +0.232 A 
ATOM      4  N   UNL     1       2.191  -8.768   0.516  0.00  0.00    -0.245 N 
ATOM      5  N   UNL     1       1.454  -7.578   0.409  0.00  0.00    -0.144 NA
ATOM      6  N   UNL     1       1.579 -11.119   0.685  0.00  0.00    -0.205 N 
ATOM      7  H   UNL     1       2.502 -11.415   0.722  0.00  0.00    +0.177 HD
ATOM      8  H   UNL     1       3.157  -8.853   0.539  0.00  0.00    +0.192 HD
ENDROOT
BRANCH   6   9
ATOM      9  N   UNL     1       0.540 -12.057   0.739  0.00  0.00    -0.187 NA
ATOM     10  C   UNL     1       0.812 -13.323   0.840  0.00  0.00    +0.140 C 
BRANCH  10  11
ATOM     11  C   UNL     1      -0.280 -14.309   0.897  0.00  0.00    +0.020 A 
ATOM     12  C   UNL     1      -0.152 -15.658   1.007  0.00  0.00    +0.093 A 
ATOM     13  N   UNL     1      -1.387 -16.237   1.029  0.00  0.00    -0.360 N 
ATOM     14  H   UNL     1      -1.552 -17.190   1.102  0.00  0.00    +0.165 HD
ATOM     15  C   UNL     1      -2.368 -15.272   0.932  0.00  0.00    +0.047 A 
ATOM     16  C   UNL     1      -1.725 -14.025   0.852  0.00  0.00    +0.008 A 
ATOM     17  C   UNL     1      -2.478 -12.858   0.751  0.00  0.00    +0.010 A 
ATOM     18  C   UNL     1      -3.854 -12.932   0.734  0.00  0.00    +0.001 A 
ATOM     19  C   UNL     1      -4.489 -14.163   0.817  0.00  0.00    +0.002 A 
ATOM     20  C   UNL     1      -3.757 -15.327   0.908  0.00  0.00    +0.026 A 
ENDBRANCH  10  11
ENDBRANCH   6   9
BRANCH   1  21
ATOM     21  S   UNL     1      -1.169  -6.789   0.313  0.00  0.00    -0.075 S 
BRANCH  21  22
ATOM     22  C   UNL     1      -0.380  -5.160   0.194  0.00  0.00    +0.173 C 
BRANCH  22  24
ATOM     23  N   UNL     1      -1.087  -2.797  -0.002  0.00  0.00    -0.284 N 
ATOM     24  C   UNL     1      -1.441  -4.094   0.096  0.00  0.00    +0.228 C 
ATOM     25  O   UNL     1      -2.614  -4.403   0.105  0.00  0.00    -0.275 OA
ATOM     26  H   UNL     1      -0.152  -2.555  -0.090  0.00  0.00    +0.155 HD
BRANCH  23  32
ATOM     27  C   UNL     1      -1.822  -0.559  -0.567  0.00  0.00    +0.029 A 
ATOM     28  C   UNL     1      -2.802   0.424  -0.543  0.00  0.00    +0.016 A 
ATOM     29  C   UNL     1      -4.016   0.175   0.069  0.00  0.00    +0.001 A 
ATOM     30  C   UNL     1      -4.258  -1.052   0.659  0.00  0.00    +0.002 A 
ATOM     31  C   UNL     1      -3.288  -2.037   0.640  0.00  0.00    +0.024 A 
ATOM     32  C   UNL     1      -2.070  -1.798   0.023  0.00  0.00    +0.047 A 
BRANCH  27  34
ATOM     33  C   UNL     1      -0.425   1.460  -1.950  0.00  0.00    +0.090 C 
ATOM     34  S   UNL     1      -0.274  -0.244  -1.347  0.00  0.00    -0.127 S 
ENDBRANCH  27  34
ENDBRANCH  23  32
ENDBRANCH  22  24
ENDBRANCH  21  22
ENDBRANCH   1  21
TORSDOF 7
