REMARK  Name = ZINC34367150
REMARK  8 active torsions:
REMARK  status: ('A' for Active; 'I' for Inactive)
REMARK    1  A    between atoms: C_1  and  C_2
REMARK    2  A    between atoms: C_7  and  C_8
REMARK    3  A    between atoms: N_16  and  C_19
REMARK    4  A    between atoms: C_19  and  C_20
REMARK    5  A    between atoms: C_20  and  C_21
REMARK    6  A    between atoms: C_23  and  C_25
REMARK    7  A    between atoms: C_23  and  C_36
REMARK    8  A    between atoms: C_25  and  C_26
REMARK                            x       y       z     vdW  Elec       q    Type
REMARK                         _______ _______ _______ _____ _____    ______ ____
ROOT
ATOM      1  C   UNL     1       0.058  -0.146   2.604  0.00  0.00    -0.026 C 
ATOM      2  C   UNL     1      -1.355  -0.037   3.169  0.00  0.00    +0.077 C 
ATOM      3  C   UNL     1      -0.947   0.184   4.675  0.00  0.00    +0.086 C 
ATOM      4  C   UNL     1      -2.165   0.712   5.240  0.00  0.00    +0.225 C 
ATOM      5  O   UNL     1      -2.592   0.542   6.362  0.00  0.00    -0.275 OA
ATOM      6  N   UNL     1      -2.734   1.448   4.231  0.00  0.00    -0.241 N 
ATOM      7  C   UNL     1      -2.160   1.212   2.999  0.00  0.00    +0.224 C 
ATOM      8  O   UNL     1      -2.273   1.875   1.991  0.00  0.00    -0.275 OA
ATOM      9  C   UNL     1       0.043  -0.872   4.920  0.00  0.00    +0.052 C 
ATOM     10  N   UNL     1       0.758  -1.024   3.598  0.00  0.00    +0.396 N 
ATOM     11  H   UNL     1       0.708  -1.987   3.299  0.00  0.00    -0.083 HD
ATOM     12  H   UNL     1       1.723  -0.741   3.684  0.00  0.00    -0.083 HD
ENDROOT
BRANCH   1  19
ATOM     13  C   UNL     1       2.459  -0.206   0.998  0.00  0.00    +0.044 C 
ATOM     14  C   UNL     1       1.187  -0.821   0.475  0.00  0.00    -0.049 A 
ATOM     15  C   UNL     1       1.171  -1.420  -0.772  0.00  0.00    +0.003 A 
ATOM     16  C   UNL     1       0.004  -1.984  -1.252  0.00  0.00    +0.000 A 
ATOM     17  C   UNL     1      -1.146  -1.951  -0.486  0.00  0.00    +0.000 A 
ATOM     18  C   UNL     1      -1.129  -1.354   0.761  0.00  0.00    +0.002 A 
ATOM     19  C   UNL     1       0.038  -0.793   1.243  0.00  0.00    -0.058 A 
ENDBRANCH   1  19
BRANCH   9  20
ATOM     20  C   UNL     1      -0.643  -2.151   5.325  0.00  0.00    +0.347 C 
ATOM     21  O   UNL     1      -0.501  -3.158   4.653  0.00  0.00    -0.248 OA
ATOM     22  O   UNL     1      -1.339  -2.179   6.326  0.00  0.00    -0.248 OA
ENDBRANCH   9  20
BRANCH   6  23
ATOM     23  C   UNL     1      -3.847   2.380   4.435  0.00  0.00    +0.129 C 
BRANCH  23  24
ATOM     24  C   UNL     1      -3.296   3.771   4.755  0.00  0.00    +0.108 C 
BRANCH  24  25
ATOM     25  C   UNL     1      -4.413   4.706   4.960  0.00  0.00    -0.104 C 
ATOM     26  C   UNL     1      -5.305   5.452   5.123  0.00  0.00    +0.004 C 
ENDBRANCH  24  25
ENDBRANCH  23  24
ENDBRANCH   6  23
BRANCH   9  27
ATOM     27  C   UNL     1       1.036  -0.433   5.998  0.00  0.00    +0.037 C 
BRANCH  27  28
ATOM     28  C   UNL     1       2.112  -1.478   6.146  0.00  0.00    -0.023 A 
ATOM     29  C   UNL     1       2.131  -2.484   7.034  0.00  0.00    +0.087 A 
ATOM     30  N   UNL     1       3.266  -3.230   6.870  0.00  0.00    -0.360 N 
ATOM     31  H   UNL     1       3.502  -4.010   7.397  0.00  0.00    +0.165 HD
ATOM     32  C   UNL     1       4.025  -2.708   5.846  0.00  0.00    +0.047 A 
ATOM     33  C   UNL     1       3.332  -1.592   5.343  0.00  0.00    +0.003 A 
ATOM     34  C   UNL     1       3.868  -0.859   4.283  0.00  0.00    +0.010 A 
ATOM     35  C   UNL     1       5.063  -1.233   3.735  0.00  0.00    +0.001 A 
ATOM     36  C   UNL     1       5.748  -2.336   4.225  0.00  0.00    +0.002 A 
ATOM     37  C   UNL     1       5.242  -3.068   5.277  0.00  0.00    +0.026 A 
ENDBRANCH  27  28
ENDBRANCH   9  27
TORSDOF 7
