REMARK  Name = ZINC01425156
REMARK  5 active torsions:
REMARK  status: ('A' for Active; 'I' for Inactive)
REMARK    1  A    between atoms: C_4  and  C_7
REMARK    2  A    between atoms: C_7  and  C_8
REMARK    3  A    between atoms: C_12  and  S_16
REMARK    4  A    between atoms: S_16  and  C_17
REMARK    5  A    between atoms: C_17  and  C_18
REMARK                            x       y       z     vdW  Elec       q    Type
REMARK                         _______ _______ _______ _____ _____    ______ ____
ROOT
ATOM      1  C   UNL     1       2.314  10.632  -0.921  0.00  0.00    +0.087 A 
ATOM      2  C   UNL     1       2.307  10.158  -2.238  0.00  0.00    +0.281 A 
ATOM      3  O   UNL     1       2.293  10.937  -3.178  0.00  0.00    -0.265 OA
ATOM      4  N   UNL     1       2.326   8.826  -2.451  0.00  0.00    -0.185 NA
ATOM      5  C   UNL     1       2.341   7.966  -1.394  0.00  0.00    +0.173 A 
ATOM      6  N   UNL     1       2.338   8.407  -0.152  0.00  0.00    -0.302 N 
ATOM      7  C   UNL     1       2.324   9.715   0.117  0.00  0.00    +0.259 A 
ATOM      8  O   UNL     1       2.331  10.144   1.401  0.00  0.00    -0.267 OA
ATOM      9  H   UNL     1       2.346   7.676   0.669  0.00  0.00    +0.171 HD
ENDROOT
BRANCH   1  10
ATOM     10  C   UNL     1       2.304  12.112  -0.637  0.00  0.00    +0.081 C 
BRANCH  10  14
ATOM     11  C   UNL     1       6.304  13.609  -0.745  0.00  0.00    +0.000 A 
ATOM     12  C   UNL     1       5.541  13.590  -1.898  0.00  0.00    +0.000 A 
ATOM     13  C   UNL     1       4.247  13.105  -1.863  0.00  0.00    +0.004 A 
ATOM     14  C   UNL     1       3.715  12.640  -0.675  0.00  0.00    -0.043 A 
ATOM     15  C   UNL     1       4.475  12.664   0.479  0.00  0.00    +0.004 A 
ATOM     16  C   UNL     1       5.771  13.144   0.443  0.00  0.00    +0.000 A 
ENDBRANCH  10  14
ENDBRANCH   1  10
BRANCH   5  17
ATOM     17  S   UNL     1       2.366   6.230  -1.694  0.00  0.00    -0.080 S 
BRANCH  17  18
ATOM     18  C   UNL     1       2.388   5.617   0.009  0.00  0.00    +0.151 C 
BRANCH  18  19
ATOM     19  C   UNL     1       2.411   4.110   0.001  0.00  0.00    +0.121 A 
ATOM     20  N   UNL     1       1.237   3.455   0.006  0.00  0.00    -0.233 NA
ATOM     21  H   UNL     1       4.495   4.103  -0.015  0.00  0.00    +0.170 HD
ATOM     22  C   UNL     1       1.205   2.075  -0.002  0.00  0.00    +0.078 A 
ATOM     23  C   UNL     1       0.010   1.367   0.002  0.00  0.00    +0.028 A 
ATOM     24  C   UNL     1       0.033  -0.011  -0.005  0.00  0.00    +0.002 A 
ATOM     25  C   UNL     1       1.238  -0.700  -0.018  0.00  0.00    +0.001 A 
ATOM     26  C   UNL     1       2.434  -0.015  -0.023  0.00  0.00    +0.015 A 
ATOM     27  C   UNL     1       2.426   1.377  -0.015  0.00  0.00    +0.065 A 
ATOM     28  C   UNL     1       3.671   2.167  -0.019  0.00  0.00    +0.259 A 
ATOM     29  O   UNL     1       4.760   1.621  -0.031  0.00  0.00    -0.267 OA
ATOM     30  N   UNL     1       3.568   3.510  -0.011  0.00  0.00    -0.310 N 
ENDBRANCH  18  19
ENDBRANCH  17  18
ENDBRANCH   5  17
TORSDOF 5
