REMARK  Name = ZINC44164057
REMARK  7 active torsions:
REMARK  status: ('A' for Active; 'I' for Inactive)
REMARK    1  A    between atoms: C_4  and  C_7
REMARK    2  A    between atoms: C_9  and  C_12
REMARK    3  A    between atoms: C_17  and  C_20
REMARK    4  A    between atoms: N_22  and  C_23
REMARK    5  A    between atoms: C_23  and  C_24
REMARK    6  A    between atoms: C_24  and  C_25
REMARK    7  A    between atoms: C_28  and  O_31
REMARK                            x       y       z     vdW  Elec       q    Type
REMARK                         _______ _______ _______ _____ _____    ______ ____
ROOT
ATOM      1  C   UNL     1       5.824  -3.720  -0.082  0.00  0.00    +0.010 C 
ATOM      2  C   UNL     1       6.251  -4.065  -1.514  0.00  0.00    +0.061 C 
ATOM      3  S   UNL     1       6.948  -5.746  -1.511  0.00  0.00    -0.163 S 
ATOM      4  C   UNL     1       8.141  -5.681  -0.137  0.00  0.00    +0.062 C 
ATOM      5  C   UNL     1       7.431  -5.094   1.088  0.00  0.00    +0.027 C 
ATOM      6  N   UNL     1       6.993  -3.726   0.800  0.00  0.00    +0.394 N 
ATOM      7  H   UNL     1       7.746  -3.224   0.354  0.00  0.00    -0.084 HD
ATOM      8  H   UNL     1       6.756  -3.266   1.666  0.00  0.00    -0.084 HD
ENDROOT
BRANCH   1  11
ATOM      9  C   UNL     1       3.699  -0.689  -0.037  0.00  0.00    +0.114 A 
ATOM     10  C   UNL     1       3.872  -2.094  -0.052  0.00  0.00    +0.074 A 
ATOM     11  C   UNL     1       5.191  -2.352  -0.065  0.00  0.00    +0.125 A 
ATOM     12  O   UNL     1       5.848  -1.182  -0.058  0.00  0.00    -0.361 OA
ATOM     13  N   UNL     1       4.889  -0.139  -0.047  0.00  0.00    -0.078 NA
BRANCH   9  17
ATOM     14  C   UNL     1      -0.017   1.379   0.010  0.00  0.00    +0.000 A 
ATOM     15  C   UNL     1       1.169   2.092   0.002  0.00  0.00    +0.001 A 
ATOM     16  C   UNL     1       2.377   1.426  -0.013  0.00  0.00    +0.010 A 
ATOM     17  C   UNL     1       2.402   0.033  -0.021  0.00  0.00    +0.004 A 
ATOM     18  C   UNL     1       1.205  -0.680  -0.013  0.00  0.00    +0.010 A 
ATOM     19  C   UNL     1       0.002  -0.004   0.002  0.00  0.00    +0.001 A 
ENDBRANCH   9  17
ENDBRANCH   1  11
BRANCH   5  20
ATOM     20  C   UNL     1       8.381  -5.078   2.258  0.00  0.00    +0.200 C 
ATOM     21  O   UNL     1       8.667  -4.027   2.792  0.00  0.00    -0.278 OA
ATOM     22  N   UNL     1       8.913  -6.231   2.710  0.00  0.00    -0.316 N 
ATOM     23  H   UNL     1       8.684  -7.071   2.282  0.00  0.00    +0.149 HD
BRANCH  22  24
ATOM     24  C   UNL     1       9.837  -6.215   3.846  0.00  0.00    +0.109 C 
BRANCH  24  25
ATOM     25  C   UNL     1      10.291  -7.643   4.154  0.00  0.00    +0.054 C 
BRANCH  25  26
ATOM     26  C   UNL     1      11.241  -7.627   5.324  0.00  0.00    -0.046 A 
ATOM     27  C   UNL     1      12.599  -7.483   5.108  0.00  0.00    +0.007 A 
ATOM     28  C   UNL     1      13.472  -7.469   6.178  0.00  0.00    +0.045 A 
ATOM     29  C   UNL     1      12.986  -7.598   7.471  0.00  0.00    +0.117 A 
ATOM     30  C   UNL     1      11.623  -7.742   7.685  0.00  0.00    +0.045 A 
ATOM     31  C   UNL     1      10.753  -7.751   6.612  0.00  0.00    +0.007 A 
BRANCH  29  32
ATOM     32  O   UNL     1      13.843  -7.585   8.525  0.00  0.00    -0.507 OA
ATOM     33  H   UNL     1      14.007  -6.703   8.887  0.00  0.00    +0.292 HD
ENDBRANCH  29  32
ENDBRANCH  25  26
ENDBRANCH  24  25
ENDBRANCH  22  24
ENDBRANCH   5  20
TORSDOF 7
