REMARK  Name = ZINC15776483
REMARK  7 active torsions:
REMARK  status: ('A' for Active; 'I' for Inactive)
REMARK    1  A    between atoms: C_1  and  C_2
REMARK    2  A    between atoms: C_5  and  S_8
REMARK    3  A    between atoms: S_8  and  N_11
REMARK    4  A    between atoms: N_11  and  N_12
REMARK    5  A    between atoms: C_13  and  C_14
REMARK    6  A    between atoms: C_13  and  C_20
REMARK    7  A    between atoms: C_20  and  C_30
REMARK                            x       y       z     vdW  Elec       q    Type
REMARK                         _______ _______ _______ _____ _____    ______ ____
ROOT
ATOM      1  N   UNL     1       2.537  -4.187   1.139  0.00  0.00    -0.166 NA
ATOM      2  C   UNL     1       3.680  -4.800   1.112  0.00  0.00    +0.117 C 
ENDROOT
BRANCH   2   3
ATOM      3  C   UNL     1       4.530  -4.863   2.355  0.00  0.00    +0.190 C 
ATOM      4  N   UNL     1       3.790  -4.279   3.486  0.00  0.00    -0.310 N 
ATOM      5  C   UNL     1       4.203  -4.657   4.764  0.00  0.00    +0.057 A 
ATOM      6  C   UNL     1       4.023  -3.843   5.866  0.00  0.00    +0.025 A 
ATOM      7  C   UNL     1       4.446  -4.274   7.110  0.00  0.00    +0.002 A 
ATOM      8  C   UNL     1       5.047  -5.514   7.255  0.00  0.00    +0.002 A 
ATOM      9  C   UNL     1       5.236  -6.336   6.164  0.00  0.00    +0.031 A 
ATOM     10  C   UNL     1       4.818  -5.914   4.902  0.00  0.00    +0.104 A 
ATOM     11  N   UNL     1       4.997  -6.689   3.796  0.00  0.00    -0.174 NA
ATOM     12  N   UNL     1       4.856  -6.257   2.652  0.00  0.00    -0.276 N 
ATOM     13  H   UNL     1       3.053  -3.664   3.350  0.00  0.00    +0.149 HD
ATOM     14  H   UNL     1       4.966  -6.872   1.910  0.00  0.00    +0.186 HD
BRANCH   3  15
ATOM     15  C   UNL     1       5.802  -4.086   2.133  0.00  0.00    +0.003 A 
ATOM     16  C   UNL     1       6.948  -4.739   1.718  0.00  0.00    +0.008 A 
ATOM     17  C   UNL     1       8.115  -4.027   1.515  0.00  0.00    +0.000 A 
ATOM     18  C   UNL     1       8.136  -2.661   1.726  0.00  0.00    +0.000 A 
ATOM     19  C   UNL     1       6.990  -2.007   2.140  0.00  0.00    +0.000 A 
ATOM     20  C   UNL     1       5.822  -2.719   2.339  0.00  0.00    +0.008 A 
ENDBRANCH   3  15
ENDBRANCH   2   3
BRANCH   2  21
ATOM     21  C   UNL     1       4.148  -5.434  -0.135  0.00  0.00    +0.002 A 
ATOM     22  C   UNL     1       3.856  -6.775  -0.392  0.00  0.00    +0.010 A 
ATOM     23  C   UNL     1       4.296  -7.362  -1.560  0.00  0.00    +0.001 A 
ATOM     24  C   UNL     1       5.026  -6.625  -2.476  0.00  0.00    +0.000 A 
ATOM     25  C   UNL     1       5.319  -5.295  -2.228  0.00  0.00    +0.001 A 
ATOM     26  C   UNL     1       4.881  -4.694  -1.066  0.00  0.00    +0.010 A 
ENDBRANCH   2  21
BRANCH   1  27
ATOM     27  N   UNL     1       1.695  -4.225   0.019  0.00  0.00    -0.136 N 
ATOM     28  H   UNL     1       1.999  -4.644  -0.801  0.00  0.00    +0.197 HD
BRANCH  27  29
ATOM     29  S   UNL     1       0.183  -3.555   0.097  0.00  0.00    +0.086 S 
ATOM     30  O   UNL     1      -0.464  -4.141   1.219  0.00  0.00    -0.149 OA
ATOM     31  O   UNL     1      -0.359  -3.622  -1.215  0.00  0.00    -0.149 OA
BRANCH  29  36
ATOM     32  C   UNL     1       0.884   2.299   1.376  0.00  0.00    +0.044 C 
ATOM     33  C   UNL     1       0.709   0.837   1.056  0.00  0.00    -0.050 A 
ATOM     34  C   UNL     1       0.680   0.416  -0.260  0.00  0.00    +0.005 A 
ATOM     35  C   UNL     1       0.519  -0.926  -0.553  0.00  0.00    +0.029 A 
ATOM     36  C   UNL     1       0.388  -1.846   0.470  0.00  0.00    +0.110 A 
ATOM     37  C   UNL     1       0.418  -1.425   1.787  0.00  0.00    +0.029 A 
ATOM     38  C   UNL     1       0.583  -0.084   2.080  0.00  0.00    +0.005 A 
ENDBRANCH  29  36
ENDBRANCH  27  29
ENDBRANCH   1  27
TORSDOF 6
