REMARK  Name = ZINC06813455
REMARK  10 active torsions:
REMARK  status: ('A' for Active; 'I' for Inactive)
REMARK    1  A    between atoms: C_1  and  C_2
REMARK    2  A    between atoms: C_9  and  C_32
REMARK    3  A    between atoms: C_10  and  C_11
REMARK    4  A    between atoms: C_11  and  C_12
REMARK    5  A    between atoms: C_13  and  C_25
REMARK    6  A    between atoms: N_15  and  C_20
REMARK    7  A    between atoms: C_20  and  C_21
REMARK    8  A    between atoms: C_21  and  N_22
REMARK    9  A    between atoms: N_22  and  C_23
REMARK   10  A    between atoms: N_22  and  C_24
REMARK                            x       y       z     vdW  Elec       q    Type
REMARK                         _______ _______ _______ _____ _____    ______ ____
ROOT
ATOM      1  C   UNL     1      -0.684  -5.263   4.001  0.00  0.00    +0.078 C 
ATOM      2  C   UNL     1      -0.662  -4.082   4.942  0.00  0.00    +0.145 C 
ATOM      3  N   UNL     1      -0.692  -4.641   6.299  0.00  0.00    -0.285 N 
ATOM      4  C   UNL     1      -0.727  -5.982   6.192  0.00  0.00    +0.288 C 
ATOM      5  O   UNL     1      -0.758  -6.755   7.129  0.00  0.00    -0.266 OA
ATOM      6  C   UNL     1      -0.727  -6.375   4.770  0.00  0.00    +0.249 C 
ATOM      7  O   UNL     1      -0.762  -7.647   4.309  0.00  0.00    -0.282 OA
ENDROOT
BRANCH   2   8
ATOM      8  C   UNL     1       0.598  -3.280   4.739  0.00  0.00    -0.022 A 
ATOM      9  C   UNL     1       1.807  -3.765   5.200  0.00  0.00    +0.006 A 
ATOM     10  C   UNL     1       2.963  -3.030   5.014  0.00  0.00    +0.000 A 
ATOM     11  C   UNL     1       2.909  -1.810   4.366  0.00  0.00    +0.000 A 
ATOM     12  C   UNL     1       1.700  -1.325   3.905  0.00  0.00    +0.000 A 
ATOM     13  C   UNL     1       0.544  -2.063   4.087  0.00  0.00    +0.006 A 
ENDBRANCH   2   8
BRANCH   1  14
ATOM     14  C   UNL     1      -0.667  -5.215   2.534  0.00  0.00    +0.213 C 
ATOM     15  O   UNL     1       0.368  -4.955   1.944  0.00  0.00    -0.285 OA
BRANCH  14  25
ATOM     16  C   UNL     1      -5.165  -6.244  -1.480  0.00  0.00    +0.047 C 
ATOM     17  C   UNL     1      -3.717  -5.964  -1.169  0.00  0.00    -0.008 A 
ATOM     18  C   UNL     1      -2.806  -5.851  -2.177  0.00  0.00    +0.008 A 
ATOM     19  C   UNL     1      -1.464  -5.590  -1.871  0.00  0.00    +0.018 A 
ATOM     20  C   UNL     1      -1.075  -5.451  -0.582  0.00  0.00    +0.093 A 
ATOM     21  N   UNL     1      -1.978  -5.563   0.428  0.00  0.00    -0.296 N 
ATOM     22  C   UNL     1      -3.295  -5.811   0.163  0.00  0.00    +0.141 A 
ATOM     23  N   UNL     1      -3.959  -5.865   1.318  0.00  0.00    -0.232 NA
ATOM     24  C   UNL     1      -3.128  -5.657   2.324  0.00  0.00    +0.068 A 
ATOM     25  C   UNL     1      -1.855  -5.469   1.803  0.00  0.00    +0.116 A 
ATOM     26  C   UNL     1      -3.497  -5.640   3.785  0.00  0.00    +0.068 C 
ENDBRANCH  14  25
ENDBRANCH   1  14
BRANCH   3  27
ATOM     27  C   UNL     1      -0.684  -3.875   7.548  0.00  0.00    +0.090 C 
BRANCH  27  28
ATOM     28  C   UNL     1      -2.123  -3.569   7.968  0.00  0.00    -0.060 C 
BRANCH  28  29
ATOM     29  N   UNL     1      -2.116  -2.801   9.220  0.00  0.00    +0.377 N 
ATOM     30  C   UNL     1      -1.492  -1.492   8.987  0.00  0.00    -0.097 C 
ATOM     31  C   UNL     1      -3.496  -2.610   9.686  0.00  0.00    -0.097 C 
ATOM     32  H   UNL     1      -1.591  -3.304   9.919  0.00  0.00    -0.083 HD
ENDBRANCH  28  29
ENDBRANCH  27  28
ENDBRANCH   3  27
TORSDOF 6
