REMARK  Name = ZINC63589216
REMARK  9 active torsions:
REMARK  status: ('A' for Active; 'I' for Inactive)
REMARK    1  A    between atoms: C_1  and  C_2
REMARK    2  A    between atoms: C_2  and  C_3
REMARK    3  A    between atoms: C_2  and  C_4
REMARK    4  A    between atoms: C_7  and  N_10
REMARK    5  A    between atoms: N_12  and  C_13
REMARK    6  A    between atoms: C_13  and  C_14
REMARK    7  A    between atoms: C_14  and  C_15
REMARK    8  A    between atoms: N_24  and  C_25
REMARK    9  A    between atoms: C_25  and  C_27
REMARK                            x       y       z     vdW  Elec       q    Type
REMARK                         _______ _______ _______ _____ _____    ______ ____
ROOT
ATOM      1  N   UNL     1       3.029  -1.571  -4.413  0.00  0.00    -0.328 N 
ATOM      2  C   UNL     1       3.824  -2.677  -4.511  0.00  0.00    +0.194 C 
ATOM      3  N   UNL     1       4.140  -3.183  -5.738  0.00  0.00    -0.357 N 
ATOM      4  N   UNL     1       4.288  -3.258  -3.416  0.00  0.00    -0.143 NA
ATOM      5  H   UNL     1       3.880  -2.706  -6.541  0.00  0.00    +0.162 HD
ATOM      6  H   UNL     1       3.096  -0.993  -3.637  0.00  0.00    +0.169 HD
ENDROOT
BRANCH   1  10
ATOM      7  C   UNL     1       0.314  -0.682  -7.446  0.00  0.00    -0.045 A 
ATOM      8  C   UNL     1       1.040   0.333  -6.850  0.00  0.00    +0.006 A 
ATOM      9  C   UNL     1       1.941   0.041  -5.844  0.00  0.00    +0.026 A 
ATOM     10  C   UNL     1       2.117  -1.273  -5.431  0.00  0.00    +0.042 A 
ATOM     11  C   UNL     1       1.386  -2.290  -6.031  0.00  0.00    +0.026 A 
ATOM     12  C   UNL     1       0.483  -1.991  -7.033  0.00  0.00    +0.006 A 
BRANCH   7  14
ATOM     13  C   UNL     1      -1.732   0.599  -8.008  0.00  0.00    +0.012 C 
ATOM     14  C   UNL     1      -0.668  -0.361  -8.542  0.00  0.00    +0.013 C 
ATOM     15  C   UNL     1       0.070   0.295  -9.711  0.00  0.00    +0.012 C 
ENDBRANCH   7  14
ENDBRANCH   1  10
BRANCH   4  16
ATOM     16  C   UNL     1       3.839  -2.875  -2.212  0.00  0.00    +0.270 C 
ATOM     17  O   UNL     1       2.879  -2.129  -2.130  0.00  0.00    -0.268 OA
BRANCH  16  18
ATOM     18  C   UNL     1       4.509  -3.357  -0.985  0.00  0.00    +0.043 A 
ATOM     19  C   UNL     1       5.679  -4.114  -1.078  0.00  0.00    +0.017 A 
ATOM     20  C   UNL     1       6.302  -4.562   0.066  0.00  0.00    +0.050 A 
ATOM     21  C   UNL     1       5.771  -4.264   1.314  0.00  0.00    +0.166 A 
ATOM     22  C   UNL     1       4.602  -3.509   1.413  0.00  0.00    +0.167 A 
ATOM     23  C   UNL     1       3.977  -3.052   0.269  0.00  0.00    +0.062 A 
ATOM     24  O   UNL     1       4.293  -3.357   2.734  0.00  0.00    -0.453 OA
ATOM     25  C   UNL     1       5.050  -4.368   3.424  0.00  0.00    +0.466 C 
ATOM     26  O   UNL     1       6.190  -4.584   2.571  0.00  0.00    -0.453 OA
ENDBRANCH  16  18
ENDBRANCH   4  16
BRANCH   3  27
ATOM     27  C   UNL     1       4.872  -4.448  -5.842  0.00  0.00    +0.120 C 
BRANCH  27  28
ATOM     28  C   UNL     1       5.097  -4.787  -7.317  0.00  0.00    +0.054 C 
BRANCH  28  29
ATOM     29  C   UNL     1       5.850  -6.088  -7.424  0.00  0.00    -0.040 C 
ATOM     30  C   UNL     1       5.322  -7.321  -7.600  0.00  0.00    -0.001 A 
ATOM     31  C   UNL     1       3.942  -7.802  -7.737  0.00  0.00    +0.010 A 
ATOM     32  C   UNL     1       3.722  -9.126  -7.904  0.00  0.00    +0.001 A 
ATOM     33  C   UNL     1       4.776 -10.048  -7.949  0.00  0.00    +0.002 A 
ATOM     34  C   UNL     1       6.071  -9.683  -7.831  0.00  0.00    +0.026 A 
ATOM     35  C   UNL     1       6.418  -8.315  -7.651  0.00  0.00    +0.043 A 
ATOM     36  N   UNL     1       7.578  -7.720  -7.513  0.00  0.00    -0.380 N 
ATOM     37  C   UNL     1       7.349  -6.279  -7.364  0.00  0.00    +0.144 C 
ATOM     38  H   UNL     1       8.443  -8.159  -7.513  0.00  0.00    +0.160 HD
ENDBRANCH  28  29
ENDBRANCH  27  28
ENDBRANCH   3  27
TORSDOF 7
