REMARK  Name = ZINC39324972
REMARK  9 active torsions:
REMARK  status: ('A' for Active; 'I' for Inactive)
REMARK    1  A    between atoms: C_1  and  C_2
REMARK    2  A    between atoms: C_9  and  C_14
REMARK    3  A    between atoms: C_14  and  N_15
REMARK    4  A    between atoms: N_15  and  C_16
REMARK    5  A    between atoms: N_15  and  S_22
REMARK    6  A    between atoms: S_22  and  C_25
REMARK    7  A    between atoms: C_28  and  C_31
REMARK    8  A    between atoms: C_31  and  O_33
REMARK    9  A    between atoms: O_33  and  C_34
REMARK                            x       y       z     vdW  Elec       q    Type
REMARK                         _______ _______ _______ _____ _____    ______ ____
ROOT
ATOM      1  N   UNL     1       1.258  -6.337   2.994  0.00  0.00    -0.173 NA
ENDROOT
BRANCH   1   2
ATOM      2  C   UNL     1       1.572  -6.968   1.710  0.00  0.00    +0.080 C 
ATOM      3  C   UNL     1       3.085  -6.933   1.480  0.00  0.00    +0.020 C 
ATOM      4  C   UNL     1       3.413  -7.592   0.139  0.00  0.00    +0.002 C 
ATOM      5  C   UNL     1       2.708  -6.833  -0.988  0.00  0.00    +0.000 C 
ATOM      6  C   UNL     1       1.196  -6.869  -0.758  0.00  0.00    +0.002 C 
ATOM      7  C   UNL     1       0.868  -6.210   0.583  0.00  0.00    +0.020 C 
ENDBRANCH   1   2
BRANCH   1   8
ATOM      8  S   UNL     1       0.350  -7.149   4.116  0.00  0.00    +0.061 S 
ATOM      9  O   UNL     1       0.646  -8.530   3.955  0.00  0.00    -0.153 OA
ATOM     10  O   UNL     1       0.530  -6.471   5.351  0.00  0.00    -0.153 OA
BRANCH   8  11
ATOM     11  C   UNL     1      -1.341  -6.940   3.667  0.00  0.00    +0.106 A 
ATOM     12  C   UNL     1      -2.056  -5.864   4.161  0.00  0.00    +0.029 A 
ATOM     13  C   UNL     1      -3.380  -5.694   3.814  0.00  0.00    +0.017 A 
ATOM     14  C   UNL     1      -3.999  -6.612   2.962  0.00  0.00    +0.059 A 
ATOM     15  C   UNL     1      -3.271  -7.697   2.468  0.00  0.00    +0.017 A 
ATOM     16  C   UNL     1      -1.946  -7.851   2.819  0.00  0.00    +0.029 A 
BRANCH  14  17
ATOM     17  C   UNL     1      -5.417  -6.438   2.587  0.00  0.00    +0.339 C 
ATOM     18  O   UNL     1      -6.047  -5.494   3.019  0.00  0.00    -0.245 OA
BRANCH  17  19
ATOM     19  O   UNL     1      -6.010  -7.325   1.766  0.00  0.00    -0.464 OA
ATOM     20  C   UNL     1      -7.383  -7.094   1.444  0.00  0.00    +0.280 C 
ENDBRANCH  17  19
ENDBRANCH  14  17
ENDBRANCH   8  11
ENDBRANCH   1   8
BRANCH   1  21
ATOM     21  C   UNL     1       1.747  -4.987   3.286  0.00  0.00    +0.126 C 
BRANCH  21  30
ATOM     22  C   UNL     1       5.753  -0.091   6.601  0.00  0.00    +0.044 C 
ATOM     23  C   UNL     1       5.195  -1.480   6.427  0.00  0.00    -0.050 A 
ATOM     24  C   UNL     1       5.154  -2.342   7.523  0.00  0.00    +0.005 A 
ATOM     25  C   UNL     1       4.666  -3.608   7.443  0.00  0.00    +0.024 A 
ATOM     26  C   UNL     1       4.172  -4.106   6.224  0.00  0.00    +0.040 A 
ATOM     27  N   UNL     1       3.695  -5.349   6.157  0.00  0.00    -0.284 N 
ATOM     28  C   UNL     1       3.216  -5.880   5.044  0.00  0.00    +0.225 C 
ATOM     29  O   UNL     1       2.794  -7.021   5.044  0.00  0.00    -0.275 OA
ATOM     30  C   UNL     1       3.196  -5.064   3.772  0.00  0.00    +0.114 C 
ATOM     31  C   UNL     1       3.738  -3.649   3.843  0.00  0.00    -0.003 C 
ATOM     32  C   UNL     1       4.203  -3.218   5.049  0.00  0.00    -0.007 A 
ATOM     33  C   UNL     1       4.738  -1.865   5.208  0.00  0.00    +0.012 A 
ATOM     34  H   UNL     1       3.699  -5.890   6.962  0.00  0.00    +0.155 HD
ENDBRANCH  21  30
ENDBRANCH   1  21
TORSDOF 7
