REMARK  Name = ZINC63281415
REMARK  8 active torsions:
REMARK  status: ('A' for Active; 'I' for Inactive)
REMARK    1  A    between atoms: C_1  and  O_2
REMARK    2  A    between atoms: O_2  and  C_3
REMARK    3  A    between atoms: C_9  and  C_12
REMARK    4  A    between atoms: C_12  and  C_13
REMARK    5  A    between atoms: C_13  and  N_14
REMARK    6  A    between atoms: C_15  and  C_17
REMARK    7  A    between atoms: C_23  and  C_25
REMARK    8  A    between atoms: C_25  and  C_26
REMARK                            x       y       z     vdW  Elec       q    Type
REMARK                         _______ _______ _______ _____ _____    ______ ____
ROOT
ATOM      1  C   UNL     1       0.535  -8.564   2.584  0.00  0.00    +0.078 C 
ATOM      2  C   UNL     1       1.869  -8.143   1.964  0.00  0.00    +0.032 C 
ATOM      3  C   UNL     1       2.813  -9.349   1.924  0.00  0.00    +0.108 C 
ATOM      4  N   UNL     1       2.926  -9.905   3.280  0.00  0.00    -0.301 N 
ATOM      5  C   UNL     1       1.698 -10.259   4.003  0.00  0.00    +0.108 C 
ATOM      6  C   UNL     1       0.766  -9.043   4.019  0.00  0.00    +0.032 C 
ATOM      7  C   UNL     1       4.135 -10.086   3.848  0.00  0.00    +0.218 C 
ATOM      8  O   UNL     1       5.142  -9.790   3.240  0.00  0.00    -0.276 OA
ENDROOT
BRANCH   1  10
ATOM      9  N   UNL     1      -0.759  -6.798   1.434  0.00  0.00    -0.315 N 
ATOM     10  C   UNL     1      -0.408  -7.389   2.593  0.00  0.00    +0.216 C 
ATOM     11  O   UNL     1      -0.851  -6.975   3.644  0.00  0.00    -0.276 OA
ATOM     12  H   UNL     1      -0.405  -7.128   0.594  0.00  0.00    +0.149 HD
BRANCH   9  13
ATOM     13  C   UNL     1      -1.676  -5.655   1.443  0.00  0.00    +0.108 C 
BRANCH  13  14
ATOM     14  C   UNL     1      -1.908  -5.176   0.009  0.00  0.00    +0.052 C 
BRANCH  14  21
ATOM     15  C   UNL     1      -1.200  -0.637   0.010  0.00  0.00    +0.121 A 
ATOM     16  C   UNL     1      -2.375   0.135   0.020  0.00  0.00    +0.047 A 
ATOM     17  C   UNL     1      -3.607  -0.415   0.028  0.00  0.00    +0.029 A 
ATOM     18  C   UNL     1      -3.753  -1.875   0.027  0.00  0.00    +0.043 A 
ATOM     19  N   UNL     1      -4.809  -2.650   0.034  0.00  0.00    -0.380 N 
ATOM     20  C   UNL     1      -4.362  -4.047   0.029  0.00  0.00    +0.144 C 
ATOM     21  C   UNL     1      -2.851  -4.000   0.018  0.00  0.00    -0.040 C 
ATOM     22  C   UNL     1      -2.516  -2.690   0.016  0.00  0.00    +0.002 A 
ATOM     23  C   UNL     1      -1.226  -1.992   0.003  0.00  0.00    +0.055 A 
ATOM     24  H   UNL     1      -5.731  -2.350   0.042  0.00  0.00    +0.160 HD
BRANCH  15  26
ATOM     25  C   UNL     1      -0.017   1.425   0.010  0.00  0.00    +0.277 C 
ATOM     26  O   UNL     1       0.002  -0.004   0.002  0.00  0.00    -0.495 OA
ENDBRANCH  15  26
ENDBRANCH  14  21
ENDBRANCH  13  14
ENDBRANCH   9  13
ENDBRANCH   1  10
BRANCH   7  27
ATOM     27  C   UNL     1       4.235 -10.657   5.239  0.00  0.00    +0.126 C 
BRANCH  27  28
ATOM     28  C   UNL     1       5.707 -10.759   5.644  0.00  0.00    +0.136 C 
ATOM     29  C   UNL     1       5.761 -11.125   7.108  0.00  0.00    -0.011 A 
ATOM     30  C   UNL     1       5.177 -10.359   8.083  0.00  0.00    +0.006 A 
ATOM     31  C   UNL     1       5.266 -10.755   9.410  0.00  0.00    +0.000 A 
ATOM     32  C   UNL     1       5.939 -11.916   9.751  0.00  0.00    +0.001 A 
ATOM     33  C   UNL     1       6.532 -12.694   8.776  0.00  0.00    +0.013 A 
ATOM     34  C   UNL     1       6.445 -12.302   7.443  0.00  0.00    +0.045 A 
ATOM     35  C   UNL     1       7.053 -13.086   6.351  0.00  0.00    +0.283 C 
ATOM     36  O   UNL     1       7.652 -14.110   6.611  0.00  0.00    -0.267 OA
ATOM     37  N   UNL     1       6.954 -12.683   5.075  0.00  0.00    -0.105 NA
ATOM     38  N   UNL     1       6.373 -11.666   4.698  0.00  0.00    -0.306 N 
ATOM     39  H   UNL     1       6.355 -11.458   3.751  0.00  0.00    +0.181 HD
ENDBRANCH  27  28
ENDBRANCH   7  27
TORSDOF 7
