REMARK  Name = ZINC54371627
REMARK  6 active torsions:
REMARK  status: ('A' for Active; 'I' for Inactive)
REMARK    1  A    between atoms: C_1  and  N_2
REMARK    2  A    between atoms: N_2  and  S_3
REMARK    3  A    between atoms: S_3  and  C_6
REMARK    4  A    between atoms: C_9  and  C_12
REMARK    5  A    between atoms: C_15  and  C_17
REMARK    6  A    between atoms: N_28  and  C_29
REMARK                            x       y       z     vdW  Elec       q    Type
REMARK                         _______ _______ _______ _____ _____    ______ ____
ROOT
ATOM      1  C   UNL     1      -2.355   0.314   6.254  0.00  0.00    +0.135 A 
ATOM      2  C   UNL     1      -3.402  -0.413   6.728  0.00  0.00    +0.050 A 
ATOM      3  C   UNL     1      -3.820   0.209   7.921  0.00  0.00    +0.049 A 
ATOM      4  C   UNL     1      -3.016   1.273   8.114  0.00  0.00    +0.144 A 
ATOM      5  O   UNL     1      -2.129   1.330   7.108  0.00  0.00    -0.456 OA
ENDROOT
BRANCH   4   6
ATOM      6  C   UNL     1      -3.095   2.236   9.271  0.00  0.00    +0.229 C 
ATOM      7  N   UNL     1      -4.480   2.321   9.736  0.00  0.00    -0.287 N 
ATOM      8  C   UNL     1      -5.339   3.220   9.213  0.00  0.00    +0.248 C 
ATOM      9  O   UNL     1      -6.504   3.233   9.562  0.00  0.00    -0.270 OA
ATOM     10  C   UNL     1      -4.850   4.186   8.213  0.00  0.00    +0.058 A 
ATOM     11  C   UNL     1      -5.723   4.943   7.436  0.00  0.00    +0.015 A 
ATOM     12  C   UNL     1      -5.215   5.836   6.516  0.00  0.00    +0.001 A 
ATOM     13  C   UNL     1      -3.845   5.985   6.361  0.00  0.00    +0.002 A 
ATOM     14  C   UNL     1      -2.967   5.239   7.125  0.00  0.00    +0.024 A 
ATOM     15  C   UNL     1      -3.461   4.337   8.051  0.00  0.00    +0.043 A 
ATOM     16  N   UNL     1      -2.626   3.557   8.837  0.00  0.00    -0.308 N 
ATOM     17  C   UNL     1      -1.299   4.044   9.223  0.00  0.00    +0.131 C 
ATOM     18  H   UNL     1      -4.786   1.720  10.434  0.00  0.00    +0.151 HD
ENDBRANCH   4   6
BRANCH   1  22
ATOM     19  C   UNL     1      -0.166  -0.494   2.705  0.00  0.00    +0.105 A 
ATOM     20  C   UNL     1       0.175   0.591   3.493  0.00  0.00    +0.029 A 
ATOM     21  C   UNL     1      -0.531   0.859   4.647  0.00  0.00    +0.013 A 
ATOM     22  C   UNL     1      -1.594   0.033   5.019  0.00  0.00    +0.017 A 
ATOM     23  C   UNL     1      -1.933  -1.060   4.218  0.00  0.00    +0.013 A 
ATOM     24  C   UNL     1      -1.222  -1.313   3.064  0.00  0.00    +0.029 A 
BRANCH  19  25
ATOM     25  S   UNL     1       0.742  -0.829   1.233  0.00  0.00    +0.058 S 
ATOM     26  O   UNL     1       0.570  -2.212   0.955  0.00  0.00    -0.153 OA
ATOM     27  O   UNL     1       2.024  -0.240   1.403  0.00  0.00    -0.153 OA
BRANCH  25  29
ATOM     28  C   UNL     1      -0.018   1.461   0.010  0.00  0.00    +0.127 C 
ATOM     29  N   UNL     1       0.002  -0.004   0.002  0.00  0.00    -0.193 NA
ATOM     30  H   UNL     1      -0.418  -0.491  -0.724  0.00  0.00    +0.148 HD
ENDBRANCH  25  29
ENDBRANCH  19  25
ENDBRANCH   1  22
TORSDOF 4
