REMARK  Name = ZINC20635521
REMARK  6 active torsions:
REMARK  status: ('A' for Active; 'I' for Inactive)
REMARK    1  A    between atoms: C_1  and  C_2
REMARK    2  A    between atoms: C_2  and  C_39
REMARK    3  A    between atoms: C_6  and  C_22
REMARK    4  A    between atoms: C_25  and  O_28
REMARK    5  A    between atoms: O_28  and  C_29
REMARK    6  A    between atoms: C_29  and  C_30
REMARK                            x       y       z     vdW  Elec       q    Type
REMARK                         _______ _______ _______ _____ _____    ______ ____
ROOT
ATOM      1  C   UNL     1      -0.019   1.526   0.010  0.00  0.00    +0.011 C 
ATOM      2  C   UNL     1       0.002  -0.004   0.002  0.00  0.00    -0.023 C 
ATOM      3  C   UNL     1       0.740  -0.502  -1.242  0.00  0.00    +0.058 C 
ATOM      4  C   UNL     1       2.168  -0.013  -1.215  0.00  0.00    +0.017 C 
ATOM      5  C   UNL     1       2.816   0.178  -0.046  0.00  0.00    +0.024 C 
ATOM      6  C   UNL     1       4.246   0.651  -0.009  0.00  0.00    +0.090 C 
ATOM      7  C   UNL     1       4.654   1.261  -1.316  0.00  0.00    +0.044 A 
ATOM      8  C   UNL     1       5.784   2.071  -1.401  0.00  0.00    +0.127 A 
ATOM      9  N   UNL     1       6.116   2.591  -2.580  0.00  0.00    -0.199 NA
ATOM     10  C   UNL     1       5.388   2.346  -3.659  0.00  0.00    +0.221 A 
ATOM     11  N   UNL     1       4.307   1.581  -3.614  0.00  0.00    -0.199 NA
ATOM     12  C   UNL     1       3.917   1.030  -2.468  0.00  0.00    +0.134 A 
ATOM     13  N   UNL     1       2.785   0.234  -2.411  0.00  0.00    -0.302 N 
ATOM     14  N   UNL     1       5.766   2.905  -4.868  0.00  0.00    -0.300 N 
ATOM     15  C   UNL     1       4.980   2.662  -6.084  0.00  0.00    +0.108 C 
ATOM     16  C   UNL     1       4.612   4.010  -6.712  0.00  0.00    +0.019 C 
ATOM     17  C   UNL     1       5.886   4.827  -6.940  0.00  0.00    +0.003 C 
ATOM     18  C   UNL     1       6.572   5.090  -5.598  0.00  0.00    +0.019 C 
ATOM     19  C   UNL     1       6.959   3.759  -4.957  0.00  0.00    +0.108 C 
ATOM     20  N   UNL     1       6.550   2.331  -0.275  0.00  0.00    -0.343 N 
ATOM     21  C   UNL     1       2.173  -0.058   1.182  0.00  0.00    +0.162 C 
ATOM     22  O   UNL     1       2.786   0.114   2.217  0.00  0.00    -0.292 OA
ATOM     23  C   UNL     1       0.742  -0.517   1.242  0.00  0.00    +0.086 C 
ATOM     24  C   UNL     1      -1.431  -0.539   0.000  0.00  0.00    +0.011 C 
ATOM     25  H   UNL     1       2.428  -0.153  -3.225  0.00  0.00    +0.153 HD
ATOM     26  H   UNL     1       6.301   1.948   0.580  0.00  0.00    +0.144 HD
ATOM     27  H   UNL     1       7.336   2.896  -0.343  0.00  0.00    +0.144 HD
ENDROOT
BRANCH   6  28
ATOM     28  C   UNL     1       5.146  -0.520   0.290  0.00  0.00    -0.035 A 
ATOM     29  C   UNL     1       5.174  -1.605  -0.567  0.00  0.00    +0.008 A 
ATOM     30  C   UNL     1       5.997  -2.680  -0.296  0.00  0.00    +0.046 A 
ATOM     31  C   UNL     1       6.798  -2.671   0.838  0.00  0.00    +0.121 A 
ATOM     32  C   UNL     1       6.768  -1.581   1.696  0.00  0.00    +0.046 A 
ATOM     33  C   UNL     1       5.947  -0.506   1.417  0.00  0.00    +0.008 A 
BRANCH  31  34
ATOM     34  O   UNL     1       7.608  -3.728   1.107  0.00  0.00    -0.487 OA
BRANCH  34  35
ATOM     35  C   UNL     1       8.404  -3.649   2.292  0.00  0.00    +0.264 C 
BRANCH  35  36
ATOM     36  C   UNL     1       9.232  -4.901   2.424  0.00  0.00    -0.010 A 
ATOM     37  C   UNL     1       8.729  -5.993   3.106  0.00  0.00    +0.007 A 
ATOM     38  C   UNL     1       9.488  -7.142   3.228  0.00  0.00    +0.000 A 
ATOM     39  C   UNL     1      10.751  -7.199   2.668  0.00  0.00    +0.000 A 
ATOM     40  C   UNL     1      11.253  -6.107   1.985  0.00  0.00    +0.000 A 
ATOM     41  C   UNL     1      10.492  -4.960   1.859  0.00  0.00    +0.007 A 
ENDBRANCH  35  36
ENDBRANCH  34  35
ENDBRANCH  31  34
ENDBRANCH   6  28
TORSDOF 4
