REMARK  Name = ZINC40845998
REMARK  12 active torsions:
REMARK  status: ('A' for Active; 'I' for Inactive)
REMARK    1  A    between atoms: C_1  and  C_2
REMARK    2  A    between atoms: C_11  and  O_13
REMARK    3  A    between atoms: O_13  and  C_14
REMARK    4  A    between atoms: C_14  and  C_15
REMARK    5  A    between atoms: C_15  and  O_17
REMARK    6  A    between atoms: O_17  and  C_18
REMARK    7  A    between atoms: C_29  and  O_37
REMARK    8  A    between atoms: C_30  and  O_35
REMARK    9  A    between atoms: C_31  and  O_33
REMARK   10  A    between atoms: O_33  and  C_34
REMARK   11  A    between atoms: O_35  and  C_36
REMARK   12  A    between atoms: O_37  and  C_38
REMARK                            x       y       z     vdW  Elec       q    Type
REMARK                         _______ _______ _______ _____ _____    ______ ____
ROOT
ATOM      1  C   UNL     1       0.062  -3.714   9.329  0.00  0.00    +0.135 A 
ATOM      2  C   UNL     1       0.135  -5.098   9.217  0.00  0.00    +0.047 A 
ATOM      3  C   UNL     1       0.127  -5.886  10.348  0.00  0.00    +0.016 A 
ATOM      4  C   UNL     1       0.048  -5.291  11.605  0.00  0.00    +0.029 A 
ATOM      5  C   UNL     1      -0.018  -3.893  11.722  0.00  0.00    +0.143 A 
ATOM      6  C   UNL     1      -0.008  -3.113  10.575  0.00  0.00    +0.093 A 
ATOM      7  O   UNL     1      -0.075  -3.308  12.944  0.00  0.00    -0.422 OA
ATOM      8  C   UNL     1      -0.622  -4.010  13.965  0.00  0.00    +0.345 A 
ATOM      9  O   UNL     1      -1.338  -3.471  14.788  0.00  0.00    -0.245 OA
ATOM     10  C   UNL     1      -0.320  -5.449  14.042  0.00  0.00    +0.074 A 
ATOM     11  C   UNL     1       0.026  -6.105  12.836  0.00  0.00    +0.045 A 
ATOM     12  C   UNL     1       0.325  -7.462  12.847  0.00  0.00    +0.174 A 
ATOM     13  C   UNL     1       0.280  -8.161  14.048  0.00  0.00    +0.204 A 
ATOM     14  C   UNL     1      -0.063  -7.512  15.234  0.00  0.00    +0.166 A 
ATOM     15  C   UNL     1      -0.363  -6.161  15.235  0.00  0.00    +0.065 A 
ENDROOT
BRANCH  14  16
ATOM     16  O   UNL     1      -0.105  -8.213  16.398  0.00  0.00    -0.491 OA
ATOM     17  C   UNL     1      -0.463  -7.490  17.578  0.00  0.00    +0.277 C 
ENDBRANCH  14  16
BRANCH  13  18
ATOM     18  O   UNL     1       0.571  -9.489  14.066  0.00  0.00    -0.488 OA
ATOM     19  C   UNL     1      -0.529 -10.396  13.974  0.00  0.00    +0.277 C 
ENDBRANCH  13  18
BRANCH  12  20
ATOM     20  O   UNL     1       0.660  -8.099  11.694  0.00  0.00    -0.491 OA
ATOM     21  C   UNL     1       2.054  -8.245  11.414  0.00  0.00    +0.277 C 
ENDBRANCH  12  20
BRANCH   1  22
ATOM     22  O   UNL     1       0.067  -2.945   8.209  0.00  0.00    -0.423 OA
BRANCH  22  23
ATOM     23  C   UNL     1      -1.062  -2.880   7.485  0.00  0.00    +0.350 C 
ATOM     24  O   UNL     1      -2.013  -3.563   7.785  0.00  0.00    -0.247 OA
BRANCH  23  25
ATOM     25  C   UNL     1      -1.144  -1.955   6.298  0.00  0.00    +0.349 C 
BRANCH  25  26
ATOM     26  O   UNL     1      -2.436  -2.064   5.697  0.00  0.00    -0.481 OA
BRANCH  26  37
ATOM     27  C   UNL     1      -2.366   2.051   0.662  0.00  0.00    +0.045 C 
ATOM     28  C   UNL     1      -3.416   1.121   1.211  0.00  0.00    -0.033 A 
ATOM     29  C   UNL     1      -4.638   1.024   0.625  0.00  0.00    +0.096 A 
ATOM     30  C   UNL     1      -5.604   0.146   1.158  0.00  0.00    +0.337 A 
ATOM     31  O   UNL     1      -6.695   0.069   0.623  0.00  0.00    -0.245 OA
ATOM     32  O   UNL     1      -5.351  -0.608   2.240  0.00  0.00    -0.422 OA
ATOM     33  C   UNL     1      -4.158  -0.560   2.869  0.00  0.00    +0.143 A 
ATOM     34  C   UNL     1      -3.145   0.291   2.388  0.00  0.00    +0.021 A 
ATOM     35  C   UNL     1      -1.905   0.341   3.034  0.00  0.00    +0.015 A 
ATOM     36  C   UNL     1      -1.680  -0.443   4.129  0.00  0.00    +0.046 A 
ATOM     37  C   UNL     1      -2.676  -1.291   4.607  0.00  0.00    +0.125 A 
ATOM     38  C   UNL     1      -3.913  -1.345   3.986  0.00  0.00    +0.092 A 
ENDBRANCH  26  37
ENDBRANCH  25  26
ENDBRANCH  23  25
ENDBRANCH  22  23
ENDBRANCH   1  22
TORSDOF 8
