REMARK  Name = ZINC21875143
REMARK  9 active torsions:
REMARK  status: ('A' for Active; 'I' for Inactive)
REMARK    1  A    between atoms: C_1  and  C_2
REMARK    2  A    between atoms: C_5  and  C_31
REMARK    3  A    between atoms: C_6  and  S_8
REMARK    4  A    between atoms: S_8  and  N_11
REMARK    5  A    between atoms: N_11  and  C_12
REMARK    6  A    between atoms: C_12  and  C_13
REMARK    7  A    between atoms: C_13  and  C_14
REMARK    8  A    between atoms: N_16  and  N_17
REMARK    9  A    between atoms: C_18  and  C_20
REMARK                            x       y       z     vdW  Elec       q    Type
REMARK                         _______ _______ _______ _____ _____    ______ ____
ROOT
ATOM      1  C   UNL     1       2.802  -5.390   0.665  0.00  0.00    +0.230 C 
ATOM      2  O   UNL     1       3.711  -4.926   1.320  0.00  0.00    -0.274 OA
ATOM      3  N   UNL     1       1.702  -4.650   0.420  0.00  0.00    -0.234 N 
ATOM      4  H   UNL     1       0.878  -5.071  -0.174  0.00  0.00    +0.173 HD
ENDROOT
BRANCH   3   5
ATOM      5  N   UNL     1       1.609  -3.346   0.923  0.00  0.00    -0.231 N 
ATOM      6  C   UNL     1       0.509  -2.607   0.678  0.00  0.00    +0.273 C 
ATOM      7  O   UNL     1      -0.400  -3.070   0.023  0.00  0.00    -0.270 OA
ATOM      8  H   UNL     1       2.433  -2.925   1.517  0.00  0.00    +0.173 HD
BRANCH   6   9
ATOM      9  C   UNL     1       0.408  -1.204   1.219  0.00  0.00    +0.297 C 
ATOM     10  C   UNL     1       1.459  -0.312   0.544  0.00  0.00    +0.283 C 
ATOM     11  O   UNL     1       1.327   1.013   1.071  0.00  0.00    -0.484 OA
ATOM     12  C   UNL     1       0.065   1.516   1.152  0.00  0.00    +0.162 A 
ATOM     13  C   UNL     1      -0.115   2.883   1.304  0.00  0.00    +0.049 A 
ATOM     14  C   UNL     1      -1.390   3.408   1.391  0.00  0.00    +0.004 A 
ATOM     15  C   UNL     1      -2.490   2.573   1.326  0.00  0.00    +0.004 A 
ATOM     16  C   UNL     1      -2.318   1.211   1.168  0.00  0.00    +0.049 A 
ATOM     17  C   UNL     1      -1.041   0.677   1.084  0.00  0.00    +0.163 A 
ATOM     18  O   UNL     1      -0.887  -0.667   0.931  0.00  0.00    -0.472 OA
ENDBRANCH   6   9
ENDBRANCH   3   5
BRANCH   1  19
ATOM     19  C   UNL     1       2.902  -6.793   0.124  0.00  0.00    +0.114 C 
BRANCH  19  20
ATOM     20  C   UNL     1       4.240  -7.406   0.542  0.00  0.00    +0.115 C 
BRANCH  20  21
ATOM     21  N   UNL     1       4.338  -8.770   0.017  0.00  0.00    -0.189 NA
ATOM     22  H   UNL     1       3.424  -9.344  -0.196  0.00  0.00    +0.148 HD
BRANCH  21  23
ATOM     23  S   UNL     1       5.804  -9.538  -0.026  0.00  0.00    +0.059 S 
ATOM     24  O   UNL     1       5.565 -10.843  -0.535  0.00  0.00    -0.153 OA
ATOM     25  O   UNL     1       6.717  -8.637  -0.638  0.00  0.00    -0.153 OA
BRANCH  23  31
ATOM     26  C   UNL     1       9.119  -8.525   3.886  0.00  0.00    +0.044 C 
ATOM     27  C   UNL     1       7.886  -9.239   3.398  0.00  0.00    -0.049 A 
ATOM     28  C   UNL     1       7.171 -10.052   4.259  0.00  0.00    +0.004 A 
ATOM     29  C   UNL     1       6.039 -10.707   3.811  0.00  0.00    +0.005 A 
ATOM     30  C   UNL     1       5.619 -10.546   2.504  0.00  0.00    -0.024 A 
ATOM     31  C   UNL     1       6.337  -9.738   1.642  0.00  0.00    +0.108 A 
ATOM     32  C   UNL     1       7.468  -9.083   2.089  0.00  0.00    +0.032 A 
ATOM     33  C   UNL     1       4.382 -11.255   2.017  0.00  0.00    +0.046 C 
ENDBRANCH  23  31
ENDBRANCH  21  23
ENDBRANCH  20  21
ENDBRANCH  19  20
ENDBRANCH   1  19
TORSDOF 7
