REMARK  Name = ZINC66952657
REMARK  9 active torsions:
REMARK  status: ('A' for Active; 'I' for Inactive)
REMARK    1  A    between atoms: C_1  and  C_2
REMARK    2  A    between atoms: C_2  and  C_3
REMARK    3  A    between atoms: C_3  and  C_4
REMARK    4  A    between atoms: N_6  and  C_7
REMARK    5  A    between atoms: C_11  and  N_14
REMARK    6  A    between atoms: C_12  and  C_13
REMARK    7  A    between atoms: N_17  and  C_18
REMARK    8  A    between atoms: C_18  and  C_19
REMARK    9  A    between atoms: C_19  and  O_29
REMARK                            x       y       z     vdW  Elec       q    Type
REMARK                         _______ _______ _______ _____ _____    ______ ____
ROOT
ATOM      1  N   UNL     1       3.060  -6.718  -4.032  0.00  0.00    -0.269 N 
ATOM      2  C   UNL     1       3.004  -8.063  -4.101  0.00  0.00    +0.304 C 
ATOM      3  O   UNL     1       2.429  -8.693  -3.235  0.00  0.00    -0.253 OA
ATOM      4  N   UNL     1       3.586  -8.710  -5.131  0.00  0.00    -0.296 N 
ATOM      5  H   UNL     1       3.572  -6.220  -4.688  0.00  0.00    +0.156 HD
ATOM      6  H   UNL     1       4.044  -8.207  -5.822  0.00  0.00    +0.150 HD
ENDROOT
BRANCH   1  11
ATOM      7  C   UNL     1       1.146  -4.129  -2.249  0.00  0.00    +0.038 A 
ATOM      8  C   UNL     1       1.036  -4.707  -0.990  0.00  0.00    +0.024 A 
ATOM      9  C   UNL     1       1.597  -5.946  -0.747  0.00  0.00    +0.004 A 
ATOM     10  C   UNL     1       2.267  -6.614  -1.753  0.00  0.00    +0.024 A 
ATOM     11  C   UNL     1       2.380  -6.041  -3.013  0.00  0.00    +0.039 A 
ATOM     12  C   UNL     1       1.813  -4.799  -3.263  0.00  0.00    -0.008 A 
ATOM     13  C   UNL     1       1.928  -4.178  -4.631  0.00  0.00    +0.047 C 
BRANCH   7  16
ATOM     14  C   UNL     1      -0.452  -2.440  -1.740  0.00  0.00    +0.217 C 
ATOM     15  O   UNL     1      -0.947  -3.174  -0.911  0.00  0.00    -0.275 OA
ATOM     16  N   UNL     1       0.578  -2.874  -2.495  0.00  0.00    -0.285 N 
ATOM     17  H   UNL     1       0.925  -2.316  -3.208  0.00  0.00    +0.155 HD
BRANCH  14  18
ATOM     18  C   UNL     1      -0.987  -1.044  -1.927  0.00  0.00    +0.096 C 
BRANCH  18  20
ATOM     19  C   UNL     1      -2.689   0.610  -1.145  0.00  0.00    +0.004 C 
ATOM     20  C   UNL     1      -2.145  -0.807  -0.955  0.00  0.00    +0.006 C 
ENDBRANCH  18  20
ENDBRANCH  14  18
ENDBRANCH   7  16
ENDBRANCH   1  11
BRANCH   4  21
ATOM     21  C   UNL     1       3.525 -10.171  -5.206  0.00  0.00    +0.145 C 
BRANCH  21  22
ATOM     22  C   UNL     1       4.361 -10.656  -6.392  0.00  0.00    +0.107 C 
ATOM     23  C   UNL     1       5.809 -10.210  -6.203  0.00  0.00    +0.041 C 
ATOM     24  C   UNL     1       6.668 -10.885  -7.279  0.00  0.00    +0.008 C 
ATOM     25  C   UNL     1       6.749 -12.377  -6.965  0.00  0.00    +0.035 C 
ATOM     26  C   UNL     1       5.372 -12.948  -6.745  0.00  0.00    -0.041 A 
ATOM     27  C   UNL     1       4.277 -12.158  -6.479  0.00  0.00    -0.011 A 
ATOM     28  C   UNL     1       3.035 -12.748  -6.280  0.00  0.00    +0.007 A 
ATOM     29  C   UNL     1       2.891 -14.118  -6.351  0.00  0.00    +0.000 A 
ATOM     30  C   UNL     1       3.991 -14.911  -6.623  0.00  0.00    +0.000 A 
ATOM     31  C   UNL     1       5.225 -14.327  -6.818  0.00  0.00    +0.004 A 
BRANCH  22  32
ATOM     32  O   UNL     1       3.846 -10.085  -7.597  0.00  0.00    -0.382 OA
ATOM     33  H   UNL     1       2.925 -10.318  -7.780  0.00  0.00    +0.211 HD
ENDBRANCH  22  32
ENDBRANCH  21  22
ENDBRANCH   4  21
TORSDOF 7
