REMARK  Name = ZINC36208000
REMARK  13 active torsions:
REMARK  status: ('A' for Active; 'I' for Inactive)
REMARK    1  A    between atoms: C_1  and  C_2
REMARK    2  A    between atoms: C_15  and  C_17
REMARK    3  A    between atoms: C_17  and  N_18
REMARK    4  A    between atoms: N_18  and  C_19
REMARK    5  A    between atoms: N_18  and  C_27
REMARK    6  A    between atoms: C_19  and  C_20
REMARK    7  A    between atoms: C_20  and  N_21
REMARK    8  A    between atoms: C_27  and  C_28
REMARK    9  A    between atoms: C_28  and  C_30
REMARK   10  A    between atoms: C_28  and  O_35
REMARK   11  A    between atoms: C_30  and  O_31
REMARK   12  A    between atoms: O_31  and  C_32
REMARK   13  A    between atoms: C_32  and  C_33
REMARK                            x       y       z     vdW  Elec       q    Type
REMARK                         _______ _______ _______ _____ _____    ______ ____
ROOT
ATOM      1  N   UNL     1       0.728  -8.353   3.426  0.00  0.00    +0.387 N 
ATOM      2  H   UNL     1       0.757  -8.061   4.392  0.00  0.00    -0.081 HD
ENDROOT
BRANCH   1   3
ATOM      3  C   UNL     1      -0.576  -8.002   2.848  0.00  0.00    -0.003 C 
BRANCH   3  17
ATOM      4  C   UNL     1      -1.577   1.697   4.863  0.00  0.00    +0.008 C 
ATOM      5  C   UNL     1      -1.419   0.321   4.212  0.00  0.00    -0.009 C 
ATOM      6  C   UNL     1      -2.782  -0.375   4.146  0.00  0.00    +0.008 C 
ATOM      7  C   UNL     1      -2.681  -1.631   3.281  0.00  0.00    +0.037 C 
ATOM      8  C   UNL     1      -1.530  -2.493   3.792  0.00  0.00    -0.023 A 
ATOM      9  C   UNL     1      -0.567  -1.958   4.579  0.00  0.00    -0.004 A 
ATOM     10  S   UNL     1       0.545  -3.297   4.928  0.00  0.00    -0.073 S 
ATOM     11  C   UNL     1      -0.281  -4.567   4.022  0.00  0.00    +0.116 A 
ATOM     12  C   UNL     1      -1.401  -3.904   3.474  0.00  0.00    +0.075 A 
ATOM     13  C   UNL     1      -2.291  -4.688   2.665  0.00  0.00    +0.260 A 
ATOM     14  O   UNL     1      -3.285  -4.212   2.147  0.00  0.00    -0.267 OA
ATOM     15  N   UNL     1      -1.953  -5.991   2.515  0.00  0.00    -0.312 N 
ATOM     16  H   UNL     1      -2.527  -6.558   1.976  0.00  0.00    +0.170 HD
ATOM     17  C   UNL     1      -0.853  -6.540   3.083  0.00  0.00    +0.094 A 
ATOM     18  N   UNL     1      -0.015  -5.855   3.830  0.00  0.00    -0.229 NA
ATOM     19  C   UNL     1      -0.463  -0.539   5.049  0.00  0.00    +0.046 C 
ENDBRANCH   3  17
ENDBRANCH   1   3
BRANCH   1  20
ATOM     20  C   UNL     1       1.795  -7.675   2.677  0.00  0.00    -0.063 C 
BRANCH  20  21
ATOM     21  C   UNL     1       1.807  -8.184   1.234  0.00  0.00    +0.066 C 
BRANCH  21  22
ATOM     22  N   UNL     1       2.936  -7.582   0.513  0.00  0.00    -0.300 NA
ATOM     23  C   UNL     1       2.752  -6.131   0.363  0.00  0.00    +0.112 C 
ATOM     24  C   UNL     1       3.976  -5.537  -0.339  0.00  0.00    +0.175 C 
ATOM     25  O   UNL     1       4.162  -6.192  -1.597  0.00  0.00    -0.377 OA
ATOM     26  C   UNL     1       4.344  -7.606  -1.489  0.00  0.00    +0.175 C 
ATOM     27  C   UNL     1       3.124  -8.221  -0.798  0.00  0.00    +0.112 C 
ENDBRANCH  21  22
ENDBRANCH  20  21
ENDBRANCH   1  20
BRANCH   1  28
ATOM     28  C   UNL     1       0.924  -9.807   3.349  0.00  0.00    -0.044 C 
BRANCH  28  29
ATOM     29  C   UNL     1       2.202 -10.191   4.096  0.00  0.00    +0.124 C 
BRANCH  29  30
ATOM     30  O   UNL     1       3.336  -9.673   3.398  0.00  0.00    -0.391 OA
ATOM     31  H   UNL     1       3.425 -10.003   2.493  0.00  0.00    +0.210 HD
ENDBRANCH  29  30
BRANCH  29  32
ATOM     32  C   UNL     1       2.306 -11.715   4.180  0.00  0.00    +0.190 C 
BRANCH  32  33
ATOM     33  O   UNL     1       3.437 -12.072   4.978  0.00  0.00    -0.365 OA
BRANCH  33  34
ATOM     34  C   UNL     1       3.626 -13.482   5.120  0.00  0.00    +0.248 C 
BRANCH  34  35
ATOM     35  C   UNL     1       4.811 -13.736   5.955  0.00  0.00    -0.077 C 
ATOM     36  C   UNL     1       5.756 -13.939   6.621  0.00  0.00    +0.006 C 
ENDBRANCH  34  35
ENDBRANCH  33  34
ENDBRANCH  32  33
ENDBRANCH  29  32
ENDBRANCH  28  29
ENDBRANCH   1  28
TORSDOF 12
