REMARK  Name = ZINC12393503
REMARK  9 active torsions:
REMARK  status: ('A' for Active; 'I' for Inactive)
REMARK    1  A    between atoms: C_1  and  C_2
REMARK    2  A    between atoms: C_4  and  C_14
REMARK    3  A    between atoms: C_6  and  S_9
REMARK    4  A    between atoms: C_7  and  C_8
REMARK    5  A    between atoms: S_9  and  N_12
REMARK    6  A    between atoms: N_12  and  C_13
REMARK    7  A    between atoms: N_16  and  N_17
REMARK    8  A    between atoms: C_18  and  C_20
REMARK    9  A    between atoms: N_24  and  C_25
REMARK                            x       y       z     vdW  Elec       q    Type
REMARK                         _______ _______ _______ _____ _____    ______ ____
ROOT
ATOM      1  C   UNL     1      -0.118   3.565   0.894  0.00  0.00    +0.260 C 
ATOM      2  O   UNL     1       0.961   4.093   0.706  0.00  0.00    -0.269 OA
ATOM      3  N   UNL     1      -0.181   2.260   1.222  0.00  0.00    -0.230 N 
ATOM      4  H   UNL     1      -1.042   1.838   1.373  0.00  0.00    +0.173 HD
ENDROOT
BRANCH   1   8
ATOM      5  C   UNL     1      -5.096   3.848   1.089  0.00  0.00    +0.044 C 
ATOM      6  C   UNL     1      -3.756   4.497   0.857  0.00  0.00    -0.045 A 
ATOM      7  C   UNL     1      -2.600   3.752   0.974  0.00  0.00    +0.016 A 
ATOM      8  C   UNL     1      -1.360   4.356   0.764  0.00  0.00    +0.040 A 
ATOM      9  C   UNL     1      -1.298   5.708   0.425  0.00  0.00    +0.042 A 
ATOM     10  C   UNL     1      -2.461   6.441   0.305  0.00  0.00    +0.109 A 
ATOM     11  C   UNL     1      -3.687   5.837   0.520  0.00  0.00    -0.021 A 
ATOM     12  C   UNL     1      -4.954   6.643   0.388  0.00  0.00    +0.046 C 
BRANCH  10  13
ATOM     13  S   UNL     1      -2.385   8.148  -0.123  0.00  0.00    +0.058 S 
ATOM     14  O   UNL     1      -1.008   8.472  -0.259  0.00  0.00    -0.153 OA
ATOM     15  O   UNL     1      -3.321   8.345  -1.174  0.00  0.00    -0.153 OA
BRANCH  13  16
ATOM     16  N   UNL     1      -2.946   9.005   1.178  0.00  0.00    -0.193 NA
ATOM     17  C   UNL     1      -2.201   8.994   2.439  0.00  0.00    +0.127 C 
ATOM     18  H   UNL     1      -3.769   9.513   1.105  0.00  0.00    +0.148 HD
ENDBRANCH  13  16
ENDBRANCH  10  13
ENDBRANCH   1   8
BRANCH   3  19
ATOM     19  N   UNL     1       0.996   1.510   1.345  0.00  0.00    -0.229 N 
ATOM     20  C   UNL     1       0.933   0.204   1.673  0.00  0.00    +0.277 C 
ATOM     21  O   UNL     1      -0.137  -0.300   1.958  0.00  0.00    -0.267 OA
ATOM     22  H   UNL     1       1.857   1.930   1.191  0.00  0.00    +0.173 HD
BRANCH  20  23
ATOM     23  C   UNL     1       2.154  -0.608   1.687  0.00  0.00    +0.107 A 
ATOM     24  C   UNL     1       3.439  -0.152   1.482  0.00  0.00    +0.047 A 
ATOM     25  C   UNL     1       4.289  -1.258   1.584  0.00  0.00    +0.036 A 
ATOM     26  C   UNL     1       3.524  -2.348   1.836  0.00  0.00    +0.101 A 
ATOM     27  N   UNL     1       2.225  -1.966   1.900  0.00  0.00    -0.345 N 
ATOM     28  C   UNL     1       1.086  -2.852   2.155  0.00  0.00    +0.149 C 
ATOM     29 BR   UNL     1       6.171  -1.237   1.397  0.00  0.00    -0.049 Br
ENDBRANCH  20  23
ENDBRANCH   3  19
TORSDOF 5
