REMARK  Name = ZINC35642331
REMARK  13 active torsions:
REMARK  status: ('A' for Active; 'I' for Inactive)
REMARK    1  A    between atoms: C_1  and  C_2
REMARK    2  A    between atoms: C_2  and  N_3
REMARK    3  A    between atoms: C_4  and  C_24
REMARK    4  A    between atoms: C_5  and  C_19
REMARK    5  A    between atoms: C_6  and  C_11
REMARK    6  A    between atoms: C_16  and  O_17
REMARK    7  A    between atoms: O_17  and  C_18
REMARK    8  A    between atoms: C_19  and  O_21
REMARK    9  A    between atoms: O_21  and  C_22
REMARK   10  A    between atoms: C_22  and  C_23
REMARK   11  A    between atoms: C_24  and  N_25
REMARK   12  A    between atoms: C_32  and  C_34
REMARK   13  A    between atoms: C_37  and  C_40
REMARK                            x       y       z     vdW  Elec       q    Type
REMARK                         _______ _______ _______ _____ _____    ______ ____
ROOT
ATOM      1  N   UNL     1      -2.101  -1.145   0.729  0.00  0.00    -0.261 N 
ATOM      2  C   UNL     1      -2.542  -1.169   2.021  0.00  0.00    +0.010 C 
ATOM      3  C   UNL     1      -3.848  -1.361   2.308  0.00  0.00    +0.077 C 
ATOM      4  C   UNL     1      -4.805  -1.548   1.149  0.00  0.00    +0.147 C 
ATOM      5  N   UNL     1      -4.229  -1.505  -0.205  0.00  0.00    -0.288 N 
ATOM      6  C   UNL     1      -2.903  -1.300  -0.332  0.00  0.00    +0.307 C 
ATOM      7  O   UNL     1      -2.418  -1.258  -1.446  0.00  0.00    -0.252 OA
ATOM      8  H   UNL     1      -4.791  -1.619  -0.988  0.00  0.00    +0.151 HD
ENDROOT
BRANCH   4   9
ATOM      9  C   UNL     1      -5.487  -2.881   1.321  0.00  0.00    +0.019 A 
ATOM     10  C   UNL     1      -4.963  -4.009   0.718  0.00  0.00    +0.009 A 
ATOM     11  C   UNL     1      -5.589  -5.231   0.875  0.00  0.00    +0.001 A 
ATOM     12  C   UNL     1      -6.740  -5.330   1.635  0.00  0.00    +0.004 A 
ATOM     13  C   UNL     1      -7.268  -4.206   2.239  0.00  0.00    +0.046 A 
ATOM     14  C   UNL     1      -6.639  -2.978   2.088  0.00  0.00    +0.125 A 
BRANCH  14  15
ATOM     15  O   UNL     1      -7.153  -1.871   2.687  0.00  0.00    -0.495 OA
ATOM     16  C   UNL     1      -8.278  -2.063   3.547  0.00  0.00    +0.277 C 
ENDBRANCH  14  15
ENDBRANCH   4   9
BRANCH   1  18
ATOM     17  C   UNL     1      -0.423   0.543   0.167  0.00  0.00    +0.025 C 
ATOM     18  C   UNL     1      -0.672  -0.931   0.490  0.00  0.00    +0.111 C 
ENDBRANCH   1  18
BRANCH   3  19
ATOM     19  C   UNL     1      -4.306  -1.387   3.647  0.00  0.00    +0.339 C 
ATOM     20  O   UNL     1      -4.927  -0.442   4.096  0.00  0.00    -0.245 OA
BRANCH  19  21
ATOM     21  O   UNL     1      -4.054  -2.460   4.425  0.00  0.00    -0.462 OA
BRANCH  21  22
ATOM     22  C   UNL     1      -4.641  -2.467   5.728  0.00  0.00    +0.229 C 
ATOM     23  C   UNL     1      -4.149  -3.693   6.502  0.00  0.00    +0.048 C 
ENDBRANCH  21  22
ENDBRANCH  19  21
ENDBRANCH   3  19
BRANCH   2  24
ATOM     24  C   UNL     1      -1.556  -0.978   3.145  0.00  0.00    -0.026 C 
BRANCH  24  25
ATOM     25  N   UNL     1      -1.428   0.455   3.445  0.00  0.00    +0.384 N 
ATOM     26  C   UNL     1      -0.259   0.643   4.301  0.00  0.00    -0.077 C 
ATOM     27  C   UNL     1       0.326   2.016   4.053  0.00  0.00    +0.000 C 
ATOM     28  C   UNL     1      -0.262   3.013   5.068  0.00  0.00    +0.106 C 
ATOM     29  N   UNL     1      -1.700   2.760   5.289  0.00  0.00    -0.299 N 
ATOM     30  C   UNL     1      -2.606   2.437   4.206  0.00  0.00    +0.089 C 
ATOM     31  C   UNL     1      -2.648   0.906   3.996  0.00  0.00    -0.059 C 
ATOM     32  C   UNL     1      -2.188   2.833   6.543  0.00  0.00    +0.247 C 
ATOM     33  O   UNL     1      -3.377   2.683   6.743  0.00  0.00    -0.270 OA
ATOM     34  H   UNL     1      -1.268   0.947   2.579  0.00  0.00    -0.081 HD
BRANCH  32  35
ATOM     35  C   UNL     1      -1.275   3.095   7.677  0.00  0.00    +0.037 A 
ATOM     36  C   UNL     1      -0.310   4.099   7.582  0.00  0.00    +0.013 A 
ATOM     37  C   UNL     1       0.538   4.338   8.643  0.00  0.00    +0.004 A 
ATOM     38  C   UNL     1       0.434   3.586   9.800  0.00  0.00    -0.050 A 
ATOM     39  C   UNL     1      -0.520   2.589   9.900  0.00  0.00    +0.004 A 
ATOM     40  C   UNL     1      -1.379   2.344   8.848  0.00  0.00    +0.013 A 
ATOM     41  C   UNL     1       1.364   3.853  10.955  0.00  0.00    +0.044 C 
ENDBRANCH  32  35
ENDBRANCH  24  25
ENDBRANCH   2  24
TORSDOF 9
