REMARK  Name = ZINC21456689
REMARK  7 active torsions:
REMARK  status: ('A' for Active; 'I' for Inactive)
REMARK    1  A    between atoms: C_1  and  O_2
REMARK    2  A    between atoms: O_2  and  C_3
REMARK    3  A    between atoms: C_5  and  C_11
REMARK    4  A    between atoms: C_8  and  O_9
REMARK    5  A    between atoms: C_14  and  C_25
REMARK    6  A    between atoms: C_20  and  N_24
REMARK    7  A    between atoms: C_21  and  C_22
REMARK                            x       y       z     vdW  Elec       q    Type
REMARK                         _______ _______ _______ _____ _____    ______ ____
ROOT
ATOM      1  C   UNL     1      -3.917   2.342  -1.634  0.00  0.00    +0.102 C 
ATOM      2  C   UNL     1      -3.758   3.512  -0.697  0.00  0.00    +0.054 A 
ATOM      3  C   UNL     1      -2.644   3.897   0.055  0.00  0.00    +0.100 A 
ATOM      4  N   UNL     1      -2.968   4.981   0.735  0.00  0.00    -0.171 NA
ATOM      5  N   UNL     1      -4.295   5.316   0.425  0.00  0.00    -0.246 N 
ATOM      6  H   UNL     1      -4.761   6.199   0.886  0.00  0.00    +0.192 HD
ATOM      7  C   UNL     1      -4.762   4.403  -0.452  0.00  0.00    +0.223 A 
ATOM      8  O   UNL     1      -5.983   4.309  -1.035  0.00  0.00    -0.423 OA
ATOM      9  C   UNL     1      -6.112   3.468  -2.081  0.00  0.00    +0.200 C 
ATOM     10  C   UNL     1      -5.193   2.536  -2.415  0.00  0.00    +0.098 C 
ENDROOT
BRANCH   3  11
ATOM     11  C   UNL     1      -1.331   3.206   0.088  0.00  0.00    +0.006 A 
ATOM     12  C   UNL     1      -0.757   2.742  -1.094  0.00  0.00    +0.014 A 
ATOM     13  C   UNL     1       0.462   2.094  -1.062  0.00  0.00    +0.050 A 
ATOM     14  C   UNL     1       1.123   1.913   0.143  0.00  0.00    +0.166 A 
ATOM     15  C   UNL     1       0.556   2.381   1.328  0.00  0.00    +0.167 A 
ATOM     16  C   UNL     1      -0.668   3.025   1.300  0.00  0.00    +0.059 A 
ATOM     17  O   UNL     1       1.396   2.081   2.361  0.00  0.00    -0.453 OA
ATOM     18  C   UNL     1       2.284   1.068   1.854  0.00  0.00    +0.466 C 
ATOM     19  O   UNL     1       2.318   1.321   0.437  0.00  0.00    -0.453 OA
ENDBRANCH   3  11
BRANCH   1  22
ATOM     20  C   UNL     1      -3.093  -1.085  -0.274  0.00  0.00    +0.163 A 
ATOM     21  C   UNL     1      -3.024   0.092  -1.002  0.00  0.00    +0.054 A 
ATOM     22  C   UNL     1      -3.995   1.063  -0.841  0.00  0.00    -0.030 A 
ATOM     23  C   UNL     1      -5.033   0.865   0.050  0.00  0.00    +0.023 A 
ATOM     24  C   UNL     1      -5.111  -0.309   0.776  0.00  0.00    +0.063 A 
ATOM     25  C   UNL     1      -4.141  -1.287   0.619  0.00  0.00    +0.173 A 
ATOM     26 BR   UNL     1      -6.538  -0.579   1.988  0.00  0.00    -0.046 Br
BRANCH  20  28
ATOM     27  C   UNL     1      -1.032  -1.719  -1.277  0.00  0.00    +0.277 C 
ATOM     28  O   UNL     1      -2.138  -2.041  -0.431  0.00  0.00    -0.491 OA
ENDBRANCH  20  28
BRANCH  25  29
ATOM     29  O   UNL     1      -4.212  -2.440   1.336  0.00  0.00    -0.503 OA
ATOM     30  H   UNL     1      -5.041  -2.599   2.042  0.00  0.00    +0.292 HD
ENDBRANCH  25  29
ENDBRANCH   1  22
BRANCH   9  31
ATOM     31  N   UNL     1      -7.244   3.565  -2.852  0.00  0.00    -0.328 N 
ATOM     32  H   UNL     1      -7.382   2.895  -3.713  0.00  0.00    +0.145 HD
ATOM     33  H   UNL     1      -8.013   4.313  -2.608  0.00  0.00    +0.145 HD
ENDBRANCH   9  31
BRANCH  10  34
ATOM     34  C   UNL     1      -5.439   1.701  -3.552  0.00  0.00    +0.101 C 
ATOM     35  N   UNL     1      -5.633   1.039  -4.455  0.00  0.00    -0.191 NA
ENDBRANCH  10  34
TORSDOF 6
