REMARK  Name = ZINC53315153
REMARK  7 active torsions:
REMARK  status: ('A' for Active; 'I' for Inactive)
REMARK    1  A    between atoms: C_1  and  C_2
REMARK    2  A    between atoms: C_2  and  C_4
REMARK    3  A    between atoms: C_2  and  N_13
REMARK    4  A    between atoms: C_4  and  C_5
REMARK    5  A    between atoms: C_14  and  C_16
REMARK    6  A    between atoms: C_16  and  S_17
REMARK    7  A    between atoms: S_17  and  C_18
REMARK                            x       y       z     vdW  Elec       q    Type
REMARK                         _______ _______ _______ _____ _____    ______ ____
ROOT
ATOM      1  N   UNL     1      -1.372  -0.511   0.012  0.00  0.00    -0.312 N 
ATOM      2  C   UNL     1      -2.051  -0.643  -1.145  0.00  0.00    +0.224 C 
ATOM      3  O   UNL     1      -1.524  -0.341  -2.194  0.00  0.00    -0.275 OA
ATOM      4  H   UNL     1      -1.794  -0.752   0.852  0.00  0.00    +0.149 HD
ENDROOT
BRANCH   1   6
ATOM      5  C   UNL     1      -0.019   1.526   0.010  0.00  0.00    +0.028 C 
ATOM      6  C   UNL     1       0.002  -0.004   0.002  0.00  0.00    +0.074 C 
BRANCH   6   7
ATOM      7  C   UNL     1       0.742  -0.511   1.242  0.00  0.00    +0.063 C 
BRANCH   7   8
ATOM      8  C   UNL     1       0.870  -2.011   1.172  0.00  0.00    +0.025 A 
ATOM      9  C   UNL     1      -0.118  -2.816   1.711  0.00  0.00    +0.129 A 
ATOM     10  C   UNL     1       0.000  -4.194   1.647  0.00  0.00    +0.039 A 
ATOM     11  C   UNL     1       1.105  -4.766   1.044  0.00  0.00    +0.006 A 
ATOM     12  C   UNL     1       2.093  -3.963   0.506  0.00  0.00    +0.039 A 
ATOM     13  C   UNL     1       1.973  -2.584   0.564  0.00  0.00    +0.129 A 
ATOM     14  F   UNL     1       2.936  -1.800   0.032  0.00  0.00    -0.205 F 
ATOM     15  F   UNL     1      -1.198  -2.258   2.300  0.00  0.00    -0.205 F 
ENDBRANCH   7   8
ENDBRANCH   6   7
ENDBRANCH   1   6
BRANCH   2  16
ATOM     16  C   UNL     1      -3.465  -1.164  -1.134  0.00  0.00    +0.173 C 
BRANCH  16  17
ATOM     17  S   UNL     1      -4.100  -1.225  -2.832  0.00  0.00    -0.079 S 
BRANCH  17  18
ATOM     18  C   UNL     1      -5.739  -1.846  -2.652  0.00  0.00    +0.168 A 
ATOM     19  N   UNL     1      -6.611  -2.068  -3.680  0.00  0.00    -0.333 N 
ATOM     20  H   UNL     1      -6.441  -1.915  -4.623  0.00  0.00    +0.168 HD
ATOM     21  C   UNL     1      -7.784  -2.555  -3.125  0.00  0.00    +0.067 A 
ATOM     22  C   UNL     1      -9.003  -2.953  -3.651  0.00  0.00    +0.028 A 
ATOM     23  C   UNL     1     -10.001  -3.402  -2.810  0.00  0.00    +0.002 A 
ATOM     24  C   UNL     1      -9.792  -3.458  -1.440  0.00  0.00    +0.002 A 
ATOM     25  C   UNL     1      -8.587  -3.066  -0.900  0.00  0.00    +0.030 A 
ATOM     26  C   UNL     1      -7.567  -2.609  -1.738  0.00  0.00    +0.090 A 
ATOM     27  N   UNL     1      -6.301  -2.170  -1.514  0.00  0.00    -0.222 NA
ENDBRANCH  17  18
ENDBRANCH  16  17
ENDBRANCH   2  16
TORSDOF 6
