REMARK  Name = ZINC08254724
REMARK  9 active torsions:
REMARK  status: ('A' for Active; 'I' for Inactive)
REMARK    1  A    between atoms: C_1  and  C_2
REMARK    2  A    between atoms: C_5  and  N_8
REMARK    3  A    between atoms: C_11  and  C_25
REMARK    4  A    between atoms: C_14  and  O_24
REMARK    5  A    between atoms: C_16  and  O_23
REMARK    6  A    between atoms: N_27  and  C_28
REMARK    7  A    between atoms: C_28  and  C_29
REMARK    8  A    between atoms: C_34  and  O_35
REMARK    9  A    between atoms: O_35  and  C_36
REMARK                            x       y       z     vdW  Elec       q    Type
REMARK                         _______ _______ _______ _____ _____    ______ ____
ROOT
ATOM      1  N   UNL     1       1.386   1.563   0.406  0.00  0.00    -0.277 N 
ATOM      2  C   UNL     1       2.465   0.600   0.191  0.00  0.00    +0.115 C 
ATOM      3  C   UNL     1       3.533   1.055  -0.740  0.00  0.00    +0.100 C 
ATOM      4  C   UNL     1       3.398   0.586  -2.170  0.00  0.00    +0.048 C 
ATOM      5  C   UNL     1       3.055  -0.887  -2.251  0.00  0.00    +0.146 C 
ATOM      6  C   UNL     1       1.811  -1.233  -1.475  0.00  0.00    +0.165 C 
ATOM      7  C   UNL     1       1.780  -0.726  -0.052  0.00  0.00    +0.124 C 
ATOM      8  N   UNL     1       0.368  -0.439   0.301  0.00  0.00    -0.319 N 
ATOM      9  C   UNL     1       0.232   0.880   0.497  0.00  0.00    +0.138 C 
ATOM     10  S   UNL     1      -1.273   1.627   0.826  0.00  0.00    -0.018 S 
ATOM     11  H   UNL     1      -0.340  -1.098   0.377  0.00  0.00    +0.148 HD
ENDROOT
BRANCH   1  16
ATOM     12  C   UNL     1       1.969   7.193   0.789  0.00  0.00    +0.044 C 
ATOM     13  C   UNL     1       1.814   5.698   0.687  0.00  0.00    -0.050 A 
ATOM     14  C   UNL     1       1.031   5.152  -0.313  0.00  0.00    +0.005 A 
ATOM     15  C   UNL     1       0.888   3.781  -0.409  0.00  0.00    +0.024 A 
ATOM     16  C   UNL     1       1.530   2.952   0.500  0.00  0.00    +0.036 A 
ATOM     17  C   UNL     1       2.311   3.504   1.508  0.00  0.00    +0.024 A 
ATOM     18  C   UNL     1       2.455   4.875   1.595  0.00  0.00    +0.005 A 
ENDBRANCH   1  16
BRANCH   3  19
ATOM     19  C   UNL     1       3.550   2.562  -0.737  0.00  0.00    +0.218 C 
ATOM     20  O   UNL     1       2.715   3.179  -1.364  0.00  0.00    -0.275 OA
ATOM     21  N   UNL     1       4.493   3.224  -0.037  0.00  0.00    -0.311 N 
ATOM     22  H   UNL     1       5.101   2.735   0.539  0.00  0.00    +0.149 HD
BRANCH  21  23
ATOM     23  C   UNL     1       4.599   4.681  -0.148  0.00  0.00    +0.143 C 
BRANCH  23  24
ATOM     24  C   UNL     1       5.805   5.156   0.621  0.00  0.00    +0.011 A 
ATOM     25  C   UNL     1       5.651   5.692   1.885  0.00  0.00    +0.009 A 
ATOM     26  C   UNL     1       6.757   6.127   2.592  0.00  0.00    +0.001 A 
ATOM     27  C   UNL     1       8.019   6.028   2.035  0.00  0.00    +0.004 A 
ATOM     28  C   UNL     1       8.178   5.494   0.772  0.00  0.00    +0.046 A 
ATOM     29  C   UNL     1       7.070   5.051   0.063  0.00  0.00    +0.125 A 
BRANCH  29  30
ATOM     30  O   UNL     1       7.225   4.519  -1.178  0.00  0.00    -0.495 OA
ATOM     31  C   UNL     1       8.557   4.442  -1.690  0.00  0.00    +0.277 C 
ENDBRANCH  29  30
ENDBRANCH  23  24
ENDBRANCH  21  23
ENDBRANCH   3  19
BRANCH   6  32
ATOM     32  O   UNL     1       0.683  -0.694  -2.168  0.00  0.00    -0.387 OA
ATOM     33  H   UNL     1       0.623  -0.969  -3.094  0.00  0.00    +0.210 HD
ENDBRANCH   6  32
BRANCH   5  34
ATOM     34  O   UNL     1       4.150  -1.646  -1.733  0.00  0.00    -0.389 OA
ATOM     35  H   UNL     1       4.990  -1.480  -2.181  0.00  0.00    +0.210 HD
ENDBRANCH   5  34
TORSDOF 7
