REMARK  Name = ZINC13174415
REMARK  8 active torsions:
REMARK  status: ('A' for Active; 'I' for Inactive)
REMARK    1  A    between atoms: C_1  and  C_2
REMARK    2  A    between atoms: C_6  and  N_9
REMARK    3  A    between atoms: C_7  and  C_8
REMARK    4  A    between atoms: C_10  and  C_12
REMARK    5  A    between atoms: C_12  and  S_13
REMARK    6  A    between atoms: S_13  and  C_14
REMARK    7  A    between atoms: C_15  and  C_31
REMARK    8  A    between atoms: C_16  and  C_26
REMARK                            x       y       z     vdW  Elec       q    Type
REMARK                         _______ _______ _______ _____ _____    ______ ____
ROOT
ATOM      1  C   UNL     1      -0.334  -7.412   4.943  0.00  0.00    +0.080 C 
ATOM      2  C   UNL     1      -0.417  -8.764   5.064  0.00  0.00    +0.072 C 
ATOM      3  C   UNL     1      -0.501  -9.417   6.412  0.00  0.00    +0.132 C 
ATOM      4  C   UNL     1      -0.911  -8.425   7.472  0.00  0.00    +0.027 C 
ATOM      5  C   UNL     1      -0.804  -7.096   7.258  0.00  0.00    +0.016 C 
ATOM      6  N   UNL     1      -0.328  -6.618   6.066  0.00  0.00    -0.311 N 
ATOM      7  C   UNL     1      -1.195  -6.103   8.324  0.00  0.00    +0.051 C 
ATOM      8  C   UNL     1      -2.329  -6.682   9.174  0.00  0.00    +0.014 C 
ATOM      9  C   UNL     1      -1.849  -8.001   9.790  0.00  0.00    +0.080 C 
ATOM     10  C   UNL     1      -1.409  -8.925   8.688  0.00  0.00    +0.162 C 
ATOM     11  O   UNL     1      -1.487 -10.127   8.851  0.00  0.00    -0.292 OA
ATOM     12  H   UNL     1       0.013  -5.711   6.011  0.00  0.00    +0.152 HD
ENDROOT
BRANCH   3  13
ATOM     13  C   UNL     1      -1.516 -10.530   6.360  0.00  0.00    +0.117 A 
ATOM     14  C   UNL     1      -1.273 -11.828   6.613  0.00  0.00    +0.045 A 
ATOM     15  C   UNL     1      -2.498 -12.514   6.448  0.00  0.00    +0.041 A 
ATOM     16  C   UNL     1      -3.417 -11.594   6.106  0.00  0.00    +0.195 A 
ATOM     17  O   UNL     1      -2.818 -10.393   6.059  0.00  0.00    -0.467 OA
ENDBRANCH   3  13
BRANCH   2  18
ATOM     18  C   UNL     1      -0.424  -9.578   3.886  0.00  0.00    +0.098 C 
ATOM     19  N   UNL     1      -0.430 -10.224   2.951  0.00  0.00    -0.191 NA
ENDBRANCH   2  18
BRANCH   1  20
ATOM     20  S   UNL     1      -0.226  -6.677   3.345  0.00  0.00    -0.100 S 
BRANCH  20  21
ATOM     21  C   UNL     1      -0.129  -4.898   3.686  0.00  0.00    +0.171 C 
BRANCH  21  23
ATOM     22  N   UNL     1       0.052  -2.797   2.393  0.00  0.00    -0.285 N 
ATOM     23  C   UNL     1      -0.031  -4.143   2.385  0.00  0.00    +0.227 C 
ATOM     24  O   UNL     1      -0.028  -4.745   1.333  0.00  0.00    -0.275 OA
ATOM     25  H   UNL     1       0.130  -2.321   3.234  0.00  0.00    +0.155 HD
BRANCH  22  31
ATOM     26  C   UNL     1       1.206   1.236  -0.172  0.00  0.00    +0.044 C 
ATOM     27  C   UNL     1       0.577  -0.131  -0.084  0.00  0.00    -0.046 A 
ATOM     28  C   UNL     1      -0.027  -0.686  -1.198  0.00  0.00    +0.004 A 
ATOM     29  C   UNL     1      -0.605  -1.940  -1.122  0.00  0.00    +0.002 A 
ATOM     30  C   UNL     1      -0.580  -2.642   0.067  0.00  0.00    +0.023 A 
ATOM     31  C   UNL     1       0.026  -2.088   1.187  0.00  0.00    +0.037 A 
ATOM     32  C   UNL     1       0.610  -0.831   1.106  0.00  0.00    -0.026 A 
ATOM     33  C   UNL     1       1.274  -0.228   2.317  0.00  0.00    +0.046 C 
ENDBRANCH  22  31
ENDBRANCH  21  23
ENDBRANCH  20  21
ENDBRANCH   1  20
TORSDOF 6
