REMARK  Name = ZINC05392714
REMARK  5 active torsions:
REMARK  status: ('A' for Active; 'I' for Inactive)
REMARK    1  A    between atoms: C_1  and  C_2
REMARK    2  A    between atoms: C_5  and  S_8
REMARK    3  A    between atoms: S_8  and  N_11
REMARK    4  A    between atoms: N_13  and  C_14
REMARK    5  A    between atoms: C_17  and  O_24
REMARK                            x       y       z     vdW  Elec       q    Type
REMARK                         _______ _______ _______ _____ _____    ______ ____
ROOT
ATOM      1  N   UNL     1       1.180  -2.927  -1.603  0.00  0.00    -0.121 NA
ATOM      2  C   UNL     1       1.323  -4.177  -1.904  0.00  0.00    +0.209 C 
ATOM      3  N   UNL     1       1.230  -4.582  -3.210  0.00  0.00    -0.304 N 
ATOM      4  H   UNL     1       1.257  -5.654  -3.457  0.00  0.00    +0.153 HD
ENDROOT
BRANCH   3   5
ATOM      5  C   UNL     1       1.101  -3.633  -4.229  0.00  0.00    +0.040 A 
ATOM      6  C   UNL     1       1.672  -2.387  -4.090  0.00  0.00    +0.027 A 
ATOM      7  C   UNL     1       1.556  -1.434  -5.098  0.00  0.00    +0.048 A 
ATOM      8  C   UNL     1       0.861  -1.708  -6.253  0.00  0.00    +0.125 A 
ATOM      9  C   UNL     1       0.261  -2.972  -6.424  0.00  0.00    +0.025 A 
ATOM     10  C   UNL     1       0.382  -3.945  -5.402  0.00  0.00    +0.007 A 
ATOM     11  C   UNL     1      -0.217  -5.203  -5.574  0.00  0.00    +0.010 A 
ATOM     12  C   UNL     1      -0.904  -5.472  -6.718  0.00  0.00    +0.001 A 
ATOM     13  C   UNL     1      -1.023  -4.515  -7.724  0.00  0.00    +0.001 A 
ATOM     14  C   UNL     1      -0.456  -3.284  -7.591  0.00  0.00    +0.012 A 
BRANCH   8  15
ATOM     15  O   UNL     1       0.753  -0.764  -7.225  0.00  0.00    -0.506 OA
ATOM     16  H   UNL     1       0.197  -0.986  -8.148  0.00  0.00    +0.292 HD
ENDBRANCH   8  15
ENDBRANCH   3   5
BRANCH   1  17
ATOM     17  S   UNL     1       1.291  -2.437  -0.025  0.00  0.00    +0.100 S 
ATOM     18  O   UNL     1       2.636  -2.664   0.377  0.00  0.00    -0.146 OA
ATOM     19  O   UNL     1       0.185  -3.012   0.658  0.00  0.00    -0.146 OA
BRANCH  17  24
ATOM     20  C   UNL     1       0.453   3.537   0.057  0.00  0.00    +0.044 C 
ATOM     21  C   UNL     1       0.662   2.045   0.036  0.00  0.00    -0.050 A 
ATOM     22  C   UNL     1      -0.420   1.193   0.162  0.00  0.00    +0.005 A 
ATOM     23  C   UNL     1      -0.227  -0.175   0.143  0.00  0.00    +0.029 A 
ATOM     24  C   UNL     1       1.046  -0.693  -0.002  0.00  0.00    +0.113 A 
ATOM     25  C   UNL     1       2.128   0.159  -0.127  0.00  0.00    +0.029 A 
ATOM     26  C   UNL     1       1.936   1.528  -0.109  0.00  0.00    +0.005 A 
ENDBRANCH  17  24
ENDBRANCH   1  17
TORSDOF 4
