REMARK  Name = ZINC35086636
REMARK  12 active torsions:
REMARK  status: ('A' for Active; 'I' for Inactive)
REMARK    1  A    between atoms: C_1  and  C_2
REMARK    2  A    between atoms: C_2  and  C_3
REMARK    3  A    between atoms: C_3  and  C_4
REMARK    4  A    between atoms: C_5  and  C_33
REMARK    5  A    between atoms: C_6  and  C_11
REMARK    6  A    between atoms: C_8  and  C_10
REMARK    7  A    between atoms: C_17  and  C_20
REMARK    8  A    between atoms: C_21  and  C_23
REMARK    9  A    between atoms: C_26  and  N_30
REMARK   10  A    between atoms: C_33  and  O_35
REMARK   11  A    between atoms: O_35  and  C_36
REMARK   12  A    between atoms: C_36  and  C_37
REMARK                            x       y       z     vdW  Elec       q    Type
REMARK                         _______ _______ _______ _____ _____    ______ ____
ROOT
ATOM      1  C   UNL     1       1.001  -4.753  -2.057  0.00  0.00    +0.266 C 
ATOM      2  O   UNL     1       0.950  -4.106  -3.083  0.00  0.00    -0.268 OA
ATOM      3  N   UNL     1       0.499  -6.003  -2.022  0.00  0.00    -0.293 N 
ATOM      4  C   UNL     1       0.443  -6.751  -0.758  0.00  0.00    +0.127 C 
ATOM      5  C   UNL     1       1.171  -8.088  -0.948  0.00  0.00    +0.127 C 
ATOM      6  N   UNL     1       0.669  -8.727  -2.172  0.00  0.00    -0.292 N 
ATOM      7  C   UNL     1       0.725  -7.978  -3.436  0.00  0.00    +0.091 C 
ATOM      8  C   UNL     1      -0.008  -6.640  -3.245  0.00  0.00    +0.130 C 
ATOM      9  C   UNL     1       0.043  -8.786  -4.542  0.00  0.00    +0.029 C 
ATOM     10  C   UNL     1       0.166  -9.977  -2.137  0.00  0.00    +0.248 C 
ATOM     11  O   UNL     1      -0.156 -10.531  -3.170  0.00  0.00    -0.270 OA
ENDROOT
BRANCH   1  14
ATOM     12  C   UNL     1       2.830  -2.417   0.285  0.00  0.00    +0.060 A 
ATOM     13  C   UNL     1       2.268  -2.919  -0.895  0.00  0.00    +0.111 A 
ATOM     14  C   UNL     1       1.619  -4.166  -0.839  0.00  0.00    +0.143 A 
ATOM     15  N   UNL     1       1.568  -4.809   0.322  0.00  0.00    -0.227 NA
ATOM     16  C   UNL     1       2.113  -4.293   1.405  0.00  0.00    +0.127 A 
ATOM     17  N   UNL     1       2.734  -3.129   1.393  0.00  0.00    -0.236 NA
ATOM     18  C   UNL     1       2.029  -5.061   2.699  0.00  0.00    +0.088 C 
BRANCH  13  19
ATOM     19  C   UNL     1       2.353  -2.161  -2.161  0.00  0.00    +0.343 C 
ATOM     20  O   UNL     1       3.295  -2.331  -2.909  0.00  0.00    -0.245 OA
BRANCH  19  21
ATOM     21  O   UNL     1       1.386  -1.281  -2.486  0.00  0.00    -0.461 OA
BRANCH  21  22
ATOM     22  C   UNL     1       1.533  -0.584  -3.725  0.00  0.00    +0.229 C 
ATOM     23  C   UNL     1       0.348   0.364  -3.920  0.00  0.00    +0.048 C 
ENDBRANCH  21  22
ENDBRANCH  19  21
ENDBRANCH  13  19
BRANCH  12  24
ATOM     24  C   UNL     1       3.539  -1.087   0.290  0.00  0.00    +0.056 C 
BRANCH  24  26
ATOM     25  C   UNL     1       5.740   0.053  -0.022  0.00  0.00    +0.004 C 
ATOM     26  C   UNL     1       5.021  -1.297  -0.027  0.00  0.00    +0.003 C 
ENDBRANCH  24  26
ENDBRANCH  12  24
ENDBRANCH   1  14
BRANCH  10  27
ATOM     27  C   UNL     1       0.006 -10.673  -0.844  0.00  0.00    +0.055 A 
ATOM     28  C   UNL     1      -0.336  -9.953   0.303  0.00  0.00    +0.017 A 
ATOM     29  C   UNL     1      -0.484 -10.609   1.507  0.00  0.00    +0.033 A 
ATOM     30  C   UNL     1      -0.293 -11.978   1.581  0.00  0.00    +0.128 A 
ATOM     31  C   UNL     1       0.047 -12.698   0.451  0.00  0.00    +0.053 A 
ATOM     32  C   UNL     1       0.192 -12.055  -0.763  0.00  0.00    +0.055 A 
ATOM     33 CL   UNL     1       0.612 -12.961  -2.183  0.00  0.00    -0.083 Cl
BRANCH  30  34
ATOM     34  N   UNL     1      -0.453 -12.675   2.878  0.00  0.00    +0.056 N 
ATOM     35  O   UNL     1      -0.750 -12.048   3.868  0.00  0.00    -0.126 OA
ATOM     36  O   UNL     1      -0.287 -13.870   2.946  0.00  0.00    -0.126 OA
ENDBRANCH  30  34
ENDBRANCH  10  27
TORSDOF 8
