REMARK  Name = ZINC00996596
REMARK  11 active torsions:
REMARK  status: ('A' for Active; 'I' for Inactive)
REMARK    1  A    between atoms: C_1  and  O_2
REMARK    2  A    between atoms: O_2  and  C_3
REMARK    3  A    between atoms: C_6  and  C_16
REMARK    4  A    between atoms: C_8  and  C_9
REMARK    5  A    between atoms: C_9  and  O_10
REMARK    6  A    between atoms: O_10  and  C_11
REMARK    7  A    between atoms: C_11  and  C_12
REMARK    8  A    between atoms: C_25  and  C_33
REMARK    9  A    between atoms: C_26  and  N_32
REMARK   10  A    between atoms: C_27  and  C_28
REMARK   11  A    between atoms: C_27  and  C_30
REMARK                            x       y       z     vdW  Elec       q    Type
REMARK                         _______ _______ _______ _____ _____    ______ ____
ROOT
ATOM      1  C   UNL     1      -1.120   7.122   1.857  0.00  0.00    +0.066 C 
ATOM      2  C   UNL     1       0.273   7.728   2.029  0.00  0.00    +0.030 C 
ATOM      3  C   UNL     1       0.887   7.376   3.362  0.00  0.00    +0.009 C 
ATOM      4  C   UNL     1       1.900   6.239   3.243  0.00  0.00    +0.005 C 
ATOM      5  C   UNL     1       2.993   6.667   2.254  0.00  0.00    +0.027 C 
ATOM      6  C   UNL     1       2.334   6.895   0.909  0.00  0.00    -0.022 C 
ATOM      7  C   UNL     1       1.099   7.350   0.832  0.00  0.00    -0.029 C 
ATOM      8  C   UNL     1       0.461   7.506  -0.501  0.00  0.00    +0.074 C 
ATOM      9  C   UNL     1      -0.884   7.673  -0.577  0.00  0.00    +0.054 C 
ATOM     10  C   UNL     1      -1.781   7.736   0.622  0.00  0.00    +0.188 C 
ENDROOT
BRANCH   1  14
ATOM     11  C   UNL     1      -0.787   2.892   1.346  0.00  0.00    +0.125 A 
ATOM     12  C   UNL     1      -0.674   3.735   0.250  0.00  0.00    +0.046 A 
ATOM     13  C   UNL     1      -0.788   5.101   0.417  0.00  0.00    +0.007 A 
ATOM     14  C   UNL     1      -1.003   5.630   1.677  0.00  0.00    -0.040 A 
ATOM     15  C   UNL     1      -1.110   4.792   2.771  0.00  0.00    +0.013 A 
ATOM     16  C   UNL     1      -1.003   3.424   2.609  0.00  0.00    +0.020 A 
BRANCH  11  18
ATOM     17  C   UNL     1      -0.460   1.069  -0.145  0.00  0.00    +0.277 C 
ATOM     18  O   UNL     1      -0.682   1.547   1.184  0.00  0.00    -0.495 OA
ENDBRANCH  11  18
BRANCH  16  19
ATOM     19  C   UNL     1      -1.120   2.511   3.802  0.00  0.00    +0.199 C 
BRANCH  19  20
ATOM     20  O   UNL     1      -1.339   3.292   4.979  0.00  0.00    -0.366 OA
BRANCH  20  21
ATOM     21  C   UNL     1      -1.465   2.519   6.174  0.00  0.00    +0.273 C 
BRANCH  21  22
ATOM     22  C   UNL     1      -1.694   3.453   7.364  0.00  0.00    +0.413 C 
ATOM     23  F   UNL     1      -2.866   4.190   7.160  0.00  0.00    -0.168 F 
ATOM     24  F   UNL     1      -1.818   2.696   8.534  0.00  0.00    -0.168 F 
ATOM     25  F   UNL     1      -0.609   4.327   7.487  0.00  0.00    -0.168 F 
ENDBRANCH  21  22
ENDBRANCH  20  21
ENDBRANCH  19  20
ENDBRANCH  16  19
ENDBRANCH   1  14
BRANCH   9  26
ATOM     26  N   UNL     1      -1.451   7.790  -1.814  0.00  0.00    -0.358 N 
ATOM     27  H   UNL     1      -2.538   7.926  -1.910  0.00  0.00    +0.142 HD
ATOM     28  H   UNL     1      -0.821   7.747  -2.715  0.00  0.00    +0.142 HD
ENDBRANCH   9  26
BRANCH  10  29
ATOM     29  C   UNL     1      -3.025   7.006   0.330  0.00  0.00    +0.091 C 
ATOM     30  N   UNL     1      -3.985   6.442   0.104  0.00  0.00    -0.194 NA
ENDBRANCH  10  29
BRANCH  10  31
ATOM     31  C   UNL     1      -2.106   9.144   0.903  0.00  0.00    +0.091 C 
ATOM     32  N   UNL     1      -2.357  10.231   1.119  0.00  0.00    -0.194 NA
ENDBRANCH  10  31
BRANCH   8  33
ATOM     33  C   UNL     1       1.256   7.480  -1.692  0.00  0.00    +0.101 C 
ATOM     34  N   UNL     1       1.886   7.460  -2.637  0.00  0.00    -0.191 NA
ENDBRANCH   8  33
TORSDOF 10
