REMARK  Name = ZINC45783065
REMARK  6 active torsions:
REMARK  status: ('A' for Active; 'I' for Inactive)
REMARK    1  A    between atoms: C_1  and  C_2
REMARK    2  A    between atoms: C_2  and  C_4
REMARK    3  A    between atoms: C_2  and  N_14
REMARK    4  A    between atoms: C_7  and  N_10
REMARK    5  A    between atoms: C_15  and  C_17
REMARK    6  A    between atoms: C_18  and  C_19
REMARK                            x       y       z     vdW  Elec       q    Type
REMARK                         _______ _______ _______ _____ _____    ______ ____
ROOT
ATOM      1  C   UNL     1      -0.349  -0.189   0.454  0.00  0.00    +0.033 C 
ATOM      2  C   UNL     1       0.043  -1.564  -0.092  0.00  0.00    +0.100 C 
ENDROOT
BRANCH   2   3
ATOM      3  C   UNL     1       1.094  -2.176   0.797  0.00  0.00    -0.027 A 
ATOM      4  C   UNL     1       2.414  -1.783   0.676  0.00  0.00    +0.007 A 
ATOM      5  C   UNL     1       3.380  -2.343   1.490  0.00  0.00    +0.023 A 
ATOM      6  C   UNL     1       3.024  -3.300   2.430  0.00  0.00    +0.035 A 
ATOM      7  C   UNL     1       1.697  -3.693   2.549  0.00  0.00    +0.023 A 
ATOM      8  C   UNL     1       0.735  -3.126   1.737  0.00  0.00    +0.007 A 
BRANCH   6   9
ATOM      9  N   UNL     1       4.000  -3.869   3.256  0.00  0.00    -0.270 N 
ATOM     10  C   UNL     1       5.080  -3.149   3.618  0.00  0.00    +0.301 C 
ATOM     11  O   UNL     1       5.160  -1.976   3.308  0.00  0.00    -0.253 OA
ATOM     12  N   UNL     1       6.072  -3.729   4.322  0.00  0.00    -0.313 N 
ATOM     13  H   UNL     1       3.899  -4.782   3.568  0.00  0.00    +0.156 HD
ATOM     14  H   UNL     1       6.009  -4.665   4.569  0.00  0.00    +0.146 HD
ATOM     15  H   UNL     1       6.849  -3.210   4.582  0.00  0.00    +0.146 HD
ENDBRANCH   6   9
ENDBRANCH   2   3
BRANCH   2  16
ATOM     16  N   UNL     1       0.576  -1.417  -1.448  0.00  0.00    -0.305 N 
ATOM     17  C   UNL     1      -0.263  -1.381  -2.502  0.00  0.00    +0.237 C 
ATOM     18  O   UNL     1      -1.464  -1.471  -2.327  0.00  0.00    -0.271 OA
ATOM     19  H   UNL     1       1.533  -1.345  -1.588  0.00  0.00    +0.150 HD
BRANCH  17  20
ATOM     20  C   UNL     1       0.269  -1.234  -3.857  0.00  0.00    +0.068 C 
ATOM     21  C   UNL     1      -0.572  -1.048  -4.896  0.00  0.00    +0.013 C 
BRANCH  21  22
ATOM     22  C   UNL     1      -1.986  -0.731  -4.650  0.00  0.00    -0.021 A 
ATOM     23  C   UNL     1      -2.333   0.230  -3.693  0.00  0.00    +0.012 A 
ATOM     24  C   UNL     1      -3.659   0.526  -3.465  0.00  0.00    +0.050 A 
ATOM     25  C   UNL     1      -4.655  -0.127  -4.181  0.00  0.00    +0.166 A 
ATOM     26  C   UNL     1      -4.315  -1.087  -5.136  0.00  0.00    +0.167 A 
ATOM     27  C   UNL     1      -2.988  -1.385  -5.374  0.00  0.00    +0.057 A 
ATOM     28  O   UNL     1      -5.464  -1.573  -5.691  0.00  0.00    -0.453 OA
ATOM     29  C   UNL     1      -6.517  -1.201  -4.782  0.00  0.00    +0.466 C 
ATOM     30  O   UNL     1      -6.013  -0.015  -4.141  0.00  0.00    -0.453 OA
ENDBRANCH  21  22
ENDBRANCH  17  20
ENDBRANCH   2  16
TORSDOF 5
