REMARK  Name = ZINC22124945
REMARK  7 active torsions:
REMARK  status: ('A' for Active; 'I' for Inactive)
REMARK    1  A    between atoms: C_1  and  C_2
REMARK    2  A    between atoms: C_2  and  C_3
REMARK    3  A    between atoms: C_3  and  C_5
REMARK    4  A    between atoms: C_3  and  C_6
REMARK    5  A    between atoms: N_15  and  N_16
REMARK    6  A    between atoms: N_16  and  C_17
REMARK    7  A    between atoms: C_17  and  N_19
REMARK                            x       y       z     vdW  Elec       q    Type
REMARK                         _______ _______ _______ _____ _____    ______ ____
ROOT
ATOM      1  C   UNL     1       2.408   0.018  -0.021  0.00  0.00    -0.018 A 
ATOM      2  C   UNL     1       1.220  -0.666  -0.013  0.00  0.00    +0.006 A 
ATOM      3  C   UNL     1       0.002  -0.004   0.002  0.00  0.00    +0.001 A 
ATOM      4  C   UNL     1      -0.017   1.379   0.010  0.00  0.00    +0.017 A 
ATOM      5  C   UNL     1       1.167   2.073   0.002  0.00  0.00    +0.041 A 
ATOM      6  C   UNL     1       2.427   1.432  -0.014  0.00  0.00    +0.084 A 
ATOM      7  N   UNL     1       3.501   2.252  -0.020  0.00  0.00    -0.223 NA
ATOM      8  C   UNL     1       3.389   3.561  -0.012  0.00  0.00    +0.176 A 
ATOM      9  S   UNL     1       1.617   3.792   0.006  0.00  0.00    -0.051 S 
ATOM     10  N   UNL     1       4.386   4.514  -0.016  0.00  0.00    -0.243 N 
ATOM     11  H   UNL     1       5.442   4.206  -0.028  0.00  0.00    +0.172 HD
ENDROOT
BRANCH   1  12
ATOM     12  C   UNL     1       3.708  -0.744  -0.037  0.00  0.00    +0.018 C 
ATOM     13  C   UNL     1       3.771  -1.617  -1.292  0.00  0.00    +0.012 C 
BRANCH  12  15
ATOM     14  C   UNL     1       5.165  -2.310   1.254  0.00  0.00    +0.004 C 
ATOM     15  C   UNL     1       3.795  -1.631   1.206  0.00  0.00    +0.004 C 
ENDBRANCH  12  15
ENDBRANCH   1  12
BRANCH  10  16
ATOM     16  N   UNL     1       4.053   5.875  -0.006  0.00  0.00    -0.247 N 
ATOM     17  H   UNL     1       2.997   6.184   0.006  0.00  0.00    +0.172 HD
BRANCH  16  18
ATOM     18  C   UNL     1       5.027   6.807  -0.010  0.00  0.00    +0.144 C 
ATOM     19  S   UNL     1       4.621   8.470   0.003  0.00  0.00    -0.018 S 
BRANCH  18  20
ATOM     20  N   UNL     1       6.321   6.430  -0.024  0.00  0.00    -0.340 N 
ATOM     21  H   UNL     1       7.116   7.190  -0.028  0.00  0.00    +0.144 HD
ATOM     22  H   UNL     1       6.582   5.361  -0.033  0.00  0.00    +0.144 HD
ENDBRANCH  18  20
ENDBRANCH  16  18
ENDBRANCH  10  16
TORSDOF 5
