REMARK  Name = ZINC20984574
REMARK  11 active torsions:
REMARK  status: ('A' for Active; 'I' for Inactive)
REMARK    1  A    between atoms: C_1  and  C_2
REMARK    2  A    between atoms: C_2  and  N_3
REMARK    3  A    between atoms: C_7  and  C_9
REMARK    4  A    between atoms: C_9  and  S_10
REMARK    5  A    between atoms: S_10  and  C_11
REMARK    6  A    between atoms: C_19  and  C_23
REMARK    7  A    between atoms: N_26  and  C_27
REMARK    8  A    between atoms: C_27  and  C_28
REMARK    9  A    between atoms: C_28  and  C_29
REMARK   10  A    between atoms: C_29  and  C_30
REMARK   11  A    between atoms: C_29  and  C_31
REMARK                            x       y       z     vdW  Elec       q    Type
REMARK                         _______ _______ _______ _____ _____    ______ ____
ROOT
ATOM      1  C   UNL     1       0.928  -4.253  -2.935  0.00  0.00    +0.173 A 
ATOM      2  N   UNL     1       1.737  -3.299  -3.374  0.00  0.00    -0.216 NA
ATOM      3  C   UNL     1       1.673  -2.120  -2.768  0.00  0.00    +0.117 A 
ATOM      4  C   UNL     1       0.801  -1.830  -1.694  0.00  0.00    +0.076 A 
ATOM      5  C   UNL     1       0.873  -0.481  -1.157  0.00  0.00    -0.023 A 
ATOM      6  C   UNL     1       1.763   0.356  -1.737  0.00  0.00    -0.004 A 
ATOM      7  S   UNL     1       2.540  -0.602  -3.014  0.00  0.00    -0.073 S 
ATOM      8  C   UNL     1       2.034   1.784  -1.377  0.00  0.00    +0.046 C 
ATOM      9  C   UNL     1       1.415   2.064  -0.000  0.00  0.00    -0.009 C 
ATOM     10  C   UNL     1      -0.019   1.524   0.010  0.00  0.00    +0.008 C 
ATOM     11  C   UNL     1       0.002  -0.004   0.002  0.00  0.00    +0.037 C 
ATOM     12  C   UNL     1       1.397   3.572   0.258  0.00  0.00    +0.008 C 
ATOM     13  C   UNL     1      -0.059  -2.886  -1.246  0.00  0.00    +0.263 A 
ATOM     14  O   UNL     1      -0.846  -2.733  -0.327  0.00  0.00    -0.267 OA
ATOM     15  N   UNL     1       0.056  -4.062  -1.906  0.00  0.00    -0.287 N 
ENDROOT
BRANCH   1  16
ATOM     16  S   UNL     1       0.983  -5.833  -3.713  0.00  0.00    -0.078 S 
BRANCH  16  17
ATOM     17  C   UNL     1       2.262  -5.526  -4.957  0.00  0.00    +0.173 C 
BRANCH  17  22
ATOM     18  N   UNL     1       4.511  -7.910  -8.474  0.00  0.00    -0.299 N 
ATOM     19  C   UNL     1       3.598  -7.902  -7.483  0.00  0.00    +0.306 C 
ATOM     20  O   UNL     1       2.954  -8.905  -7.243  0.00  0.00    -0.252 OA
ATOM     21  N   UNL     1       3.398  -6.784  -6.758  0.00  0.00    -0.240 N 
ATOM     22  C   UNL     1       2.485  -6.777  -5.767  0.00  0.00    +0.231 C 
ATOM     23  O   UNL     1       1.842  -7.777  -5.528  0.00  0.00    -0.274 OA
ATOM     24  H   UNL     1       5.094  -7.002  -8.691  0.00  0.00    +0.150 HD
ATOM     25  H   UNL     1       3.981  -5.877  -6.975  0.00  0.00    +0.159 HD
BRANCH  18  27
ATOM     26  C   UNL     1       5.809  -8.866 -10.312  0.00  0.00    +0.024 C 
ATOM     27  C   UNL     1       4.728  -9.125  -9.262  0.00  0.00    +0.102 C 
ENDBRANCH  18  27
ENDBRANCH  17  22
ENDBRANCH  16  17
ENDBRANCH   1  16
BRANCH  15  28
ATOM     28  C   UNL     1      -0.796  -5.181  -1.494  0.00  0.00    +0.127 C 
BRANCH  28  29
ATOM     29  C   UNL     1      -0.081  -5.996  -0.415  0.00  0.00    +0.025 C 
BRANCH  29  30
ATOM     30  C   UNL     1      -0.971  -7.164   0.015  0.00  0.00    -0.016 C 
ATOM     31  C   UNL     1      -0.207  -8.050   1.002  0.00  0.00    +0.007 C 
ATOM     32  C   UNL     1      -2.234  -6.623   0.687  0.00  0.00    +0.007 C 
ENDBRANCH  29  30
ENDBRANCH  28  29
ENDBRANCH  15  28
TORSDOF 7
