REMARK  Name = ZINC34792718
REMARK  11 active torsions:
REMARK  status: ('A' for Active; 'I' for Inactive)
REMARK    1  A    between atoms: C_1  and  N_2
REMARK    2  A    between atoms: C_5  and  C_10
REMARK    3  A    between atoms: C_14  and  O_18
REMARK    4  A    between atoms: C_15  and  O_16
REMARK    5  A    between atoms: O_16  and  C_17
REMARK    6  A    between atoms: O_18  and  C_19
REMARK    7  A    between atoms: N_22  and  C_24
REMARK    8  A    between atoms: C_24  and  C_25
REMARK    9  A    between atoms: N_27  and  C_28
REMARK   10  A    between atoms: N_31  and  C_34
REMARK   11  A    between atoms: C_34  and  C_35
REMARK                            x       y       z     vdW  Elec       q    Type
REMARK                         _______ _______ _______ _____ _____    ______ ____
ROOT
ATOM      1  C   UNL     1      -0.454   1.436   0.013  0.00  0.00    +0.139 C 
ATOM      2  N   UNL     1      -0.281  -0.019   0.003  0.00  0.00    -0.260 N 
ATOM      3  C   UNL     1      -1.395  -0.802   0.100  0.00  0.00    +0.042 C 
ATOM      4  C   UNL     1      -1.306  -2.148   0.097  0.00  0.00    +0.058 C 
ATOM      5  C   UNL     1       0.075  -2.762  -0.018  0.00  0.00    +0.145 C 
ATOM      6  N   UNL     1       1.212  -1.832  -0.117  0.00  0.00    -0.288 N 
ATOM      7  C   UNL     1       0.962  -0.508  -0.105  0.00  0.00    +0.307 C 
ATOM      8  O   UNL     1       1.894   0.268  -0.191  0.00  0.00    -0.252 OA
ATOM      9  C   UNL     1      -2.588  -2.724   0.208  0.00  0.00    +0.247 C 
ATOM     10  O   UNL     1      -2.804  -3.922   0.230  0.00  0.00    -0.270 OA
ATOM     11  N   UNL     1      -3.541  -1.778   0.286  0.00  0.00    -0.283 N 
ATOM     12  C   UNL     1      -2.866  -0.474   0.224  0.00  0.00    +0.160 C 
ATOM     13  H   UNL     1       2.120  -2.165  -0.193  0.00  0.00    +0.151 HD
ENDROOT
BRANCH   5  14
ATOM     14  C   UNL     1       0.090  -3.646  -1.239  0.00  0.00    +0.023 A 
ATOM     15  C   UNL     1      -0.884  -3.500  -2.210  0.00  0.00    +0.009 A 
ATOM     16  C   UNL     1      -0.873  -4.309  -3.331  0.00  0.00    +0.004 A 
ATOM     17  C   UNL     1       0.112  -5.268  -3.486  0.00  0.00    +0.049 A 
ATOM     18  C   UNL     1       1.090  -5.419  -2.516  0.00  0.00    +0.162 A 
ATOM     19  C   UNL     1       1.082  -4.600  -1.391  0.00  0.00    +0.167 A 
BRANCH  19  20
ATOM     20  O   UNL     1       2.044  -4.741  -0.439  0.00  0.00    -0.491 OA
ATOM     21  C   UNL     1       1.828  -5.742   0.558  0.00  0.00    +0.277 C 
ENDBRANCH  19  20
BRANCH  18  22
ATOM     22  O   UNL     1       2.059  -6.361  -2.667  0.00  0.00    -0.491 OA
ATOM     23  C   UNL     1       2.007  -7.161  -3.850  0.00  0.00    +0.277 C 
ENDBRANCH  18  22
ENDBRANCH   5  14
BRANCH  11  24
ATOM     24  C   UNL     1      -4.983  -2.006   0.409  0.00  0.00    +0.204 C 
BRANCH  24  25
ATOM     25  C   UNL     1      -5.357  -2.079   1.867  0.00  0.00    +0.231 C 
ATOM     26  O   UNL     1      -4.504  -1.954   2.719  0.00  0.00    -0.274 OA
ATOM     27  N   UNL     1      -6.641  -2.284   2.223  0.00  0.00    -0.311 N 
ATOM     28  H   UNL     1      -7.324  -2.384   1.541  0.00  0.00    +0.149 HD
BRANCH  27  29
ATOM     29  C   UNL     1      -7.005  -2.355   3.640  0.00  0.00    +0.069 C 
ATOM     30  C   UNL     1      -6.799  -3.784   4.151  0.00  0.00    +0.003 C 
ATOM     31  C   UNL     1      -7.256  -3.870   5.609  0.00  0.00    -0.077 C 
ATOM     32  N   UNL     1      -8.677  -3.516   5.701  0.00  0.00    +0.382 N 
ATOM     33  C   UNL     1      -8.872  -2.123   5.281  0.00  0.00    -0.077 C 
ATOM     34  C   UNL     1      -8.478  -1.970   3.811  0.00  0.00    +0.003 C 
ATOM     35  H   UNL     1      -9.214  -4.125   5.103  0.00  0.00    -0.081 HD
BRANCH  32  36
ATOM     36  C   UNL     1      -9.130  -3.675   7.090  0.00  0.00    -0.043 C 
BRANCH  36  37
ATOM     37  C   UNL     1     -10.616  -3.432   7.164  0.00  0.00    -0.064 A 
ATOM     38  C   UNL     1     -11.096  -2.155   7.392  0.00  0.00    +0.002 A 
ATOM     39  C   UNL     1     -12.459  -1.932   7.460  0.00  0.00    +0.000 A 
ATOM     40  C   UNL     1     -13.341  -2.985   7.301  0.00  0.00    +0.000 A 
ATOM     41  C   UNL     1     -12.860  -4.260   7.072  0.00  0.00    +0.000 A 
ATOM     42  C   UNL     1     -11.498  -4.483   7.000  0.00  0.00    +0.002 A 
ENDBRANCH  36  37
ENDBRANCH  32  36
ENDBRANCH  27  29
ENDBRANCH  24  25
ENDBRANCH  11  24
TORSDOF 8
