REMARK  Name = ZINC43772690
REMARK  11 active torsions:
REMARK  status: ('A' for Active; 'I' for Inactive)
REMARK    1  A    between atoms: C_1  and  C_2
REMARK    2  A    between atoms: C_2  and  C_4
REMARK    3  A    between atoms: C_2  and  C_12
REMARK    4  A    between atoms: C_5  and  C_6
REMARK    5  A    between atoms: C_6  and  C_8
REMARK    6  A    between atoms: C_6  and  O_11
REMARK    7  A    between atoms: C_16  and  C_36
REMARK    8  A    between atoms: C_17  and  C_35
REMARK    9  A    between atoms: C_22  and  C_23
REMARK   10  A    between atoms: C_26  and  O_34
REMARK   11  A    between atoms: C_29  and  O_33
REMARK                            x       y       z     vdW  Elec       q    Type
REMARK                         _______ _______ _______ _____ _____    ______ ____
ROOT
ATOM      1  C   UNL     1       1.168   0.274   1.134  0.00  0.00    +0.002 C 
ATOM      2  C   UNL     1       0.881  -1.250   1.164  0.00  0.00    +0.005 C 
ATOM      3  C   UNL     1       2.247  -1.956   0.941  0.00  0.00    +0.012 C 
ATOM      4  C   UNL     1       3.062  -0.891   0.203  0.00  0.00    -0.005 C 
ATOM      5  C   UNL     1       2.678   0.391   1.000  0.00  0.00    -0.020 C 
ATOM      6  C   UNL     1       3.243   1.580   0.257  0.00  0.00    +0.008 C 
ATOM      7  C   UNL     1       4.775   1.510   0.366  0.00  0.00    +0.005 C 
ATOM      8  C   UNL     1       5.327   0.213  -0.223  0.00  0.00    +0.031 C 
ATOM      9  C   UNL     1       4.555  -0.995   0.304  0.00  0.00    -0.063 C 
ATOM     10  C   UNL     1       5.163  -2.062   0.822  0.00  0.00    +0.000 C 
ATOM     11  C   UNL     1       3.315   0.330   2.389  0.00  0.00    +0.012 C 
ATOM     12  C   UNL     1       2.625  -0.792  -1.260  0.00  0.00    +0.016 C 
ENDROOT
BRANCH  10  13
ATOM     13  C   UNL     1       6.625  -2.107   0.896  0.00  0.00    +0.004 C 
ATOM     14  C   UNL     1       7.240  -3.187   1.420  0.00  0.00    -0.040 C 
ATOM     15  C   UNL     1       8.751  -3.271   1.520  0.00  0.00    +0.067 C 
ATOM     16  C   UNL     1       9.115  -3.759   2.925  0.00  0.00    +0.122 C 
ATOM     17  C   UNL     1       8.454  -5.112   3.191  0.00  0.00    +0.067 C 
ATOM     18  C   UNL     1       6.932  -4.946   3.240  0.00  0.00    +0.147 C 
ATOM     19  C   UNL     1       6.475  -4.343   1.931  0.00  0.00    -0.023 C 
ATOM     20  C   UNL     1       5.429  -4.837   1.268  0.00  0.00    +0.015 C 
BRANCH  18  21
ATOM     21  O   UNL     1       6.314  -6.220   3.430  0.00  0.00    -0.387 OA
ATOM     22  H   UNL     1       5.349  -6.187   3.470  0.00  0.00    +0.210 HD
ENDBRANCH  18  21
BRANCH  16  23
ATOM     23  O   UNL     1      10.534  -3.897   3.027  0.00  0.00    -0.391 OA
ATOM     24  H   UNL     1      11.021  -3.075   2.875  0.00  0.00    +0.210 HD
ENDBRANCH  16  23
ENDBRANCH  10  13
BRANCH   1  26
ATOM     25  C   UNL     1       0.545   2.445   0.064  0.00  0.00    +0.012 C 
ATOM     26  C   UNL     1       0.476   0.922  -0.068  0.00  0.00    +0.012 C 
BRANCH  26  27
ATOM     27  C   UNL     1      -0.966   0.486  -0.112  0.00  0.00    -0.025 C 
ATOM     28  C   UNL     1      -1.423  -0.160  -1.156  0.00  0.00    +0.000 C 
BRANCH  28  29
ATOM     29  C   UNL     1      -2.865  -0.596  -1.200  0.00  0.00    +0.140 C 
BRANCH  29  30
ATOM     30  C   UNL     1      -3.524  -0.050  -2.468  0.00  0.00    +0.022 C 
ATOM     31  C   UNL     1      -4.591   1.034  -2.300  0.00  0.00    +0.007 C 
ATOM     32  C   UNL     1      -4.999  -0.386  -2.698  0.00  0.00    +0.007 C 
ENDBRANCH  29  30
BRANCH  29  33
ATOM     33  O   UNL     1      -3.551  -0.091  -0.052  0.00  0.00    -0.387 OA
ATOM     34  H   UNL     1      -3.546   0.873   0.017  0.00  0.00    +0.210 HD
ENDBRANCH  29  33
ENDBRANCH  28  29
ENDBRANCH  26  27
ENDBRANCH   1  26
TORSDOF 8
