REMARK  Name = ZINC02718010
REMARK  9 active torsions:
REMARK  status: ('A' for Active; 'I' for Inactive)
REMARK    1  A    between atoms: C_1  and  C_2
REMARK    2  A    between atoms: C_2  and  O_3
REMARK    3  A    between atoms: O_3  and  C_4
REMARK    4  A    between atoms: C_4  and  C_6
REMARK    5  A    between atoms: C_10  and  N_11
REMARK    6  A    between atoms: C_12  and  C_14
REMARK    7  A    between atoms: C_14  and  S_15
REMARK    8  A    between atoms: S_15  and  C_16
REMARK    9  A    between atoms: N_23  and  C_26
REMARK                            x       y       z     vdW  Elec       q    Type
REMARK                         _______ _______ _______ _____ _____    ______ ____
ROOT
ATOM      1  C   UNL     1      -2.590  -2.597  -5.387  0.00  0.00    +0.173 C 
ENDROOT
BRANCH   1   3
ATOM      2  N   UNL     1      -0.603  -2.454  -3.921  0.00  0.00    -0.279 N 
ATOM      3  C   UNL     1      -1.118  -2.781  -5.122  0.00  0.00    +0.228 C 
ATOM      4  O   UNL     1      -0.397  -3.224  -5.991  0.00  0.00    -0.275 OA
ATOM      5  H   UNL     1      -1.180  -2.100  -3.226  0.00  0.00    +0.155 HD
BRANCH   2  10
ATOM      6  C   UNL     1       1.449  -2.344  -2.516  0.00  0.00    +0.091 A 
ATOM      7  C   UNL     1       2.885  -2.621  -2.515  0.00  0.00    -0.021 A 
ATOM      8  C   UNL     1       3.349  -3.116  -3.676  0.00  0.00    -0.004 A 
ATOM      9  S   UNL     1       1.922  -3.210  -4.726  0.00  0.00    -0.077 S 
ATOM     10  C   UNL     1       0.751  -2.623  -3.678  0.00  0.00    +0.086 A 
ATOM     11  C   UNL     1       4.830  -3.378  -3.621  0.00  0.00    +0.043 C 
ATOM     12  C   UNL     1       5.324  -2.577  -2.396  0.00  0.00    +0.010 C 
ATOM     13  C   UNL     1       4.048  -2.505  -1.532  0.00  0.00    +0.037 C 
BRANCH   6  14
ATOM     14  C   UNL     1       0.776  -1.800  -1.335  0.00  0.00    +0.342 C 
ATOM     15  O   UNL     1       0.312  -2.552  -0.499  0.00  0.00    -0.245 OA
BRANCH  14  16
ATOM     16  O   UNL     1       0.671  -0.465  -1.174  0.00  0.00    -0.461 OA
BRANCH  16  18
ATOM     17  C   UNL     1      -0.019   1.526   0.010  0.00  0.00    +0.048 C 
ATOM     18  C   UNL     1       0.002  -0.004   0.002  0.00  0.00    +0.229 C 
ENDBRANCH  16  18
ENDBRANCH  14  16
ENDBRANCH   6  14
ENDBRANCH   2  10
ENDBRANCH   1   3
BRANCH   1  19
ATOM     19  S   UNL     1      -2.971  -3.124  -7.080  0.00  0.00    -0.077 S 
BRANCH  19  20
ATOM     20  C   UNL     1      -4.705  -2.851  -7.231  0.00  0.00    +0.194 A 
ATOM     21  N   UNL     1      -5.368  -2.353  -6.192  0.00  0.00    -0.183 NA
ATOM     22  C   UNL     1      -6.673  -2.129  -6.255  0.00  0.00    +0.285 A 
ATOM     23  O   UNL     1      -7.339  -1.622  -5.192  0.00  0.00    -0.265 OA
ATOM     24  C   UNL     1      -7.350  -2.430  -7.452  0.00  0.00    +0.105 A 
ATOM     25  C   UNL     1      -8.691  -2.331  -7.883  0.00  0.00    +0.150 A 
ATOM     26  N   UNL     1      -8.763  -2.757  -9.112  0.00  0.00    -0.172 NA
ATOM     27  N   UNL     1      -7.493  -3.154  -9.550  0.00  0.00    -0.214 N 
ATOM     28  C   UNL     1      -6.608  -2.955  -8.528  0.00  0.00    +0.171 A 
ATOM     29  N   UNL     1      -5.299  -3.143  -8.377  0.00  0.00    -0.202 NA
BRANCH  27  30
ATOM     30  C   UNL     1      -7.183  -3.667 -10.817  0.00  0.00    +0.068 A 
ATOM     31  C   UNL     1      -5.962  -3.371 -11.407  0.00  0.00    +0.030 A 
ATOM     32  C   UNL     1      -5.659  -3.877 -12.656  0.00  0.00    +0.040 A 
ATOM     33  C   UNL     1      -6.572  -4.680 -13.319  0.00  0.00    +0.124 A 
ATOM     34  C   UNL     1      -7.790  -4.976 -12.732  0.00  0.00    +0.040 A 
ATOM     35  C   UNL     1      -8.095  -4.476 -11.481  0.00  0.00    +0.030 A 
ATOM     36  F   UNL     1      -6.274  -5.174 -14.540  0.00  0.00    -0.205 F 
ENDBRANCH  27  30
ENDBRANCH  19  20
ENDBRANCH   1  19
TORSDOF 8
