REMARK  Name = ZINC36249021
REMARK  10 active torsions:
REMARK  status: ('A' for Active; 'I' for Inactive)
REMARK    1  A    between atoms: C_1  and  N_2
REMARK    2  A    between atoms: N_2  and  C_3
REMARK    3  A    between atoms: N_2  and  C_4
REMARK    4  A    between atoms: C_4  and  C_5
REMARK    5  A    between atoms: C_5  and  N_6
REMARK    6  A    between atoms: N_6  and  C_7
REMARK    7  A    between atoms: C_7  and  C_8
REMARK    8  A    between atoms: C_9  and  C_23
REMARK    9  A    between atoms: C_12  and  N_13
REMARK   10  A    between atoms: C_29  and  C_31
REMARK                            x       y       z     vdW  Elec       q    Type
REMARK                         _______ _______ _______ _____ _____    ______ ____
ROOT
ATOM      1  C   UNL     1      -4.488  -4.704  -1.571  0.00  0.00    +0.059 A 
ATOM      2  C   UNL     1      -3.835  -5.816  -2.142  0.00  0.00    +0.120 A 
ATOM      3  N   UNL     1      -4.468  -6.899  -1.755  0.00  0.00    -0.076 NA
ATOM      4  O   UNL     1      -5.545  -6.504  -0.925  0.00  0.00    -0.339 OA
ATOM      5  C   UNL     1      -5.527  -5.164  -0.829  0.00  0.00    +0.226 A 
ENDROOT
BRANCH   5   6
ATOM      6  N   UNL     1      -6.413  -4.389  -0.103  0.00  0.00    -0.294 N 
ATOM      7  C   UNL     1      -7.361  -3.481  -0.771  0.00  0.00    +0.113 C 
ATOM      8  C   UNL     1      -8.775  -3.977  -0.474  0.00  0.00    +0.054 C 
ATOM      9  C   UNL     1      -8.943  -4.274   0.993  0.00  0.00    -0.041 A 
ATOM     10  C   UNL     1     -10.237  -4.317   1.498  0.00  0.00    +0.004 A 
ATOM     11  C   UNL     1     -10.461  -4.593   2.830  0.00  0.00    +0.000 A 
ATOM     12  C   UNL     1      -9.391  -4.830   3.673  0.00  0.00    +0.000 A 
ATOM     13  C   UNL     1      -8.105  -4.784   3.175  0.00  0.00    +0.005 A 
ATOM     14  C   UNL     1      -7.878  -4.501   1.835  0.00  0.00    -0.027 A 
ATOM     15  C   UNL     1      -6.451  -4.444   1.362  0.00  0.00    +0.143 C 
ENDBRANCH   5   6
BRANCH   2  16
ATOM     16  C   UNL     1      -2.642  -5.769  -3.024  0.00  0.00    +0.004 A 
ATOM     17  C   UNL     1      -2.579  -4.849  -4.068  0.00  0.00    +0.010 A 
ATOM     18  C   UNL     1      -1.468  -4.809  -4.885  0.00  0.00    +0.001 A 
ATOM     19  C   UNL     1      -0.417  -5.682  -4.669  0.00  0.00    +0.000 A 
ATOM     20  C   UNL     1      -0.473  -6.599  -3.634  0.00  0.00    +0.001 A 
ATOM     21  C   UNL     1      -1.578  -6.643  -2.808  0.00  0.00    +0.010 A 
ENDBRANCH   2  16
BRANCH   1  22
ATOM     22  C   UNL     1      -4.098  -3.259  -1.750  0.00  0.00    +0.150 C 
BRANCH  22  23
ATOM     23  N   UNL     1      -3.128  -2.884  -0.718  0.00  0.00    -0.295 N 
ATOM     24  C   UNL     1      -3.543  -2.261   0.403  0.00  0.00    +0.247 C 
ATOM     25  O   UNL     1      -4.726  -2.039   0.572  0.00  0.00    -0.270 OA
BRANCH  24  26
ATOM     26  C   UNL     1      -2.561  -1.849   1.425  0.00  0.00    +0.041 A 
ATOM     27  C   UNL     1      -1.280  -1.443   1.042  0.00  0.00    +0.017 A 
ATOM     28  C   UNL     1      -0.365  -1.058   1.997  0.00  0.00    +0.050 A 
ATOM     29  C   UNL     1      -0.711  -1.072   3.342  0.00  0.00    +0.166 A 
ATOM     30  C   UNL     1      -1.988  -1.477   3.731  0.00  0.00    +0.167 A 
ATOM     31  C   UNL     1      -2.912  -1.859   2.777  0.00  0.00    +0.062 A 
ATOM     32  O   UNL     1      -2.073  -1.401   5.091  0.00  0.00    -0.453 OA
ATOM     33  C   UNL     1      -0.713  -1.339   5.558  0.00  0.00    +0.466 C 
ATOM     34  O   UNL     1       0.000  -0.743   4.458  0.00  0.00    -0.453 OA
ENDBRANCH  24  26
BRANCH  23  35
ATOM     35  C   UNL     1      -1.707  -3.187  -0.905  0.00  0.00    +0.090 C 
BRANCH  35  36
ATOM     36  C   UNL     1      -1.128  -2.269  -1.984  0.00  0.00    -0.060 C 
BRANCH  36  38
ATOM     37  C   UNL     1       0.782  -1.879  -3.382  0.00  0.00    -0.097 C 
ATOM     38  N   UNL     1       0.285  -2.606  -2.205  0.00  0.00    +0.377 N 
ATOM     39  C   UNL     1       1.071  -2.222  -1.025  0.00  0.00    -0.097 C 
ATOM     40  H   UNL     1       0.374  -3.599  -2.361  0.00  0.00    -0.083 HD
ENDBRANCH  36  38
ENDBRANCH  35  36
ENDBRANCH  23  35
ENDBRANCH  22  23
ENDBRANCH   1  22
TORSDOF 8
