REMARK  Name = ZINC44921654
REMARK  3 active torsions:
REMARK  status: ('A' for Active; 'I' for Inactive)
REMARK    1  A    between atoms: C_4  and  N_7
REMARK    2  A    between atoms: C_12  and  C_19
REMARK    3  A    between atoms: C_16  and  O_18
REMARK                            x       y       z     vdW  Elec       q    Type
REMARK                         _______ _______ _______ _____ _____    ______ ____
ROOT
ATOM      1  N   UNL     1       3.623  -0.651  -0.037  0.00  0.00    -0.214 N 
ATOM      2  C   UNL     1       3.889  -1.853   0.592  0.00  0.00    +0.164 A 
ATOM      3  C   UNL     1       5.194  -2.159   0.312  0.00  0.00    +0.034 A 
ATOM      4  C   UNL     1       5.715  -1.125  -0.486  0.00  0.00    +0.142 A 
ATOM      5  N   UNL     1       4.782  -0.239  -0.694  0.00  0.00    -0.173 NA
ATOM      6  C   UNL     1       6.009  -3.350   0.719  0.00  0.00    +0.118 C 
ATOM      7  S   UNL     1       5.563  -3.975   2.343  0.00  0.00    -0.138 S 
ATOM      8  C   UNL     1       3.889  -4.611   2.181  0.00  0.00    +0.165 C 
ATOM      9  C   UNL     1       2.881  -3.549   1.980  0.00  0.00    +0.199 C 
ATOM     10  N   UNL     1       2.953  -2.489   1.316  0.00  0.00    -0.197 NA
ENDROOT
BRANCH   1  14
ATOM     11  C   UNL     1      -0.017   1.379   0.010  0.00  0.00    +0.000 A 
ATOM     12  C   UNL     1       1.170   2.089   0.002  0.00  0.00    +0.002 A 
ATOM     13  C   UNL     1       2.377   1.419  -0.013  0.00  0.00    +0.028 A 
ATOM     14  C   UNL     1       2.400   0.031  -0.021  0.00  0.00    +0.068 A 
ATOM     15  C   UNL     1       1.206  -0.680  -0.013  0.00  0.00    +0.028 A 
ATOM     16  C   UNL     1       0.002  -0.004   0.002  0.00  0.00    +0.002 A 
ENDBRANCH   1  14
BRANCH   6  17
ATOM     17  C   UNL     1       7.465  -2.961   0.733  0.00  0.00    +0.007 A 
ATOM     18  C   UNL     1       8.492  -3.472   0.013  0.00  0.00    +0.012 A 
ATOM     19  C   UNL     1       9.761  -2.953   0.191  0.00  0.00    +0.008 A 
ATOM     20  C   UNL     1       9.940  -1.947   1.083  0.00  0.00    +0.045 A 
ATOM     21  S   UNL     1       8.282  -1.700   1.698  0.00  0.00    -0.100 S 
ENDBRANCH   6  17
BRANCH   9  22
ATOM     22  O   UNL     1       1.704  -3.752   2.606  0.00  0.00    -0.495 OA
ATOM     23  H   UNL     1       1.056  -3.048   2.463  0.00  0.00    +0.293 HD
ENDBRANCH   9  22
TORSDOF 3
