REMARK  Name = ZINC01745868
REMARK  4 active torsions:
REMARK  status: ('A' for Active; 'I' for Inactive)
REMARK    1  A    between atoms: C_3  and  S_19
REMARK    2  A    between atoms: C_6  and  C_7
REMARK    3  A    between atoms: C_7  and  C_8
REMARK    4  A    between atoms: S_19  and  N_22
REMARK                            x       y       z     vdW  Elec       q    Type
REMARK                         _______ _______ _______ _____ _____    ______ ____
ROOT
ATOM      1  C   UNL     1      -0.017   1.378   0.010  0.00  0.00    +0.006 A 
ATOM      2  C   UNL     1       0.002  -0.004   0.002  0.00  0.00    +0.029 A 
ATOM      3  C   UNL     1       1.208  -0.679  -0.013  0.00  0.00    +0.105 A 
ATOM      4  C   UNL     1       2.396   0.029  -0.021  0.00  0.00    +0.029 A 
ATOM      5  C   UNL     1       2.377   1.411  -0.015  0.00  0.00    +0.006 A 
ATOM      6  C   UNL     1       1.171   2.086   0.002  0.00  0.00    -0.042 A 
ENDROOT
BRANCH   3   7
ATOM      7  S   UNL     1       1.232  -2.441  -0.022  0.00  0.00    +0.056 S 
ATOM      8  O   UNL     1       2.489  -2.832   0.515  0.00  0.00    -0.153 OA
ATOM      9  O   UNL     1      -0.002  -2.866   0.539  0.00  0.00    -0.153 OA
BRANCH   7  10
ATOM     10  N   UNL     1       1.223  -2.923  -1.606  0.00  0.00    -0.204 NA
ATOM     11  H   UNL     1       1.652  -3.754  -1.862  0.00  0.00    +0.144 HD
ATOM     12  H   UNL     1       0.789  -2.374  -2.277  0.00  0.00    +0.144 HD
ENDBRANCH   7  10
ENDBRANCH   3   7
BRANCH   6  13
ATOM     13  C   UNL     1       1.151   3.592   0.010  0.00  0.00    +0.089 C 
BRANCH  13  14
ATOM     14  C   UNL     1       1.157   4.087   1.433  0.00  0.00    +0.044 A 
ATOM     15  C   UNL     1       2.321   4.422   2.030  0.00  0.00    +0.102 A 
ATOM     16  C   UNL     1       2.301   4.886   3.368  0.00  0.00    +0.268 A 
ATOM     17  O   UNL     1       3.338   5.193   3.928  0.00  0.00    -0.267 OA
ATOM     18  N   UNL     1       1.123   4.982   4.017  0.00  0.00    -0.274 N 
ATOM     19  H   UNL     1       1.101   5.308   4.963  0.00  0.00    +0.173 HD
ATOM     20  C   UNL     1      -0.022   4.642   3.398  0.00  0.00    +0.327 A 
ATOM     21  O   UNL     1      -1.077   4.736   3.996  0.00  0.00    -0.247 OA
ATOM     22  N   UNL     1      -0.018   4.205   2.126  0.00  0.00    -0.310 N 
ATOM     23  H   UNL     1      -0.881   3.964   1.682  0.00  0.00    +0.170 HD
ATOM     24 BR   UNL     1       3.956   4.275   1.091  0.00  0.00    -0.043 Br
ENDBRANCH  13  14
ENDBRANCH   6  13
TORSDOF 4
