REMARK  Name = ZINC39676598
REMARK  10 active torsions:
REMARK  status: ('A' for Active; 'I' for Inactive)
REMARK    1  A    between atoms: C_1  and  C_2
REMARK    2  A    between atoms: C_6  and  C_7
REMARK    3  A    between atoms: C_11  and  C_20
REMARK    4  A    between atoms: N_22  and  C_23
REMARK    5  A    between atoms: C_23  and  C_24
REMARK    6  A    between atoms: C_23  and  C_32
REMARK    7  A    between atoms: C_27  and  O_30
REMARK    8  A    between atoms: O_30  and  C_31
REMARK    9  A    between atoms: C_35  and  O_38
REMARK   10  A    between atoms: O_38  and  C_39
REMARK                            x       y       z     vdW  Elec       q    Type
REMARK                         _______ _______ _______ _____ _____    ______ ____
ROOT
ATOM      1  C   UNL     1       0.245  -4.375   5.277  0.00  0.00    +0.219 C 
ATOM      2  O   UNL     1      -0.932  -4.635   5.138  0.00  0.00    -0.275 OA
ATOM      3  N   UNL     1       1.044  -5.216   5.963  0.00  0.00    -0.304 N 
ATOM      4  H   UNL     1       1.985  -5.009   6.073  0.00  0.00    +0.150 HD
ENDROOT
BRANCH   1   9
ATOM      5  C   UNL     1       0.030  -0.284   2.560  0.00  0.00    +0.254 C 
ATOM      6  O   UNL     1       0.119   0.905   2.803  0.00  0.00    -0.269 OA
ATOM      7  N   UNL     1      -0.050  -1.174   3.569  0.00  0.00    -0.296 N 
ATOM      8  C   UNL     1      -0.041  -2.653   3.479  0.00  0.00    +0.121 C 
ATOM      9  C   UNL     1       0.813  -3.113   4.682  0.00  0.00    +0.100 C 
ATOM     10  C   UNL     1       0.724  -1.955   5.691  0.00  0.00    -0.004 C 
ATOM     11  C   UNL     1      -0.162  -0.894   5.021  0.00  0.00    +0.115 C 
ATOM     12  C   UNL     1       0.084  -2.435   6.990  0.00  0.00    -0.010 C 
ATOM     13  C   UNL     1       0.060  -1.282   7.997  0.00  0.00    -0.082 C 
ATOM     14  N   UNL     1       1.430  -0.817   8.246  0.00  0.00    +0.379 N 
ATOM     15  C   UNL     1       2.005  -0.272   7.010  0.00  0.00    -0.082 C 
ATOM     16  C   UNL     1       2.112  -1.382   5.961  0.00  0.00    -0.010 C 
ATOM     17  H   UNL     1       1.417  -0.099   8.954  0.00  0.00    -0.086 HD
ATOM     18  H   UNL     1       1.994  -1.591   8.565  0.00  0.00    -0.086 HD
BRANCH   5  24
ATOM     19  C   UNL     1      -0.013   1.502   0.009  0.00  0.00    +0.045 C 
ATOM     20  C   UNL     1      -0.009  -0.004   0.000  0.00  0.00    -0.031 A 
ATOM     21  C   UNL     1      -0.018  -0.729  -1.168  0.00  0.00    +0.011 A 
ATOM     22  C   UNL     1      -0.012  -2.083  -1.103  0.00  0.00    +0.046 A 
ATOM     23  S   UNL     1       0.006  -2.417   0.543  0.00  0.00    -0.092 S 
ATOM     24  C   UNL     1       0.012  -0.749   1.170  0.00  0.00    +0.077 A 
ENDBRANCH   5  24
ENDBRANCH   1   9
BRANCH   3  25
ATOM     25  C   UNL     1       0.491  -6.444   6.541  0.00  0.00    +0.134 C 
BRANCH  25  26
ATOM     26  C   UNL     1       0.485  -7.531   5.498  0.00  0.00    -0.023 A 
ATOM     27  C   UNL     1       1.556  -7.666   4.634  0.00  0.00    +0.009 A 
ATOM     28  C   UNL     1       1.552  -8.662   3.677  0.00  0.00    +0.046 A 
ATOM     29  C   UNL     1       0.472  -9.528   3.583  0.00  0.00    +0.120 A 
ATOM     30  C   UNL     1      -0.602  -9.391   4.451  0.00  0.00    +0.046 A 
ATOM     31  C   UNL     1      -0.591  -8.396   5.410  0.00  0.00    +0.009 A 
BRANCH  29  32
ATOM     32  O   UNL     1       0.465 -10.508   2.642  0.00  0.00    -0.495 OA
ATOM     33  C   UNL     1      -0.679 -11.363   2.603  0.00  0.00    +0.277 C 
ENDBRANCH  29  32
ENDBRANCH  25  26
BRANCH  25  34
ATOM     34  C   UNL     1       1.339  -6.874   7.710  0.00  0.00    -0.023 A 
ATOM     35  C   UNL     1       2.716  -6.763   7.642  0.00  0.00    +0.009 A 
ATOM     36  C   UNL     1       3.495  -7.157   8.712  0.00  0.00    +0.046 A 
ATOM     37  C   UNL     1       2.896  -7.664   9.856  0.00  0.00    +0.120 A 
ATOM     38  C   UNL     1       1.514  -7.774   9.922  0.00  0.00    +0.046 A 
ATOM     39  C   UNL     1       0.739  -7.374   8.851  0.00  0.00    +0.009 A 
BRANCH  37  40
ATOM     40  O   UNL     1       3.660  -8.053  10.910  0.00  0.00    -0.495 OA
ATOM     41  C   UNL     1       2.975  -8.566  12.055  0.00  0.00    +0.277 C 
ENDBRANCH  37  40
ENDBRANCH  25  34
ENDBRANCH   3  25
TORSDOF 7
