REMARK  Name = ZINC41069998
REMARK  7 active torsions:
REMARK  status: ('A' for Active; 'I' for Inactive)
REMARK    1  A    between atoms: C_1  and  C_2
REMARK    2  A    between atoms: C_6  and  N_9
REMARK    3  A    between atoms: C_7  and  C_8
REMARK    4  A    between atoms: N_9  and  S_10
REMARK    5  A    between atoms: S_10  and  C_13
REMARK    6  A    between atoms: C_18  and  N_19
REMARK    7  A    between atoms: N_19  and  N_20
REMARK                            x       y       z     vdW  Elec       q    Type
REMARK                         _______ _______ _______ _____ _____    ______ ____
ROOT
ATOM      1  S   UNL     1       0.808  -4.358   2.507  0.00  0.00    +0.076 S 
ATOM      2  O   UNL     1       0.634  -4.981   3.773  0.00  0.00    -0.150 OA
ATOM      3  O   UNL     1       0.396  -4.970   1.293  0.00  0.00    -0.150 OA
ENDROOT
BRANCH   1   4
ATOM      4  C   UNL     1       2.531  -4.024   2.344  0.00  0.00    +0.150 A 
ATOM      5  C   UNL     1       3.212  -4.400   1.200  0.00  0.00    +0.049 A 
ATOM      6  C   UNL     1       4.569  -4.117   1.114  0.00  0.00    +0.038 A 
ATOM      7  C   UNL     1       5.194  -3.474   2.165  0.00  0.00    +0.128 A 
ATOM      8  N   UNL     1       4.518  -3.127   3.244  0.00  0.00    -0.236 NA
ATOM      9  C   UNL     1       3.222  -3.374   3.361  0.00  0.00    +0.159 A 
ATOM     10 BR   UNL     1       5.552  -4.609  -0.425  0.00  0.00    -0.049 Br
BRANCH   9  11
ATOM     11  N   UNL     1       2.548  -2.985   4.513  0.00  0.00    -0.266 N 
ATOM     12  H   UNL     1       1.584  -3.077   4.565  0.00  0.00    +0.167 HD
BRANCH  11  13
ATOM     13  N   UNL     1       3.244  -2.473   5.571  0.00  0.00    -0.255 NA
ATOM     14  H   UNL     1       2.633  -2.302   6.356  0.00  0.00    +0.140 HD
ATOM     15  H   UNL     1       4.006  -3.080   5.831  0.00  0.00    +0.140 HD
ENDBRANCH  11  13
ENDBRANCH   9  11
ENDBRANCH   1   4
BRANCH   1  16
ATOM     16  N   UNL     1       0.032  -2.897   2.588  0.00  0.00    -0.216 N 
ATOM     17  H   UNL     1      -0.492  -2.669   3.371  0.00  0.00    +0.174 HD
BRANCH  16  23
ATOM     18  C   UNL     1       0.326   1.744   1.000  0.00  0.00    +0.044 C 
ATOM     19  C   UNL     1       0.278   0.263   0.728  0.00  0.00    -0.046 A 
ATOM     20  C   UNL     1       0.333  -0.203  -0.573  0.00  0.00    +0.004 A 
ATOM     21  C   UNL     1       0.288  -1.562  -0.826  0.00  0.00    +0.002 A 
ATOM     22  C   UNL     1       0.188  -2.458   0.220  0.00  0.00    +0.025 A 
ATOM     23  C   UNL     1       0.133  -1.993   1.528  0.00  0.00    +0.051 A 
ATOM     24  C   UNL     1       0.184  -0.628   1.779  0.00  0.00    -0.025 A 
ATOM     25  C   UNL     1       0.130  -0.119   3.197  0.00  0.00    +0.046 C 
ENDBRANCH  16  23
ENDBRANCH   1  16
TORSDOF 5
