REMARK  Name = ZINC09596268
REMARK  7 active torsions:
REMARK  status: ('A' for Active; 'I' for Inactive)
REMARK    1  A    between atoms: C_1  and  C_2
REMARK    2  A    between atoms: C_2  and  C_4
REMARK    3  A    between atoms: C_2  and  S_17
REMARK    4  A    between atoms: S_17  and  C_18
REMARK    5  A    between atoms: C_21  and  C_30
REMARK    6  A    between atoms: N_22  and  C_23
REMARK    7  A    between atoms: C_30  and  N_62
REMARK                            x       y       z     vdW  Elec       q    Type
REMARK                         _______ _______ _______ _____ _____    ______ ____
ROOT
ATOM      1  C   UNL     1      -5.338   2.217   3.591  0.00  0.00    +0.197 A 
ATOM      2  N   UNL     1      -5.618   1.249   2.749  0.00  0.00    -0.122 NA
ATOM      3  N   UNL     1      -6.624   0.573   3.178  0.00  0.00    -0.135 NA
ATOM      4  C   UNL     1      -7.045   1.064   4.309  0.00  0.00    +0.122 A 
ATOM      5  N   UNL     1      -6.238   2.126   4.617  0.00  0.00    -0.276 N 
ENDROOT
BRANCH   5   6
ATOM      6  C   UNL     1      -6.318   2.952   5.749  0.00  0.00    +0.050 A 
ATOM      7  C   UNL     1      -6.083   2.425   7.012  0.00  0.00    +0.029 A 
ATOM      8  C   UNL     1      -6.158   3.240   8.124  0.00  0.00    +0.040 A 
ATOM      9  C   UNL     1      -6.477   4.580   7.982  0.00  0.00    +0.124 A 
ATOM     10  C   UNL     1      -6.716   5.106   6.724  0.00  0.00    +0.040 A 
ATOM     11  C   UNL     1      -6.638   4.295   5.608  0.00  0.00    +0.029 A 
ATOM     12  F   UNL     1      -6.555   5.375   9.072  0.00  0.00    -0.205 F 
ENDBRANCH   5   6
BRANCH   1  13
ATOM     13  S   UNL     1      -4.045   3.403   3.432  0.00  0.00    -0.073 S 
BRANCH  13  15
ATOM     14  C   UNL     1      -4.336   3.065   0.736  0.00  0.00    +0.029 C 
ATOM     15  C   UNL     1      -3.319   2.867   1.862  0.00  0.00    +0.137 C 
BRANCH  15  16
ATOM     16  C   UNL     1      -2.086   3.684   1.574  0.00  0.00    +0.233 C 
ATOM     17  O   UNL     1      -1.925   4.753   2.125  0.00  0.00    -0.274 OA
ATOM     18  N   UNL     1      -1.163   3.228   0.706  0.00  0.00    -0.260 N 
ATOM     19  C   UNL     1      -1.335   1.935   0.019  0.00  0.00    +0.209 C 
ATOM     20  C   UNL     1      -0.014   1.209   0.009  0.00  0.00    +0.235 C 
ATOM     21  O   UNL     1       0.002  -0.004   0.002  0.00  0.00    -0.274 OA
ATOM     22  N   UNL     1       1.147   1.890   0.001  0.00  0.00    -0.283 N 
ATOM     23  C   UNL     1       1.157   3.288   0.058  0.00  0.00    +0.055 A 
ATOM     24  C   UNL     1      -0.006   3.970   0.421  0.00  0.00    +0.058 A 
ATOM     25  C   UNL     1      -0.009   5.351   0.488  0.00  0.00    +0.025 A 
ATOM     26  C   UNL     1       1.144   6.056   0.190  0.00  0.00    +0.002 A 
ATOM     27  C   UNL     1       2.295   5.383  -0.173  0.00  0.00    +0.002 A 
ATOM     28  C   UNL     1       2.306   4.001  -0.240  0.00  0.00    +0.025 A 
ATOM     29  H   UNL     1       1.987   1.406  -0.044  0.00  0.00    +0.155 HD
ENDBRANCH  15  16
ENDBRANCH  13  15
ENDBRANCH   1  13
BRANCH   4  30
ATOM     30  C   UNL     1      -8.201   0.553   5.130  0.00  0.00    -0.001 C 
BRANCH  30  36
ATOM     31  C   UNL     1      -7.228  -1.650   5.378  0.00  0.00    -0.078 C 
ATOM     32  C   UNL     1      -6.602  -2.616   6.386  0.00  0.00    -0.019 C 
ATOM     33  C   UNL     1      -7.652  -3.010   7.428  0.00  0.00    -0.004 C 
ATOM     34  C   UNL     1      -8.182  -1.746   8.111  0.00  0.00    -0.019 C 
ATOM     35  C   UNL     1      -8.762  -0.805   7.053  0.00  0.00    -0.078 C 
ATOM     36  N   UNL     1      -7.696  -0.444   6.095  0.00  0.00    +0.384 N 
ATOM     37  H   UNL     1      -6.907  -0.038   6.613  0.00  0.00    -0.081 HD
ENDBRANCH  30  36
ENDBRANCH   4  30
TORSDOF 6
