REMARK  Name = ZINC54043749
REMARK  7 active torsions:
REMARK  status: ('A' for Active; 'I' for Inactive)
REMARK    1  A    between atoms: C_7  and  C_11
REMARK    2  A    between atoms: C_11  and  C_12
REMARK    3  A    between atoms: C_12  and  N_13
REMARK    4  A    between atoms: N_16  and  C_17
REMARK    5  A    between atoms: C_17  and  C_18
REMARK    6  A    between atoms: C_18  and  C_20
REMARK    7  A    between atoms: C_18  and  N_25
REMARK                            x       y       z     vdW  Elec       q    Type
REMARK                         _______ _______ _______ _____ _____    ______ ____
ROOT
ATOM      1  N   UNL     1      -1.028  -4.502  -1.407  0.00  0.00    -0.299 N 
ATOM      2  C   UNL     1      -1.456  -5.014  -2.577  0.00  0.00    +0.300 C 
ATOM      3  O   UNL     1      -1.254  -4.414  -3.615  0.00  0.00    -0.253 OA
ATOM      4  N   UNL     1      -2.110  -6.193  -2.598  0.00  0.00    -0.301 N 
ATOM      5  H   UNL     1      -1.189  -4.981  -0.579  0.00  0.00    +0.150 HD
ATOM      6  H   UNL     1      -2.271  -6.673  -1.770  0.00  0.00    +0.150 HD
ENDROOT
BRANCH   1   7
ATOM      7  C   UNL     1      -0.318  -3.221  -1.385  0.00  0.00    +0.110 C 
BRANCH   7   8
ATOM      8  C   UNL     1       0.056  -2.869   0.057  0.00  0.00    +0.056 C 
BRANCH   8  15
ATOM      9  C   UNL     1      -1.380   1.591   0.178  0.00  0.00    +0.001 A 
ATOM     10  C   UNL     1      -0.328   2.498   0.188  0.00  0.00    +0.002 A 
ATOM     11  C   UNL     1       0.977   2.060   0.164  0.00  0.00    +0.026 A 
ATOM     12  C   UNL     1       1.248   0.695   0.128  0.00  0.00    +0.047 A 
ATOM     13  C   UNL     1       0.179  -0.219   0.118  0.00  0.00    +0.003 A 
ATOM     14  C   UNL     1      -1.137   0.247   0.143  0.00  0.00    +0.010 A 
ATOM     15  C   UNL     1       0.786  -1.552   0.080  0.00  0.00    -0.021 A 
ATOM     16  C   UNL     1       2.117  -1.376   0.069  0.00  0.00    +0.087 A 
ATOM     17  N   UNL     1       2.412  -0.040   0.098  0.00  0.00    -0.360 N 
ATOM     18  H   UNL     1       3.307   0.334   0.097  0.00  0.00    +0.165 HD
ENDBRANCH   8  15
ENDBRANCH   7   8
ENDBRANCH   1   7
BRANCH   4  19
ATOM     19  C   UNL     1      -2.576  -6.750  -3.870  0.00  0.00    +0.095 C 
BRANCH  19  20
ATOM     20  C   UNL     1      -3.392  -8.017  -3.603  0.00  0.00    -0.013 C 
BRANCH  20  21
ATOM     21  N   UNL     1      -3.747  -8.649  -4.881  0.00  0.00    +0.386 N 
ATOM     22  C   UNL     1      -4.615  -9.819  -4.633  0.00  0.00    -0.078 C 
ATOM     23  C   UNL     1      -4.191 -10.859  -5.700  0.00  0.00    -0.020 C 
ATOM     24  C   UNL     1      -2.658 -10.632  -5.767  0.00  0.00    -0.020 C 
ATOM     25  C   UNL     1      -2.523  -9.108  -5.564  0.00  0.00    -0.078 C 
ATOM     26  H   UNL     1      -4.233  -7.985  -5.465  0.00  0.00    -0.081 HD
ENDBRANCH  20  21
BRANCH  20  27
ATOM     27  C   UNL     1      -4.649  -7.657  -2.855  0.00  0.00    -0.022 A 
ATOM     28  C   UNL     1      -4.911  -7.755  -1.528  0.00  0.00    +0.009 A 
ATOM     29  C   UNL     1      -6.149  -7.359  -1.058  0.00  0.00    +0.008 A 
ATOM     30  C   UNL     1      -7.065  -6.885  -1.938  0.00  0.00    +0.045 A 
ATOM     31  S   UNL     1      -6.178  -6.982  -3.484  0.00  0.00    -0.103 S 
ENDBRANCH  20  27
ENDBRANCH  19  20
ENDBRANCH   4  19
TORSDOF 7
