REMARK  Name = ZINC20533408
REMARK  7 active torsions:
REMARK  status: ('A' for Active; 'I' for Inactive)
REMARK    1  A    between atoms: C_3  and  C_8
REMARK    2  A    between atoms: C_15  and  O_29
REMARK    3  A    between atoms: C_16  and  C_19
REMARK    4  A    between atoms: C_19  and  N_20
REMARK    5  A    between atoms: N_23  and  C_26
REMARK    6  A    between atoms: C_26  and  C_27
REMARK    7  A    between atoms: C_27  and  O_28
REMARK                            x       y       z     vdW  Elec       q    Type
REMARK                         _______ _______ _______ _____ _____    ______ ____
ROOT
ATOM      1  C   UNL     1       0.405  -0.387  -0.799  0.00  0.00    +0.058 C 
ATOM      2  C   UNL     1      -0.763  -1.037  -0.572  0.00  0.00    +0.176 C 
ATOM      3  C   UNL     1      -0.946  -2.495  -0.489  0.00  0.00    +0.231 C 
ATOM      4  O   UNL     1      -0.097  -3.361  -0.608  0.00  0.00    -0.283 OA
ATOM      5  C   UNL     1      -2.385  -2.673  -0.227  0.00  0.00    +0.068 A 
ATOM      6  C   UNL     1      -3.190  -3.798  -0.043  0.00  0.00    +0.019 A 
ATOM      7  C   UNL     1      -4.529  -3.648   0.183  0.00  0.00    +0.046 A 
ATOM      8  C   UNL     1      -5.092  -2.375   0.230  0.00  0.00    +0.122 A 
ATOM      9  C   UNL     1      -4.305  -1.249   0.049  0.00  0.00    +0.020 A 
ATOM     10  C   UNL     1      -2.942  -1.385  -0.182  0.00  0.00    +0.144 A 
ATOM     11  O   UNL     1      -1.975  -0.463  -0.385  0.00  0.00    -0.451 OA
ENDROOT
BRANCH   1  14
ATOM     12  C   UNL     1      -0.675   3.194  -0.536  0.00  0.00    +0.003 A 
ATOM     13  C   UNL     1      -0.727   1.818  -0.592  0.00  0.00    +0.008 A 
ATOM     14  C   UNL     1       0.453   1.081  -0.740  0.00  0.00    -0.019 A 
ATOM     15  C   UNL     1       1.680   1.748  -0.824  0.00  0.00    +0.046 A 
ATOM     16  C   UNL     1       1.716   3.127  -0.771  0.00  0.00    +0.124 A 
ATOM     17  C   UNL     1       0.541   3.849  -0.625  0.00  0.00    +0.038 A 
ATOM     18  F   UNL     1       2.898   3.775  -0.858  0.00  0.00    -0.205 F 
ENDBRANCH   1  14
BRANCH   8  19
ATOM     19  O   UNL     1      -6.423  -2.236   0.455  0.00  0.00    -0.506 OA
ATOM     20  H   UNL     1      -6.873  -1.233   0.493  0.00  0.00    +0.292 HD
ENDBRANCH   8  19
BRANCH   9  21
ATOM     21  C   UNL     1      -4.928   0.122   0.101  0.00  0.00    -0.035 C 
BRANCH  21  22
ATOM     22  N   UNL     1      -5.367   0.512  -1.245  0.00  0.00    +0.384 N 
ATOM     23  C   UNL     1      -4.217   0.688  -2.143  0.00  0.00    -0.063 C 
ATOM     24  C   UNL     1      -4.718   1.016  -3.552  0.00  0.00    +0.066 C 
ATOM     25  N   UNL     1      -5.538   2.235  -3.506  0.00  0.00    -0.304 NA
ATOM     26  C   UNL     1      -6.688   2.058  -2.608  0.00  0.00    +0.066 C 
ATOM     27  C   UNL     1      -6.187   1.731  -1.200  0.00  0.00    -0.063 C 
ATOM     28  H   UNL     1      -5.989  -0.301  -1.646  0.00  0.00    -0.081 HD
BRANCH  25  29
ATOM     29  C   UNL     1      -5.976   2.625  -4.852  0.00  0.00    +0.112 C 
BRANCH  29  30
ATOM     30  C   UNL     1      -6.657   1.435  -5.532  0.00  0.00    +0.171 C 
BRANCH  30  31
ATOM     31  O   UNL     1      -7.876   1.131  -4.850  0.00  0.00    -0.394 OA
ATOM     32  H   UNL     1      -8.508   0.300  -5.197  0.00  0.00    +0.209 HD
ENDBRANCH  30  31
ENDBRANCH  29  30
ENDBRANCH  25  29
ENDBRANCH  21  22
ENDBRANCH   9  21
TORSDOF 7
