REMARK  Name = ZINC32849118
REMARK  8 active torsions:
REMARK  status: ('A' for Active; 'I' for Inactive)
REMARK    1  A    between atoms: C_1  and  C_2
REMARK    2  A    between atoms: C_15  and  C_17
REMARK    3  A    between atoms: C_17  and  O_18
REMARK    4  A    between atoms: O_18  and  C_19
REMARK    5  A    between atoms: C_19  and  C_21
REMARK    6  A    between atoms: C_21  and  C_22
REMARK    7  A    between atoms: C_22  and  N_23
REMARK    8  A    between atoms: N_26  and  C_27
REMARK                            x       y       z     vdW  Elec       q    Type
REMARK                         _______ _______ _______ _____ _____    ______ ____
ROOT
ATOM      1  C   UNL     1      -4.876  -5.493   0.019  0.00  0.00    +0.309 C 
ATOM      2  O   UNL     1      -3.947  -6.266   0.006  0.00  0.00    -0.251 OA
ENDROOT
BRANCH   1   3
ATOM      3  O   UNL     1      -6.136  -5.958   0.029  0.00  0.00    -0.455 OA
BRANCH   3   4
ATOM      4  C   UNL     1      -6.306  -7.400   0.022  0.00  0.00    +0.328 C 
BRANCH   4  18
ATOM      5  C   UNL     1     -10.037  -9.767  -1.364  0.00  0.00    +0.029 C 
ATOM      6  C   UNL     1      -9.600  -9.358   0.043  0.00  0.00    +0.087 C 
ATOM      7  C   UNL     1      -9.850 -10.517   1.011  0.00  0.00    +0.118 C 
ATOM      8  C   UNL     1      -9.084 -10.299   2.289  0.00  0.00    +0.219 C 
ATOM      9  O   UNL     1      -9.670  -9.942   3.289  0.00  0.00    -0.275 OA
ATOM     10  N   UNL     1      -7.747 -10.498   2.330  0.00  0.00    -0.284 N 
ATOM     11  C   UNL     1      -7.039 -10.823   1.167  0.00  0.00    +0.055 A 
ATOM     12  C   UNL     1      -6.146 -11.881   1.149  0.00  0.00    +0.025 A 
ATOM     13  C   UNL     1      -5.437 -12.163  -0.021  0.00  0.00    +0.002 A 
ATOM     14  C   UNL     1      -5.620 -11.388  -1.152  0.00  0.00    +0.002 A 
ATOM     15  C   UNL     1      -6.519 -10.338  -1.140  0.00  0.00    +0.025 A 
ATOM     16  C   UNL     1      -7.238 -10.059   0.011  0.00  0.00    +0.058 A 
ATOM     17  N   UNL     1      -8.177  -9.019   0.032  0.00  0.00    -0.264 N 
ATOM     18  C   UNL     1      -7.776  -7.732   0.035  0.00  0.00    +0.258 C 
ATOM     19  O   UNL     1      -8.599  -6.841   0.047  0.00  0.00    -0.271 OA
ATOM     20  H   UNL     1      -7.206 -10.404   3.284  0.00  0.00    +0.155 HD
ENDBRANCH   4  18
ENDBRANCH   3   4
ENDBRANCH   1   3
BRANCH   1  21
ATOM     21  C   UNL     1      -4.621  -4.008   0.025  0.00  0.00    +0.139 C 
BRANCH  21  22
ATOM     22  C   UNL     1      -3.113  -3.750   0.012  0.00  0.00    +0.117 C 
BRANCH  22  23
ATOM     23  N   UNL     1      -2.865  -2.306   0.017  0.00  0.00    -0.299 N 
ATOM     24  C   UNL     1      -1.601  -1.839   0.007  0.00  0.00    +0.300 C 
ATOM     25  O   UNL     1      -0.666  -2.617  -0.006  0.00  0.00    -0.253 OA
ATOM     26  N   UNL     1      -1.372  -0.511   0.012  0.00  0.00    -0.294 N 
ATOM     27  H   UNL     1      -3.711  -1.603   0.029  0.00  0.00    +0.150 HD
ATOM     28  H   UNL     1      -2.218   0.192   0.024  0.00  0.00    +0.151 HD
BRANCH  26  29
ATOM     29  C   UNL     1       0.002  -0.004   0.002  0.00  0.00    +0.037 C 
ATOM     30  C   UNL     1      -0.019   1.526   0.010  0.00  0.00    +0.029 C 
ATOM     31  C   UNL     1       1.417   2.055  -0.000  0.00  0.00    -0.008 C 
ATOM     32  C   UNL     1       2.133   1.562  -1.259  0.00  0.00    +0.007 C 
ATOM     33  C   UNL     1       2.154   0.032  -1.268  0.00  0.00    -0.008 C 
ATOM     34  C   UNL     1       0.718  -0.497  -1.257  0.00  0.00    +0.029 C 
ATOM     35  C   UNL     1       2.894  -0.475  -0.028  0.00  0.00    +0.007 C 
ATOM     36  C   UNL     1       2.178   0.019   1.231  0.00  0.00    -0.008 C 
ATOM     37  C   UNL     1       2.157   1.548   1.239  0.00  0.00    +0.007 C 
ATOM     38  C   UNL     1       0.742  -0.511   1.242  0.00  0.00    +0.029 C 
ENDBRANCH  26  29
ENDBRANCH  22  23
ENDBRANCH  21  22
ENDBRANCH   1  21
TORSDOF 7
