REMARK  Name = ZINC35345324
REMARK  4 active torsions:
REMARK  status: ('A' for Active; 'I' for Inactive)
REMARK    1  A    between atoms: C_1  and  C_2
REMARK    2  A    between atoms: C_5  and  N_9
REMARK    3  A    between atoms: N_9  and  C_10
REMARK    4  A    between atoms: C_15  and  N_16
REMARK                            x       y       z     vdW  Elec       q    Type
REMARK                         _______ _______ _______ _____ _____    ______ ____
ROOT
ATOM      1  C   UNL     1      -0.032  -4.816  -1.261  0.00  0.00    +0.054 A 
ATOM      2  C   UNL     1      -0.034  -4.074  -2.430  0.00  0.00    +0.048 A 
ATOM      3  C   UNL     1      -0.124  -4.713  -3.664  0.00  0.00    +0.039 A 
ATOM      4  C   UNL     1      -0.211  -6.099  -3.704  0.00  0.00    -0.016 A 
ATOM      5  C   UNL     1      -0.208  -6.843  -2.544  0.00  0.00    +0.030 A 
ATOM      6  C   UNL     1      -0.114  -6.207  -1.314  0.00  0.00    +0.046 A 
ATOM      7  C   UNL     1      -0.294  -6.478  -5.165  0.00  0.00    +0.133 C 
ATOM      8  C   UNL     1      -0.243  -5.153  -5.894  0.00  0.00    +0.222 C 
ATOM      9  O   UNL     1      -0.283  -4.990  -7.095  0.00  0.00    -0.275 OA
ATOM     10  N   UNL     1      -0.146  -4.191  -4.961  0.00  0.00    -0.285 N 
ATOM     11  H   UNL     1      -0.096  -3.244  -5.164  0.00  0.00    +0.155 HD
ENDROOT
BRANCH   6  12
ATOM     12  N   UNL     1      -0.106  -6.960  -0.131  0.00  0.00    -0.357 N 
ATOM     13  H   UNL     1      -0.043  -6.513   0.728  0.00  0.00    +0.142 HD
ATOM     14  H   UNL     1      -0.163  -7.927  -0.171  0.00  0.00    +0.142 HD
ENDBRANCH   6  12
BRANCH   1  15
ATOM     15  N   UNL     1       0.059  -4.168  -0.023  0.00  0.00    -0.312 N 
ATOM     16  H   UNL     1      -0.023  -4.678   0.798  0.00  0.00    +0.152 HD
BRANCH  15  21
ATOM     17  C   UNL     1       0.903   1.436   0.190  0.00  0.00    +0.044 C 
ATOM     18  C   UNL     1       0.678  -0.053   0.134  0.00  0.00    -0.049 A 
ATOM     19  C   UNL     1       1.400  -0.826  -0.758  0.00  0.00    +0.005 A 
ATOM     20  C   UNL     1       1.197  -2.191  -0.812  0.00  0.00    +0.024 A 
ATOM     21  C   UNL     1       0.267  -2.788   0.030  0.00  0.00    +0.046 A 
ATOM     22  C   UNL     1      -0.456  -2.008   0.925  0.00  0.00    +0.039 A 
ATOM     23  C   UNL     1      -0.244  -0.643   0.977  0.00  0.00    +0.020 A 
ATOM     24 BR   UNL     1      -1.724  -2.814   2.074  0.00  0.00    -0.048 Br
ENDBRANCH  15  21
ENDBRANCH   1  15
TORSDOF 3
