REMARK  Name = ZINC39518841
REMARK  14 active torsions:
REMARK  status: ('A' for Active; 'I' for Inactive)
REMARK    1  A    between atoms: C_1  and  C_2
REMARK    2  A    between atoms: C_2  and  O_3
REMARK    3  A    between atoms: O_3  and  C_4
REMARK    4  A    between atoms: C_4  and  C_6
REMARK    5  A    between atoms: N_9  and  C_26
REMARK    6  A    between atoms: C_10  and  C_12
REMARK    7  A    between atoms: C_12  and  N_13
REMARK    8  A    between atoms: N_13  and  C_14
REMARK    9  A    between atoms: N_13  and  C_15
REMARK   10  A    between atoms: C_15  and  C_17
REMARK   11  A    between atoms: C_15  and  C_18
REMARK   12  A    between atoms: C_19  and  C_25
REMARK   13  A    between atoms: C_22  and  C_24
REMARK   14  A    between atoms: N_30  and  C_37
REMARK                            x       y       z     vdW  Elec       q    Type
REMARK                         _______ _______ _______ _____ _____    ______ ____
ROOT
ATOM      1  C   UNL     1      -0.973  -2.089  -0.614  0.00  0.00    +0.072 C 
ATOM      2  C   UNL     1      -0.741  -3.373  -0.274  0.00  0.00    +0.100 C 
ATOM      3  N   UNL     1      -1.829  -3.942   0.305  0.00  0.00    -0.270 N 
ATOM      4  N   UNL     1      -2.889  -3.031   0.387  0.00  0.00    -0.247 N 
ATOM      5  C   UNL     1      -2.393  -1.774  -0.199  0.00  0.00    +0.116 C 
ATOM      6  H   UNL     1      -1.867  -4.859   0.621  0.00  0.00    +0.169 HD
ENDROOT
BRANCH   4   7
ATOM      7  C   UNL     1      -4.142  -3.262   0.913  0.00  0.00    +0.062 A 
ATOM      8  C   UNL     1      -4.528  -4.524   1.279  0.00  0.00    +0.095 A 
ATOM      9  C   UNL     1      -5.805  -4.742   1.813  0.00  0.00    +0.253 A 
ATOM     10  O   UNL     1      -6.128  -5.875   2.132  0.00  0.00    -0.268 OA
ATOM     11  N   UNL     1      -6.683  -3.740   1.984  0.00  0.00    -0.311 N 
ATOM     12  C   UNL     1      -6.364  -2.442   1.639  0.00  0.00    +0.054 A 
ATOM     13  C   UNL     1      -5.096  -2.159   1.103  0.00  0.00    +0.021 A 
ATOM     14  C   UNL     1      -4.763  -0.848   0.756  0.00  0.00    +0.012 A 
ATOM     15  C   UNL     1      -5.681   0.161   0.947  0.00  0.00    +0.001 A 
ATOM     16  C   UNL     1      -6.930  -0.119   1.481  0.00  0.00    +0.002 A 
ATOM     17  C   UNL     1      -7.278  -1.410   1.818  0.00  0.00    +0.026 A 
ATOM     18  C   UNL     1      -8.004  -4.030   2.547  0.00  0.00    +0.152 C 
ENDBRANCH   4   7
BRANCH   1  19
ATOM     19  C   UNL     1      -0.061  -1.206  -1.233  0.00  0.00    +0.338 C 
ATOM     20  O   UNL     1       1.001  -1.625  -1.653  0.00  0.00    -0.245 OA
BRANCH  19  21
ATOM     21  O   UNL     1      -0.369   0.102  -1.358  0.00  0.00    -0.462 OA
BRANCH  21  23
ATOM     22  C   UNL     1       0.115   2.388  -1.975  0.00  0.00    +0.048 C 
ATOM     23  C   UNL     1       0.592   0.935  -2.010  0.00  0.00    +0.229 C 
ENDBRANCH  21  23
ENDBRANCH  19  21
ENDBRANCH   1  19
BRANCH   5  24
ATOM     24  C   UNL     1      -3.233  -1.387  -1.418  0.00  0.00    -0.049 C 
BRANCH  24  25
ATOM     25  N   UNL     1      -2.716  -0.138  -1.993  0.00  0.00    +0.384 N 
ATOM     26  C   UNL     1      -2.689   0.903  -0.957  0.00  0.00    -0.095 C 
ATOM     27  H   UNL     1      -1.782  -0.290  -2.341  0.00  0.00    -0.081 HD
BRANCH  25  28
ATOM     28  C   UNL     1      -3.587   0.291  -3.096  0.00  0.00    -0.041 C 
ATOM     29  C   UNL     1      -2.998   1.540  -3.754  0.00  0.00    -0.009 C 
BRANCH  28  30
ATOM     30  C   UNL     1      -3.687  -0.815  -4.115  0.00  0.00    -0.035 C 
ATOM     31  C   UNL     1      -4.782  -1.459  -4.525  0.00  0.00    +0.060 C 
ATOM     32  N   UNL     1      -4.471  -2.390  -5.454  0.00  0.00    -0.159 NA
ATOM     33  N   UNL     1      -3.271  -2.457  -5.731  0.00  0.00    -0.180 NA
ATOM     34  C   UNL     1      -2.566  -1.449  -4.920  0.00  0.00    +0.151 C 
ATOM     35  C   UNL     1      -1.548  -2.119  -3.995  0.00  0.00    +0.039 C 
ATOM     36  C   UNL     1      -6.175  -1.186  -4.019  0.00  0.00    +0.067 C 
ENDBRANCH  28  30
ENDBRANCH  25  28
ENDBRANCH  24  25
ENDBRANCH   5  24
TORSDOF 8
