REMARK  Name = ZINC62824356
REMARK  4 active torsions:
REMARK  status: ('A' for Active; 'I' for Inactive)
REMARK    1  A    between atoms: C_3  and  C_6
REMARK    2  A    between atoms: C_6  and  C_7
REMARK    3  A    between atoms: C_9  and  C_12
REMARK    4  A    between atoms: C_17  and  N_18
REMARK                            x       y       z     vdW  Elec       q    Type
REMARK                         _______ _______ _______ _____ _____    ______ ____
ROOT
ATOM      1  C   UNL     1       4.279   1.957   1.425  0.00  0.00    +0.177 A 
ATOM      2  N   UNL     1       4.202   3.087   2.130  0.00  0.00    -0.191 NA
ATOM      3  C   UNL     1       4.633   2.882   3.356  0.00  0.00    +0.260 A 
ATOM      4  O   UNL     1       5.000   1.592   3.456  0.00  0.00    -0.333 OA
ATOM      5  N   UNL     1       4.754   1.011   2.184  0.00  0.00    -0.061 NA
ENDROOT
BRANCH   3   6
ATOM      6  C   UNL     1       4.703   3.890   4.431  0.00  0.00    +0.061 A 
ATOM      7  C   UNL     1       3.611   4.723   4.685  0.00  0.00    +0.029 A 
ATOM      8  C   UNL     1       3.682   5.662   5.692  0.00  0.00    +0.014 A 
ATOM      9  C   UNL     1       4.832   5.785   6.454  0.00  0.00    +0.016 A 
ATOM     10  C   UNL     1       5.920   4.970   6.214  0.00  0.00    +0.024 A 
ATOM     11  C   UNL     1       5.864   4.014   5.208  0.00  0.00    +0.037 A 
ATOM     12  I   UNL     1       2.042   6.910   6.071  0.00  0.00    -0.044 I 
BRANCH  11  13
ATOM     13  N   UNL     1       6.957   3.187   4.968  0.00  0.00    -0.357 N 
ATOM     14  H   UNL     1       6.953   2.587   4.207  0.00  0.00    +0.142 HD
ATOM     15  H   UNL     1       7.723   3.210   5.563  0.00  0.00    +0.142 HD
ENDBRANCH  11  13
ENDBRANCH   3   6
BRANCH   1  16
ATOM     16  C   UNL     1       3.876   1.799  -0.019  0.00  0.00    +0.122 C 
BRANCH  16  19
ATOM     17  C   UNL     1       0.076   1.622  -0.233  0.00  0.00    +0.008 A 
ATOM     18  C   UNL     1       1.328   2.206  -0.173  0.00  0.00    +0.011 A 
ATOM     19  C   UNL     1       2.422   1.410  -0.094  0.00  0.00    -0.003 A 
ATOM     20  S   UNL     1       1.694  -0.220  -0.104  0.00  0.00    -0.101 S 
ATOM     21  C   UNL     1      -0.019   0.270  -0.212  0.00  0.00    +0.045 A 
ENDBRANCH  16  19
ENDBRANCH   1  16
TORSDOF 4
