REMARK  Name = ZINC32579240
REMARK  9 active torsions:
REMARK  status: ('A' for Active; 'I' for Inactive)
REMARK    1  A    between atoms: C_1  and  C_2
REMARK    2  A    between atoms: C_4  and  O_5
REMARK    3  A    between atoms: N_13  and  C_14
REMARK    4  A    between atoms: C_14  and  N_16
REMARK    5  A    between atoms: N_16  and  N_17
REMARK    6  A    between atoms: C_18  and  C_20
REMARK    7  A    between atoms: C_20  and  C_22
REMARK    8  A    between atoms: C_20  and  O_23
REMARK    9  A    between atoms: O_23  and  C_24
REMARK                            x       y       z     vdW  Elec       q    Type
REMARK                         _______ _______ _______ _____ _____    ______ ____
ROOT
ATOM      1  N   UNL     1       9.232   3.982  -1.621  0.00  0.00    -0.246 N 
ATOM      2  H   UNL     1       8.982   4.835  -2.267  0.00  0.00    +0.172 HD
ENDROOT
BRANCH   1   3
ATOM      3  N   UNL     1       8.285   3.486  -0.716  0.00  0.00    -0.232 N 
ATOM      4  C   UNL     1       7.065   4.054  -0.638  0.00  0.00    +0.270 C 
ATOM      5  O   UNL     1       6.789   4.996  -1.351  0.00  0.00    -0.270 OA
ATOM      6  H   UNL     1       8.536   2.632  -0.069  0.00  0.00    +0.173 HD
BRANCH   4   7
ATOM      7  C   UNL     1       6.046   3.521   0.335  0.00  0.00    +0.257 C 
ATOM      8  C   UNL     1       6.542   3.742   1.766  0.00  0.00    +0.062 C 
BRANCH   7   9
ATOM      9  O   UNL     1       4.806   4.207   0.150  0.00  0.00    -0.480 OA
BRANCH   9  10
ATOM     10  C   UNL     1       3.682   3.579   0.585  0.00  0.00    +0.122 A 
ATOM     11  C   UNL     1       3.782   2.311   1.168  0.00  0.00    +0.046 A 
ATOM     12  C   UNL     1       2.676   1.657   1.613  0.00  0.00    +0.012 A 
ATOM     13  C   UNL     1       1.412   2.260   1.487  0.00  0.00    -0.018 A 
ATOM     14  C   UNL     1       0.248   1.613   1.936  0.00  0.00    +0.008 A 
ATOM     15  C   UNL     1      -0.960   2.223   1.793  0.00  0.00    +0.001 A 
ATOM     16  C   UNL     1      -1.061   3.489   1.218  0.00  0.00    +0.001 A 
ATOM     17  C   UNL     1       0.044   4.146   0.771  0.00  0.00    +0.008 A 
ATOM     18  C   UNL     1       1.308   3.544   0.896  0.00  0.00    -0.014 A 
ATOM     19  C   UNL     1       2.470   4.193   0.447  0.00  0.00    +0.054 A 
ENDBRANCH   9  10
ENDBRANCH   7   9
ENDBRANCH   4   7
ENDBRANCH   1   3
BRANCH   1  20
ATOM     20  C   UNL     1      10.452   3.413  -1.699  0.00  0.00    +0.151 C 
ATOM     21  S   UNL     1      11.610   4.019  -2.804  0.00  0.00    -0.017 S 
BRANCH  20  33
ATOM     22  C   UNL     1      16.675  -0.044  -2.304  0.00  0.00    +0.045 C 
ATOM     23  C   UNL     1      15.949   0.199  -1.006  0.00  0.00    -0.033 A 
ATOM     24  C   UNL     1      16.530  -0.100   0.185  0.00  0.00    +0.091 A 
ATOM     25  C   UNL     1      15.830   0.137   1.386  0.00  0.00    +0.285 A 
ATOM     26  O   UNL     1      14.592   0.655   1.390  0.00  0.00    -0.425 OA
ATOM     27  C   UNL     1      13.957   0.974   0.241  0.00  0.00    +0.141 A 
ATOM     28  C   UNL     1      14.598   0.764  -0.995  0.00  0.00    +0.021 A 
ATOM     29  C   UNL     1      13.946   1.094  -2.188  0.00  0.00    +0.013 A 
ATOM     30  C   UNL     1      12.684   1.614  -2.150  0.00  0.00    +0.024 A 
ATOM     31  C   UNL     1      12.046   1.829  -0.929  0.00  0.00    +0.036 A 
ATOM     32  C   UNL     1      12.679   1.508   0.263  0.00  0.00    +0.070 A 
ATOM     33  N   UNL     1      10.759   2.367  -0.906  0.00  0.00    -0.296 N 
ATOM     34  H   UNL     1       9.995   1.937  -0.242  0.00  0.00    +0.154 HD
BRANCH  25  35
ATOM     35  O   UNL     1      16.363  -0.135   2.447  0.00  0.00    -0.480 OA
ATOM     36  H   UNL     1      15.829   0.044   3.392  0.00  0.00    +0.295 HD
ENDBRANCH  25  35
ENDBRANCH  20  33
ENDBRANCH   1  20
TORSDOF 7
