REMARK  Name = ZINC16034466
REMARK  8 active torsions:
REMARK  status: ('A' for Active; 'I' for Inactive)
REMARK    1  A    between atoms: C_4  and  C_7
REMARK    2  A    between atoms: C_7  and  O_8
REMARK    3  A    between atoms: O_8  and  C_9
REMARK    4  A    between atoms: C_18  and  C_30
REMARK    5  A    between atoms: C_20  and  C_26
REMARK    6  A    between atoms: C_20  and  C_28
REMARK    7  A    between atoms: C_21  and  N_25
REMARK    8  A    between atoms: C_22  and  C_23
REMARK                            x       y       z     vdW  Elec       q    Type
REMARK                         _______ _______ _______ _____ _____    ______ ____
ROOT
ATOM      1  C   UNL     1      -0.994  -2.562  -3.481  0.00  0.00    +0.403 C 
ATOM      2  O   UNL     1      -1.394  -1.464  -3.148  0.00  0.00    -0.226 OA
ATOM      3  N   UNL     1       0.278  -2.924  -3.220  0.00  0.00    -0.263 N 
ATOM      4  C   UNL     1       0.796  -4.247  -3.610  0.00  0.00    +0.138 C 
ATOM      5  C   UNL     1       1.332  -4.900  -2.361  0.00  0.00    -0.003 C 
ATOM      6  C   UNL     1       1.774  -4.181  -1.348  0.00  0.00    -0.026 C 
ATOM      7  C   UNL     1       1.837  -2.683  -1.335  0.00  0.00    +0.048 C 
ATOM      8  C   UNL     1       1.205  -2.016  -2.536  0.00  0.00    +0.120 C 
ATOM      9  C   UNL     1       1.228  -2.186  -0.022  0.00  0.00    +0.068 C 
ATOM     10  C   UNL     1       2.078  -2.694   1.143  0.00  0.00    +0.188 C 
ATOM     11  C   UNL     1       2.322  -4.170   1.046  0.00  0.00    +0.054 C 
ATOM     12  C   UNL     1       2.196  -4.879  -0.103  0.00  0.00    +0.074 C 
ENDROOT
BRANCH   9  13
ATOM     13  C   UNL     1       1.208  -0.679  -0.014  0.00  0.00    -0.040 A 
ATOM     14  C   UNL     1       0.080  -0.005   0.416  0.00  0.00    +0.004 A 
ATOM     15  C   UNL     1       0.061   1.377   0.423  0.00  0.00    +0.001 A 
ATOM     16  C   UNL     1       1.171   2.086   0.003  0.00  0.00    +0.015 A 
ATOM     17  C   UNL     1       2.300   1.412  -0.426  0.00  0.00    +0.018 A 
ATOM     18  C   UNL     1       2.318   0.029  -0.434  0.00  0.00    +0.019 A 
ATOM     19 BR   UNL     1       3.819   2.381  -1.000  0.00  0.00    -0.050 Br
ENDBRANCH   9  13
BRANCH  11  20
ATOM     20  N   UNL     1       2.689  -4.839   2.180  0.00  0.00    -0.358 N 
ATOM     21  H   UNL     1       2.876  -5.922   2.144  0.00  0.00    +0.142 HD
ATOM     22  H   UNL     1       2.798  -4.294   3.129  0.00  0.00    +0.142 HD
ENDBRANCH  11  20
BRANCH  12  23
ATOM     23  C   UNL     1       2.468  -6.285  -0.119  0.00  0.00    +0.101 C 
ATOM     24  N   UNL     1       2.683  -7.400  -0.132  0.00  0.00    -0.191 NA
ENDBRANCH  12  23
BRANCH  10  25
ATOM     25  C   UNL     1       3.372  -1.994   1.135  0.00  0.00    +0.091 C 
ATOM     26  N   UNL     1       4.371  -1.453   1.129  0.00  0.00    -0.194 NA
ENDBRANCH  10  25
BRANCH  10  27
ATOM     27  C   UNL     1       1.383  -2.401   2.408  0.00  0.00    +0.091 C 
ATOM     28  N   UNL     1       0.847  -2.175   3.383  0.00  0.00    -0.194 NA
ENDBRANCH  10  27
BRANCH   1  29
ATOM     29  O   UNL     1      -1.821  -3.418  -4.111  0.00  0.00    -0.445 OA
BRANCH  29  30
ATOM     30  C   UNL     1      -3.177  -2.961  -4.359  0.00  0.00    +0.269 C 
BRANCH  30  34
ATOM     31  C   UNL     1      -5.369  -6.031  -6.365  0.00  0.00    +0.000 A 
ATOM     32  C   UNL     1      -5.357  -5.980  -4.983  0.00  0.00    +0.000 A 
ATOM     33  C   UNL     1      -4.648  -4.986  -4.334  0.00  0.00    +0.007 A 
ATOM     34  C   UNL     1      -3.950  -4.044  -5.067  0.00  0.00    -0.010 A 
ATOM     35  C   UNL     1      -3.966  -4.093  -6.448  0.00  0.00    +0.007 A 
ATOM     36  C   UNL     1      -4.671  -5.089  -7.097  0.00  0.00    +0.000 A 
ENDBRANCH  30  34
ENDBRANCH  29  30
ENDBRANCH   1  29
TORSDOF 8
