REMARK  Name = ZINC24893246
REMARK  8 active torsions:
REMARK  status: ('A' for Active; 'I' for Inactive)
REMARK    1  A    between atoms: C_1  and  C_2
REMARK    2  A    between atoms: N_13  and  C_25
REMARK    3  A    between atoms: C_14  and  S_16
REMARK    4  A    between atoms: S_16  and  C_17
REMARK    5  A    between atoms: C_17  and  C_18
REMARK    6  A    between atoms: C_18  and  C_19
REMARK    7  A    between atoms: C_25  and  C_26
REMARK    8  A    between atoms: C_26  and  C_27
REMARK                            x       y       z     vdW  Elec       q    Type
REMARK                         _______ _______ _______ _____ _____    ______ ____
ROOT
ATOM      1  C   UNL     1      13.279   0.221  -1.654  0.00  0.00    +0.008 C 
ATOM      2  C   UNL     1      11.836  -0.205  -1.932  0.00  0.00    -0.009 C 
ATOM      3  C   UNL     1      10.877   0.633  -1.081  0.00  0.00    +0.008 C 
ATOM      4  C   UNL     1       9.436   0.390  -1.532  0.00  0.00    +0.037 C 
ATOM      5  C   UNL     1       9.169  -1.113  -1.538  0.00  0.00    -0.023 A 
ATOM      6  C   UNL     1      10.190  -1.994  -1.553  0.00  0.00    -0.004 A 
ATOM      7  S   UNL     1       9.420  -3.591  -1.555  0.00  0.00    -0.073 S 
ATOM      8  C   UNL     1       7.723  -3.069  -1.536  0.00  0.00    +0.117 A 
ATOM      9  C   UNL     1       7.814  -1.667  -1.529  0.00  0.00    +0.076 A 
ATOM     10  C   UNL     1       6.569  -0.962  -1.518  0.00  0.00    +0.263 A 
ATOM     11  O   UNL     1       6.548   0.257  -1.516  0.00  0.00    -0.267 OA
ATOM     12  N   UNL     1       5.420  -1.663  -1.505  0.00  0.00    -0.287 N 
ATOM     13  C   UNL     1       5.424  -3.028  -1.512  0.00  0.00    +0.173 A 
ATOM     14  N   UNL     1       6.556  -3.701  -1.528  0.00  0.00    -0.216 NA
ATOM     15  C   UNL     1      11.656  -1.685  -1.565  0.00  0.00    +0.046 C 
ENDROOT
BRANCH  13  16
ATOM     16  S   UNL     1       3.893  -3.901  -1.501  0.00  0.00    -0.087 S 
BRANCH  16  17
ATOM     17  C   UNL     1       4.503  -5.605  -1.517  0.00  0.00    +0.086 C 
BRANCH  17  18
ATOM     18  C   UNL     1       3.317  -6.572  -1.510  0.00  0.00    +0.107 C 
BRANCH  18  19
ATOM     19  C   UNL     1       3.825  -7.990  -1.524  0.00  0.00    +0.221 C 
ATOM     20  O   UNL     1       5.018  -8.207  -1.538  0.00  0.00    -0.275 OA
ATOM     21  N   UNL     1       2.954  -9.018  -1.520  0.00  0.00    -0.240 N 
ATOM     22  C   UNL     1       3.408 -10.287  -1.532  0.00  0.00    +0.303 C 
ATOM     23  O   UNL     1       4.604 -10.504  -1.546  0.00  0.00    -0.253 OA
ATOM     24  N   UNL     1       2.537 -11.315  -1.529  0.00  0.00    -0.313 N 
ATOM     25  H   UNL     1       1.872  -8.822  -1.508  0.00  0.00    +0.159 HD
ATOM     26  H   UNL     1       2.908 -12.351  -1.539  0.00  0.00    +0.146 HD
ATOM     27  H   UNL     1       1.454 -11.118  -1.517  0.00  0.00    +0.146 HD
ENDBRANCH  18  19
ENDBRANCH  17  18
ENDBRANCH  16  17
ENDBRANCH  13  16
BRANCH  12  28
ATOM     28  C   UNL     1       4.142  -0.948  -1.488  0.00  0.00    +0.132 C 
BRANCH  28  29
ATOM     29  C   UNL     1       3.711  -0.707  -0.039  0.00  0.00    +0.057 C 
BRANCH  29  30
ATOM     30  C   UNL     1       2.396   0.029  -0.022  0.00  0.00    -0.046 A 
ATOM     31  C   UNL     1       1.208  -0.679  -0.014  0.00  0.00    +0.004 A 
ATOM     32  C   UNL     1       0.002  -0.004   0.002  0.00  0.00    +0.000 A 
ATOM     33  C   UNL     1      -0.017   1.378   0.010  0.00  0.00    +0.000 A 
ATOM     34  C   UNL     1       1.171   2.086   0.002  0.00  0.00    +0.000 A 
ATOM     35  C   UNL     1       2.377   1.411  -0.014  0.00  0.00    +0.004 A 
ENDBRANCH  29  30
ENDBRANCH  28  29
ENDBRANCH  12  28
TORSDOF 7
