REMARK  Name = ZINC45509139
REMARK  16 active torsions:
REMARK  status: ('A' for Active; 'I' for Inactive)
REMARK    1  A    between atoms: C_1  and  C_2
REMARK    2  A    between atoms: C_2  and  C_4
REMARK    3  A    between atoms: C_2  and  S_18
REMARK    4  A    between atoms: N_6  and  C_7
REMARK    5  A    between atoms: C_7  and  C_8
REMARK    6  A    between atoms: C_11  and  O_16
REMARK    7  A    between atoms: C_12  and  O_14
REMARK    8  A    between atoms: O_14  and  C_15
REMARK    9  A    between atoms: O_16  and  C_17
REMARK   10  A    between atoms: S_18  and  C_19
REMARK   11  A    between atoms: C_22  and  C_25
REMARK   12  A    between atoms: N_23  and  N_24
REMARK   13  A    between atoms: C_28  and  C_31
REMARK   14  A    between atoms: C_31  and  C_32
REMARK   15  A    between atoms: C_31  and  C_33
REMARK   16  A    between atoms: C_31  and  C_34
REMARK                            x       y       z     vdW  Elec       q    Type
REMARK                         _______ _______ _______ _____ _____    ______ ____
ROOT
ATOM      1  S   UNL     1       0.879  -0.605   1.472  0.00  0.00    -0.072 S 
ENDROOT
BRANCH   1   2
ATOM      2  C   UNL     1       2.533  -0.042   1.241  0.00  0.00    +0.209 A 
ATOM      3  N   UNL     1       2.984   0.657   0.223  0.00  0.00    -0.121 NA
ATOM      4  N   UNL     1       4.237   0.898   0.374  0.00  0.00    -0.127 NA
ATOM      5  C   UNL     1       4.664   0.367   1.496  0.00  0.00    +0.182 A 
ATOM      6  N   UNL     1       3.584  -0.246   2.088  0.00  0.00    -0.224 N 
BRANCH   5   7
ATOM      7  C   UNL     1       6.043   0.423   2.026  0.00  0.00    +0.021 A 
ATOM      8  C   UNL     1       6.435  -0.438   3.052  0.00  0.00    +0.012 A 
ATOM      9  C   UNL     1       7.723  -0.381   3.542  0.00  0.00    +0.005 A 
ATOM     10  C   UNL     1       8.626   0.527   3.018  0.00  0.00    -0.042 A 
ATOM     11  C   UNL     1       8.244   1.384   2.001  0.00  0.00    +0.005 A 
ATOM     12  C   UNL     1       6.960   1.333   1.498  0.00  0.00    +0.012 A 
BRANCH  10  13
ATOM     13  C   UNL     1      10.032   0.584   3.558  0.00  0.00    -0.013 C 
ATOM     14  C   UNL     1      10.710  -0.773   3.357  0.00  0.00    +0.015 C 
ATOM     15  C   UNL     1      10.820   1.664   2.814  0.00  0.00    +0.015 C 
ATOM     16  C   UNL     1       9.992   0.918   5.051  0.00  0.00    +0.015 C 
ENDBRANCH  10  13
ENDBRANCH   5   7
BRANCH   6  17
ATOM     17  N   UNL     1       3.567  -0.921   3.276  0.00  0.00    -0.295 N 
ATOM     18  H   UNL     1       3.772  -1.899   3.139  0.00  0.00    +0.163 HD
ATOM     19  H   UNL     1       4.208  -0.507   3.936  0.00  0.00    +0.163 HD
ENDBRANCH   6  17
ENDBRANCH   1   2
BRANCH   1  21
ATOM     20  C   UNL     1      -0.019   1.526   0.010  0.00  0.00    +0.029 C 
ATOM     21  C   UNL     1       0.002  -0.004   0.002  0.00  0.00    +0.137 C 
BRANCH  21  22
ATOM     22  C   UNL     1      -1.412  -0.526   0.013  0.00  0.00    +0.226 C 
ATOM     23  O   UNL     1      -1.939  -0.827   1.062  0.00  0.00    -0.275 OA
ATOM     24  N   UNL     1      -2.090  -0.657  -1.144  0.00  0.00    -0.310 N 
ATOM     25  H   UNL     1      -1.669  -0.416  -1.984  0.00  0.00    +0.149 HD
BRANCH  24  26
ATOM     26  C   UNL     1      -3.465  -1.164  -1.134  0.00  0.00    +0.139 C 
BRANCH  26  27
ATOM     27  C   UNL     1      -3.992  -1.214  -2.545  0.00  0.00    -0.027 A 
ATOM     28  C   UNL     1      -4.641  -0.116  -3.078  0.00  0.00    +0.009 A 
ATOM     29  C   UNL     1      -5.127  -0.157  -4.372  0.00  0.00    +0.050 A 
ATOM     30  C   UNL     1      -4.964  -1.301  -5.137  0.00  0.00    +0.162 A 
ATOM     31  C   UNL     1      -4.311  -2.406  -4.600  0.00  0.00    +0.162 A 
ATOM     32  C   UNL     1      -3.822  -2.357  -3.305  0.00  0.00    +0.054 A 
BRANCH  31  33
ATOM     33  O   UNL     1      -4.148  -3.531  -5.348  0.00  0.00    -0.491 OA
ATOM     34  C   UNL     1      -3.468  -4.626  -4.732  0.00  0.00    +0.277 C 
ENDBRANCH  31  33
BRANCH  30  35
ATOM     35  O   UNL     1      -5.441  -1.343  -6.409  0.00  0.00    -0.491 OA
ATOM     36  C   UNL     1      -6.101  -0.171  -6.894  0.00  0.00    +0.277 C 
ENDBRANCH  30  35
ENDBRANCH  26  27
ENDBRANCH  24  26
ENDBRANCH  21  22
ENDBRANCH   1  21
TORSDOF 10
