REMARK  Name = ZINC20679857
REMARK  7 active torsions:
REMARK  status: ('A' for Active; 'I' for Inactive)
REMARK    1  A    between atoms: C_1  and  C_2
REMARK    2  A    between atoms: C_6  and  C_35
REMARK    3  A    between atoms: C_7  and  N_8
REMARK    4  A    between atoms: N_8  and  S_9
REMARK    5  A    between atoms: S_9  and  C_12
REMARK    6  A    between atoms: C_25  and  C_28
REMARK    7  A    between atoms: C_31  and  O_34
REMARK                            x       y       z     vdW  Elec       q    Type
REMARK                         _______ _______ _______ _____ _____    ______ ____
ROOT
ATOM      1  C   UNL     1      -4.659   5.014  -0.521  0.00  0.00    +0.109 A 
ATOM      2  C   UNL     1      -4.399   5.023  -1.880  0.00  0.00    +0.030 A 
ATOM      3  C   UNL     1      -3.110   4.819  -2.330  0.00  0.00    +0.025 A 
ATOM      4  C   UNL     1      -2.081   4.607  -1.421  0.00  0.00    +0.031 A 
ATOM      5  C   UNL     1      -2.337   4.600  -0.058  0.00  0.00    -0.018 A 
ATOM      6  C   UNL     1      -3.637   4.805   0.382  0.00  0.00    +0.034 A 
ATOM      7  C   UNL     1      -1.261   4.381   0.957  0.00  0.00    +0.049 C 
ATOM      8  C   UNL     1      -1.334   2.994   1.550  0.00  0.00    -0.023 C 
ATOM      9  C   UNL     1      -0.128   2.533   1.776  0.00  0.00    -0.030 C 
ATOM     10  C   UNL     1       0.916   3.556   1.371  0.00  0.00    +0.033 C 
ATOM     11  C   UNL     1       0.157   4.463   0.359  0.00  0.00    +0.029 C 
ATOM     12  C   UNL     1       0.191   3.759  -1.000  0.00  0.00    +0.105 C 
ATOM     13  N   UNL     1      -0.780   4.401  -1.893  0.00  0.00    -0.336 N 
ATOM     14  H   UNL     1      -0.478   4.706  -2.905  0.00  0.00    +0.147 HD
ENDROOT
BRANCH  12  15
ATOM     15  C   UNL     1      -0.168   2.306  -0.825  0.00  0.00    -0.027 A 
ATOM     16  C   UNL     1       0.823   1.375  -0.572  0.00  0.00    +0.009 A 
ATOM     17  C   UNL     1       0.496   0.043  -0.411  0.00  0.00    +0.046 A 
ATOM     18  C   UNL     1      -0.828  -0.361  -0.501  0.00  0.00    +0.117 A 
ATOM     19  C   UNL     1      -1.820   0.574  -0.760  0.00  0.00    +0.046 A 
ATOM     20  C   UNL     1      -1.489   1.905  -0.916  0.00  0.00    +0.009 A 
BRANCH  18  21
ATOM     21  O   UNL     1      -1.153  -1.672  -0.343  0.00  0.00    -0.507 OA
ATOM     22  H   UNL     1      -2.203  -1.991  -0.415  0.00  0.00    +0.292 HD
ENDBRANCH  18  21
ENDBRANCH  12  15
BRANCH   1  23
ATOM     23  S   UNL     1      -6.303   5.273   0.058  0.00  0.00    +0.072 S 
ATOM     24  O   UNL     1      -6.192   5.853   1.350  0.00  0.00    -0.150 OA
ATOM     25  O   UNL     1      -7.013   5.901  -1.001  0.00  0.00    -0.150 OA
BRANCH  23  26
ATOM     26  N   UNL     1      -6.989   3.780   0.267  0.00  0.00    -0.216 N 
ATOM     27  H   UNL     1      -7.807   3.454  -0.392  0.00  0.00    +0.174 HD
BRANCH  26  34
ATOM     28  C   UNL     1      -5.385   1.550  -0.473  0.00  0.00    +0.046 C 
ATOM     29  C   UNL     1      -5.742   1.834   0.963  0.00  0.00    -0.028 A 
ATOM     30  C   UNL     1      -5.284   1.004   1.967  0.00  0.00    +0.005 A 
ATOM     31  C   UNL     1      -5.616   1.261   3.284  0.00  0.00    +0.001 A 
ATOM     32  C   UNL     1      -6.403   2.353   3.602  0.00  0.00    +0.005 A 
ATOM     33  C   UNL     1      -6.860   3.190   2.604  0.00  0.00    -0.028 A 
ATOM     34  C   UNL     1      -6.528   2.935   1.279  0.00  0.00    +0.054 A 
ATOM     35  C   UNL     1      -7.717   4.380   2.951  0.00  0.00    +0.046 C 
ENDBRANCH  26  34
ENDBRANCH  23  26
ENDBRANCH   1  23
TORSDOF 5
