REMARK  Name = ZINC64942379
REMARK  7 active torsions:
REMARK  status: ('A' for Active; 'I' for Inactive)
REMARK    1  A    between atoms: C_1  and  C_2
REMARK    2  A    between atoms: C_2  and  C_3
REMARK    3  A    between atoms: C_3  and  N_4
REMARK    4  A    between atoms: N_16  and  C_19
REMARK    5  A    between atoms: C_19  and  C_20
REMARK    6  A    between atoms: N_22  and  C_23
REMARK    7  A    between atoms: C_23  and  C_24
REMARK                            x       y       z     vdW  Elec       q    Type
REMARK                         _______ _______ _______ _____ _____    ______ ____
ROOT
ATOM      1  N   UNL     1       0.784  -1.976   1.272  0.00  0.00    -0.260 N 
ATOM      2  C   UNL     1      -0.237  -2.670   1.822  0.00  0.00    +0.271 A 
ATOM      3  O   UNL     1      -1.160  -2.086   2.361  0.00  0.00    -0.266 OA
ATOM      4  C   UNL     1      -0.219  -4.074   1.763  0.00  0.00    +0.103 A 
ATOM      5  C   UNL     1       0.819  -4.757   1.156  0.00  0.00    +0.075 A 
ATOM      6  C   UNL     1       0.724  -6.221   1.159  0.00  0.00    +0.032 A 
ATOM      7  C   UNL     1       1.643  -7.150   0.610  0.00  0.00    +0.014 A 
ATOM      8  C   UNL     1       1.373  -8.494   0.716  0.00  0.00    +0.020 A 
ATOM      9  C   UNL     1       0.219  -8.930   1.350  0.00  0.00    +0.112 A 
ATOM     10  N   UNL     1      -0.633  -8.061   1.858  0.00  0.00    -0.248 NA
ATOM     11  C   UNL     1      -0.417  -6.765   1.782  0.00  0.00    +0.111 A 
ATOM     12  S   UNL     1      -1.319  -5.340   2.338  0.00  0.00    -0.062 S 
ATOM     13  N   UNL     1       1.842  -3.970   0.608  0.00  0.00    -0.283 N 
ATOM     14  C   UNL     1       1.794  -2.632   0.675  0.00  0.00    +0.333 A 
ATOM     15  O   UNL     1       2.700  -1.989   0.182  0.00  0.00    -0.246 OA
ENDROOT
BRANCH   1  16
ATOM     16  C   UNL     1       0.788  -0.512   1.321  0.00  0.00    +0.130 C 
BRANCH  16  18
ATOM     17  C   UNL     1       0.080   1.570   0.136  0.00  0.00    +0.005 C 
ATOM     18  C   UNL     1       0.076   0.041   0.085  0.00  0.00    +0.018 C 
ENDBRANCH  16  18
ENDBRANCH   1  16
BRANCH  13  19
ATOM     19  C   UNL     1       2.977  -4.620  -0.053  0.00  0.00    +0.222 C 
BRANCH  19  20
ATOM     20  C   UNL     1       2.605  -4.956  -1.474  0.00  0.00    +0.233 C 
ATOM     21  O   UNL     1       1.501  -4.681  -1.893  0.00  0.00    -0.274 OA
ATOM     22  N   UNL     1       3.499  -5.563  -2.278  0.00  0.00    -0.310 N 
ATOM     23  H   UNL     1       4.383  -5.784  -1.943  0.00  0.00    +0.149 HD
BRANCH  22  24
ATOM     24  C   UNL     1       3.138  -5.891  -3.660  0.00  0.00    +0.139 C 
BRANCH  24  25
ATOM     25  C   UNL     1       4.306  -6.559  -4.340  0.00  0.00    -0.030 A 
ATOM     26  C   UNL     1       5.247  -5.795  -5.005  0.00  0.00    +0.008 A 
ATOM     27  C   UNL     1       6.318  -6.407  -5.628  0.00  0.00    +0.038 A 
ATOM     28  C   UNL     1       6.448  -7.785  -5.586  0.00  0.00    +0.123 A 
ATOM     29  C   UNL     1       5.505  -8.548  -4.920  0.00  0.00    +0.038 A 
ATOM     30  C   UNL     1       4.438  -7.934  -4.292  0.00  0.00    +0.008 A 
ATOM     31  F   UNL     1       7.495  -8.383  -6.196  0.00  0.00    -0.205 F 
ENDBRANCH  24  25
ENDBRANCH  22  24
ENDBRANCH  19  20
ENDBRANCH  13  19
TORSDOF 6
