REMARK  Name = ZINC06620090
REMARK  4 active torsions:
REMARK  status: ('A' for Active; 'I' for Inactive)
REMARK    1  A    between atoms: C_1  and  C_2
REMARK    2  A    between atoms: C_5  and  N_9
REMARK    3  A    between atoms: C_6  and  C_8
REMARK    4  A    between atoms: C_19  and  N_20
REMARK                            x       y       z     vdW  Elec       q    Type
REMARK                         _______ _______ _______ _____ _____    ______ ____
ROOT
ATOM      1  N   UNL     1       0.136  -4.212   0.738  0.00  0.00    -0.202 N 
ATOM      2  C   UNL     1      -1.050  -4.837   0.661  0.00  0.00    +0.258 C 
ATOM      3  O   UNL     1      -2.071  -4.209   0.868  0.00  0.00    -0.269 OA
ATOM      4  C   UNL     1      -1.136  -6.265   0.329  0.00  0.00    +0.046 A 
ATOM      5  C   UNL     1      -2.365  -6.920   0.247  0.00  0.00    +0.014 A 
ATOM      6  C   UNL     1      -2.404  -8.261  -0.067  0.00  0.00    +0.001 A 
ATOM      7  C   UNL     1      -1.234  -8.968  -0.302  0.00  0.00    +0.001 A 
ATOM      8  C   UNL     1      -0.007  -8.340  -0.225  0.00  0.00    +0.009 A 
ATOM      9  C   UNL     1       0.052  -6.987   0.090  0.00  0.00    +0.000 A 
ATOM     10  C   UNL     1       1.339  -6.266   0.184  0.00  0.00    +0.059 C 
ATOM     11  C   UNL     1       2.523  -6.909  -0.037  0.00  0.00    +0.087 C 
ATOM     12  C   UNL     1       1.305  -4.836   0.517  0.00  0.00    +0.259 C 
ATOM     13  O   UNL     1       2.346  -4.211   0.598  0.00  0.00    -0.269 OA
ENDROOT
BRANCH  11  14
ATOM     14  N   UNL     1       3.679  -6.193  -0.136  0.00  0.00    -0.305 N 
ATOM     15  C   UNL     1       4.890  -6.848  -0.244  0.00  0.00    +0.129 A 
ATOM     16  C   UNL     1       6.087  -6.112  -0.341  0.00  0.00    +0.061 A 
ATOM     17  C   UNL     1       7.262  -6.780  -0.447  0.00  0.00    +0.091 A 
ATOM     18  N   UNL     1       7.255  -8.142  -0.456  0.00  0.00    -0.313 N 
ATOM     19  H   UNL     1       8.091  -8.628  -0.530  0.00  0.00    +0.170 HD
ATOM     20  C   UNL     1       6.094  -8.816  -0.361  0.00  0.00    +0.348 A 
ATOM     21  O   UNL     1       6.106 -10.036  -0.371  0.00  0.00    -0.245 OA
ATOM     22  N   UNL     1       4.932  -8.173  -0.252  0.00  0.00    -0.178 NA
ATOM     23  H   UNL     1       3.651  -5.223  -0.131  0.00  0.00    +0.153 HD
ENDBRANCH  11  14
BRANCH   1  28
ATOM     24  C   UNL     1       0.211   1.312   2.034  0.00  0.00    +0.044 C 
ATOM     25  C   UNL     1       0.191  -0.155   1.690  0.00  0.00    -0.050 A 
ATOM     26  C   UNL     1       0.109  -0.553   0.368  0.00  0.00    +0.005 A 
ATOM     27  C   UNL     1       0.090  -1.896   0.049  0.00  0.00    +0.024 A 
ATOM     28  C   UNL     1       0.155  -2.848   1.058  0.00  0.00    +0.047 A 
ATOM     29  C   UNL     1       0.238  -2.446   2.384  0.00  0.00    -0.028 A 
ATOM     30  C   UNL     1       0.262  -1.101   2.696  0.00  0.00    +0.008 A 
ATOM     31  C   UNL     1       0.308  -3.476   3.482  0.00  0.00    +0.046 C 
ENDBRANCH   1  28
TORSDOF 2
