REMARK  Name = ZINC04014197
REMARK  5 active torsions:
REMARK  status: ('A' for Active; 'I' for Inactive)
REMARK    1  A    between atoms: C_4  and  C_7
REMARK    2  A    between atoms: C_7  and  S_8
REMARK    3  A    between atoms: S_8  and  C_9
REMARK    4  A    between atoms: C_12  and  C_24
REMARK    5  A    between atoms: C_14  and  C_16
REMARK                            x       y       z     vdW  Elec       q    Type
REMARK                         _______ _______ _______ _____ _____    ______ ____
ROOT
ATOM      1  C   UNL     1       5.641  -1.780  -1.544  0.00  0.00    +0.108 C 
ATOM      2  N   UNL     1       5.991  -1.945  -0.299  0.00  0.00    -0.229 NA
ATOM      3  C   UNL     1       7.109  -2.607   0.046  0.00  0.00    +0.112 C 
ATOM      4  C   UNL     1       7.763  -3.413  -0.862  0.00  0.00    +0.165 C 
ATOM      5  C   UNL     1       7.199  -3.580  -2.247  0.00  0.00    +0.025 C 
ATOM      6  C   UNL     1       6.506  -2.282  -2.670  0.00  0.00    +0.054 C 
ATOM      7  C   UNL     1       8.326  -3.903  -3.228  0.00  0.00    +0.013 C 
ATOM      8  C   UNL     1       7.746  -4.080  -4.632  0.00  0.00    +0.001 C 
ATOM      9  C   UNL     1       6.731  -5.225  -4.623  0.00  0.00    +0.000 C 
ATOM     10  C   UNL     1       5.602  -4.899  -3.643  0.00  0.00    +0.001 C 
ATOM     11  C   UNL     1       6.183  -4.723  -2.238  0.00  0.00    +0.013 C 
ATOM     12  N   UNL     1       7.609  -2.478   1.326  0.00  0.00    -0.345 N 
ATOM     13  H   UNL     1       8.417  -2.950   1.581  0.00  0.00    +0.143 HD
ATOM     14  H   UNL     1       7.152  -1.915   1.970  0.00  0.00    +0.143 HD
ENDROOT
BRANCH   6  15
ATOM     15  C   UNL     1       6.403  -1.337  -3.840  0.00  0.00    +0.241 C 
ATOM     16  O   UNL     1       6.704  -0.170  -3.704  0.00  0.00    -0.271 OA
ATOM     17  N   UNL     1       5.977  -1.789  -5.036  0.00  0.00    -0.326 N 
ATOM     18  H   UNL     1       5.736  -2.723  -5.144  0.00  0.00    +0.145 HD
ATOM     19  H   UNL     1       5.910  -1.181  -5.788  0.00  0.00    +0.145 HD
ENDBRANCH   6  15
BRANCH   4  20
ATOM     20  C   UNL     1       8.973  -4.082  -0.492  0.00  0.00    +0.074 C 
ATOM     21  N   UNL     1       9.933  -4.614  -0.199  0.00  0.00    -0.196 NA
ENDBRANCH   4  20
BRANCH   1  22
ATOM     22  S   UNL     1       4.168  -0.987  -1.906  0.00  0.00    -0.101 S 
BRANCH  22  23
ATOM     23  C   UNL     1       3.580  -0.636  -0.231  0.00  0.00    +0.111 C 
BRANCH  23  27
ATOM     24  C   UNL     1      -0.172   1.395  -0.433  0.00  0.00    +0.000 A 
ATOM     25  C   UNL     1       1.006   2.119  -0.421  0.00  0.00    +0.000 A 
ATOM     26  C   UNL     1       2.220   1.461  -0.356  0.00  0.00    +0.004 A 
ATOM     27  C   UNL     1       2.256   0.080  -0.302  0.00  0.00    -0.037 A 
ATOM     28  C   UNL     1       1.079  -0.643  -0.315  0.00  0.00    +0.004 A 
ATOM     29  C   UNL     1      -0.136   0.014  -0.380  0.00  0.00    +0.000 A 
ENDBRANCH  23  27
ENDBRANCH  22  23
ENDBRANCH   1  22
TORSDOF 5
