REMARK  Name = ZINC39731477
REMARK  8 active torsions:
REMARK  status: ('A' for Active; 'I' for Inactive)
REMARK    1  A    between atoms: C_1  and  N_2
REMARK    2  A    between atoms: C_3  and  C_28
REMARK    3  A    between atoms: C_7  and  S_8
REMARK    4  A    between atoms: S_8  and  C_9
REMARK    5  A    between atoms: C_9  and  C_11
REMARK    6  A    between atoms: C_9  and  C_17
REMARK    7  A    between atoms: C_17  and  C_19
REMARK    8  A    between atoms: C_28  and  C_29
REMARK                            x       y       z     vdW  Elec       q    Type
REMARK                         _______ _______ _______ _____ _____    ______ ____
ROOT
ATOM      1  C   UNL     1       3.746  -1.063   0.471  0.00  0.00    +0.155 C 
ENDROOT
BRANCH   1   2
ATOM      2  C   UNL     1       3.512  -1.809   1.759  0.00  0.00    -0.027 A 
ATOM      3  C   UNL     1       3.643  -1.156   2.970  0.00  0.00    +0.005 A 
ATOM      4  C   UNL     1       3.428  -1.841   4.152  0.00  0.00    +0.000 A 
ATOM      5  C   UNL     1       3.082  -3.179   4.122  0.00  0.00    +0.000 A 
ATOM      6  C   UNL     1       2.951  -3.832   2.911  0.00  0.00    +0.000 A 
ATOM      7  C   UNL     1       3.161  -3.146   1.729  0.00  0.00    +0.005 A 
ENDBRANCH   1   2
BRANCH   1   8
ATOM      8  C   UNL     1       5.158  -0.537   0.445  0.00  0.00    +0.179 C 
ATOM      9  O   UNL     1       5.389   0.599   0.807  0.00  0.00    -0.291 OA
BRANCH   8  10
ATOM     10  C   UNL     1       6.211  -1.364  -0.001  0.00  0.00    +0.025 C 
ATOM     11  C   UNL     1       7.553  -1.039  -0.081  0.00  0.00    +0.006 A 
ATOM     12  C   UNL     1       8.279   0.135   0.228  0.00  0.00    +0.010 A 
ATOM     13  C   UNL     1       9.618   0.175   0.047  0.00  0.00    +0.001 A 
ATOM     14  C   UNL     1      10.345  -0.920  -0.446  0.00  0.00    +0.002 A 
ATOM     15  C   UNL     1       9.748  -2.086  -0.771  0.00  0.00    +0.026 A 
ATOM     16  C   UNL     1       8.291  -2.215  -0.604  0.00  0.00    +0.043 A 
ATOM     17  N   UNL     1       7.473  -3.202  -0.834  0.00  0.00    -0.380 N 
ATOM     18  C   UNL     1       6.109  -2.793  -0.485  0.00  0.00    +0.152 C 
ATOM     19  H   UNL     1       7.727  -4.072  -1.179  0.00  0.00    +0.160 HD
ENDBRANCH   8  10
ENDBRANCH   1   8
BRANCH   1  20
ATOM     20  S   UNL     1       2.582   0.324   0.356  0.00  0.00    -0.073 S 
BRANCH  20  26
ATOM     21  C   UNL     1      -0.370   1.691   0.105  0.00  0.00    +0.133 C 
ATOM     22  N   UNL     1      -0.196   0.237   0.145  0.00  0.00    -0.292 N 
ATOM     23  C   UNL     1      -1.259  -0.779   0.076  0.00  0.00    +0.177 C 
ATOM     24  N   UNL     1      -0.533  -2.058   0.159  0.00  0.00    -0.246 N 
ATOM     25  N   UNL     1       0.824  -1.730   0.264  0.00  0.00    -0.163 NA
ATOM     26  C   UNL     1       1.004  -0.452   0.250  0.00  0.00    +0.176 C 
ATOM     27  H   UNL     1      -0.917  -2.949   0.143  0.00  0.00    +0.170 HD
BRANCH  23  28
ATOM     28  C   UNL     1      -2.018  -0.674  -1.249  0.00  0.00    +0.048 C 
BRANCH  28  29
ATOM     29  C   UNL     1      -3.223  -1.616  -1.223  0.00  0.00    +0.015 C 
ATOM     30  C   UNL     1      -2.741  -3.076  -1.228  0.00  0.00    +0.028 C 
ATOM     31  C   UNL     1      -3.929  -4.023  -1.524  0.00  0.00    +0.166 C 
ATOM     32  S   UNL     1      -5.045  -2.966  -2.534  0.00  0.00    -0.031 S 
ATOM     33  O   UNL     1      -6.269  -2.786  -1.835  0.00  0.00    -0.174 OA
ATOM     34  O   UNL     1      -5.067  -3.459  -3.867  0.00  0.00    -0.174 OA
ATOM     35  C   UNL     1      -4.093  -1.389  -2.492  0.00  0.00    +0.169 C 
ENDBRANCH  28  29
ENDBRANCH  23  28
ENDBRANCH  20  26
ENDBRANCH   1  20
TORSDOF 7
