REMARK  Name = ZINC39534154
REMARK  11 active torsions:
REMARK  status: ('A' for Active; 'I' for Inactive)
REMARK    1  A    between atoms: C_1  and  C_2
REMARK    2  A    between atoms: C_2  and  O_3
REMARK    3  A    between atoms: O_3  and  C_4
REMARK    4  A    between atoms: N_7  and  C_11
REMARK    5  A    between atoms: C_11  and  C_13
REMARK    6  A    between atoms: C_11  and  C_22
REMARK    7  A    between atoms: C_13  and  N_14
REMARK    8  A    between atoms: N_14  and  C_15
REMARK    9  A    between atoms: C_15  and  C_16
REMARK   10  A    between atoms: C_25  and  C_28
REMARK   11  A    between atoms: C_33  and  O_34
REMARK                            x       y       z     vdW  Elec       q    Type
REMARK                         _______ _______ _______ _____ _____    ______ ____
ROOT
ATOM      1  C   UNL     1       1.813  -4.100  -4.118  0.00  0.00    -0.023 C 
ENDROOT
BRANCH   1   4
ATOM      2  C   UNL     1      -0.241  -2.016  -1.768  0.00  0.00    +0.169 C 
ATOM      3  C   UNL     1       0.644  -2.348  -2.971  0.00  0.00    -0.030 C 
ATOM      4  N   UNL     1       0.979  -3.778  -2.953  0.00  0.00    +0.388 N 
ATOM      5  C   UNL     1       1.714  -4.095  -1.722  0.00  0.00    -0.062 C 
ATOM      6  C   UNL     1       0.838  -3.777  -0.508  0.00  0.00    +0.065 C 
ATOM      7  N   UNL     1       0.474  -2.353  -0.529  0.00  0.00    -0.295 NA
ATOM      8  H   UNL     1       1.289  -1.770  -0.411  0.00  0.00    +0.124 HD
ATOM      9  H   UNL     1       0.130  -4.322  -2.987  0.00  0.00    -0.081 HD
BRANCH   2  10
ATOM     10  O   UNL     1      -0.551  -0.621  -1.774  0.00  0.00    -0.364 OA
BRANCH  10  12
ATOM     11  C   UNL     1      -1.801   1.264  -0.921  0.00  0.00    +0.034 C 
ATOM     12  C   UNL     1      -1.551  -0.243  -0.826  0.00  0.00    +0.158 C 
ENDBRANCH  10  12
ENDBRANCH   2  10
ENDBRANCH   1   4
BRANCH   1  13
ATOM     13  C   UNL     1       1.123  -3.635  -5.375  0.00  0.00    -0.060 A 
ATOM     14  C   UNL     1      -0.246  -3.789  -5.505  0.00  0.00    +0.002 A 
ATOM     15  C   UNL     1      -0.884  -3.366  -6.654  0.00  0.00    +0.009 A 
ATOM     16  C   UNL     1      -0.146  -2.783  -7.683  0.00  0.00    -0.014 A 
ATOM     17  C   UNL     1       1.232  -2.630  -7.545  0.00  0.00    +0.009 A 
ATOM     18  C   UNL     1       1.859  -3.052  -6.390  0.00  0.00    +0.002 A 
BRANCH  16  19
ATOM     19  C   UNL     1      -0.826  -2.327  -8.920  0.00  0.00    +0.024 A 
ATOM     20  C   UNL     1      -1.701  -3.178  -9.592  0.00  0.00    +0.012 A 
ATOM     21  C   UNL     1      -2.331  -2.749 -10.742  0.00  0.00    +0.001 A 
ATOM     22  C   UNL     1      -2.097  -1.475 -11.232  0.00  0.00    +0.004 A 
ATOM     23  C   UNL     1      -1.231  -0.623 -10.573  0.00  0.00    +0.046 A 
ATOM     24  C   UNL     1      -0.597  -1.039  -9.413  0.00  0.00    +0.125 A 
BRANCH  24  25
ATOM     25  O   UNL     1       0.250  -0.200  -8.761  0.00  0.00    -0.506 OA
ATOM     26  H   UNL     1       1.169  -0.263  -9.056  0.00  0.00    +0.292 HD
ENDBRANCH  24  25
ENDBRANCH  16  19
ENDBRANCH   1  13
BRANCH   1  27
ATOM     27  C   UNL     1       2.033  -5.612  -4.186  0.00  0.00    +0.070 C 
BRANCH  27  28
ATOM     28  N   UNL     1       2.853  -6.040  -3.045  0.00  0.00    -0.313 NA
ATOM     29  H   UNL     1       3.726  -5.535  -3.018  0.00  0.00    +0.122 HD
BRANCH  28  30
ATOM     30  C   UNL     1       3.084  -7.490  -3.077  0.00  0.00    +0.116 C 
BRANCH  30  31
ATOM     31  C   UNL     1       3.927  -7.891  -1.894  0.00  0.00    -0.034 A 
ATOM     32  C   UNL     1       5.306  -7.896  -1.997  0.00  0.00    +0.005 A 
ATOM     33  C   UNL     1       6.079  -8.264  -0.912  0.00  0.00    +0.000 A 
ATOM     34  C   UNL     1       5.473  -8.625   0.277  0.00  0.00    +0.000 A 
ATOM     35  C   UNL     1       4.095  -8.619   0.381  0.00  0.00    +0.000 A 
ATOM     36  C   UNL     1       3.322  -8.247  -0.703  0.00  0.00    +0.005 A 
ENDBRANCH  30  31
ENDBRANCH  28  30
ENDBRANCH  27  28
ENDBRANCH   1  27
TORSDOF 10
