REMARK  Name = ZINC17274851
REMARK  11 active torsions:
REMARK  status: ('A' for Active; 'I' for Inactive)
REMARK    1  A    between atoms: C_1  and  C_2
REMARK    2  A    between atoms: C_2  and  C_3
REMARK    3  A    between atoms: C_2  and  C_4
REMARK    4  A    between atoms: C_4  and  N_5
REMARK    5  A    between atoms: C_6  and  C_28
REMARK    6  A    between atoms: C_9  and  S_10
REMARK    7  A    between atoms: S_10  and  C_11
REMARK    8  A    between atoms: C_11  and  C_12
REMARK    9  A    between atoms: N_17  and  C_18
REMARK   10  A    between atoms: C_28  and  C_29
REMARK   11  A    between atoms: C_29  and  C_30
REMARK                            x       y       z     vdW  Elec       q    Type
REMARK                         _______ _______ _______ _____ _____    ______ ____
ROOT
ATOM      1  C   UNL     1      -8.606   0.679   2.110  0.00  0.00    +0.173 C 
ENDROOT
BRANCH   1   2
ATOM      2  C   UNL     1      -7.192   1.201   2.099  0.00  0.00    +0.231 C 
ATOM      3  O   UNL     1      -6.796   1.898   3.008  0.00  0.00    -0.274 OA
ATOM      4  N   UNL     1      -6.368   0.892   1.079  0.00  0.00    -0.239 N 
ATOM      5  C   UNL     1      -5.103   1.358   1.069  0.00  0.00    +0.306 C 
ATOM      6  O   UNL     1      -4.707   2.057   1.980  0.00  0.00    -0.252 OA
ATOM      7  N   UNL     1      -4.279   1.049   0.049  0.00  0.00    -0.294 N 
ATOM      8  H   UNL     1      -6.684   0.334   0.351  0.00  0.00    +0.159 HD
ATOM      9  H   UNL     1      -4.595   0.491  -0.679  0.00  0.00    +0.151 HD
BRANCH   7  10
ATOM     10  C   UNL     1      -2.904   1.556   0.038  0.00  0.00    +0.037 C 
ATOM     11  C   UNL     1      -2.188   1.063  -1.221  0.00  0.00    +0.029 C 
ATOM     12  C   UNL     1      -0.753   1.593  -1.232  0.00  0.00    -0.008 C 
ATOM     13  C   UNL     1      -0.013   1.086   0.008  0.00  0.00    +0.007 C 
ATOM     14  C   UNL     1      -0.729   1.579   1.267  0.00  0.00    -0.008 C 
ATOM     15  C   UNL     1      -2.164   1.050   1.278  0.00  0.00    +0.029 C 
ATOM     16  C   UNL     1      -0.750   3.109   1.275  0.00  0.00    +0.007 C 
ATOM     17  C   UNL     1      -1.490   3.616   0.036  0.00  0.00    -0.008 C 
ATOM     18  C   UNL     1      -0.773   3.123  -1.223  0.00  0.00    +0.007 C 
ATOM     19  C   UNL     1      -2.925   3.086   0.047  0.00  0.00    +0.029 C 
ENDBRANCH   7  10
ENDBRANCH   1   2
BRANCH   1  20
ATOM     20  S   UNL     1      -9.453   1.263   3.599  0.00  0.00    -0.077 S 
BRANCH  20  25
ATOM     21  N   UNL     1     -12.111   0.623   4.194  0.00  0.00    -0.306 N 
ATOM     22  C   UNL     1     -13.108  -0.101   3.601  0.00  0.00    +0.135 A 
ATOM     23  N   UNL     1     -12.625  -0.590   2.494  0.00  0.00    -0.134 NA
ATOM     24  N   UNL     1     -11.402  -0.224   2.346  0.00  0.00    -0.122 NA
ATOM     25  C   UNL     1     -11.036   0.526   3.359  0.00  0.00    +0.192 A 
BRANCH  21  26
ATOM     26  C   UNL     1     -12.184   1.354   5.462  0.00  0.00    +0.128 C 
BRANCH  26  28
ATOM     27  C   UNL     1     -14.083   2.765   4.662  0.00  0.00    +0.009 C 
ATOM     28  C   UNL     1     -12.651   2.787   5.199  0.00  0.00    +0.003 C 
ATOM     29  C   UNL     1     -12.607   3.585   6.503  0.00  0.00    +0.009 C 
ENDBRANCH  26  28
ENDBRANCH  21  26
BRANCH  22  30
ATOM     30  C   UNL     1     -14.504  -0.301   4.131  0.00  0.00    +0.085 C 
BRANCH  30  31
ATOM     31  C   UNL     1     -14.537  -1.544   5.023  0.00  0.00    +0.103 C 
BRANCH  31  32
ATOM     32  C   UNL     1     -15.934  -1.744   5.554  0.00  0.00    +0.211 C 
ATOM     33  O   UNL     1     -16.815  -0.969   5.249  0.00  0.00    -0.276 OA
ATOM     34  N   UNL     1     -16.203  -2.785   6.367  0.00  0.00    -0.329 N 
ATOM     35  H   UNL     1     -15.498  -3.405   6.611  0.00  0.00    +0.145 HD
ATOM     36  H   UNL     1     -17.101  -2.914   6.709  0.00  0.00    +0.145 HD
ENDBRANCH  31  32
ENDBRANCH  30  31
ENDBRANCH  22  30
ENDBRANCH  20  25
ENDBRANCH   1  20
TORSDOF 9
