REMARK  Name = ZINC40357186
REMARK  4 active torsions:
REMARK  status: ('A' for Active; 'I' for Inactive)
REMARK    1  A    between atoms: C_6  and  C_7
REMARK    2  A    between atoms: N_9  and  C_10
REMARK    3  A    between atoms: C_10  and  C_17
REMARK    4  A    between atoms: C_17  and  N_19
REMARK                            x       y       z     vdW  Elec       q    Type
REMARK                         _______ _______ _______ _____ _____    ______ ____
ROOT
ATOM      1  C   UNL     1      -0.401  -2.041   0.914  0.00  0.00    +0.245 C 
ATOM      2  O   UNL     1      -0.562  -2.771   1.873  0.00  0.00    -0.270 OA
ATOM      3  N   UNL     1      -1.318  -2.012  -0.073  0.00  0.00    -0.300 N 
ATOM      4  H   UNL     1      -1.228  -1.376  -0.800  0.00  0.00    +0.150 HD
ENDROOT
BRANCH   1  10
ATOM      5  C   UNL     1       1.753  -1.212   1.852  0.00  0.00    +0.014 A 
ATOM      6  C   UNL     1       2.873  -0.411   1.769  0.00  0.00    +0.022 A 
ATOM      7  C   UNL     1       3.055   0.419   0.676  0.00  0.00    +0.059 A 
ATOM      8  C   UNL     1       2.113   0.451  -0.341  0.00  0.00    +0.060 A 
ATOM      9  C   UNL     1       0.989  -0.345  -0.269  0.00  0.00    +0.034 A 
ATOM     10  C   UNL     1       0.801  -1.185   0.831  0.00  0.00    +0.038 A 
ATOM     11 CL   UNL     1       2.349   1.496  -1.707  0.00  0.00    -0.082 Cl
ATOM     12 CL   UNL     1       4.467   1.424   0.580  0.00  0.00    -0.082 Cl
ENDBRANCH   1  10
BRANCH   3  13
ATOM     13  C   UNL     1      -2.450  -2.942  -0.048  0.00  0.00    +0.079 C 
ATOM     14  C   UNL     1      -3.300  -2.727  -1.316  0.00  0.00    +0.032 C 
ATOM     15  C   UNL     1      -2.374  -2.519  -2.483  0.00  0.00    +0.002 C 
ATOM     16  C   UNL     1      -2.084  -3.826  -3.246  0.00  0.00    +0.000 C 
ATOM     17  C   UNL     1      -1.852  -5.026  -2.307  0.00  0.00    +0.000 C 
ATOM     18  C   UNL     1      -1.007  -4.670  -1.115  0.00  0.00    +0.002 C 
ATOM     19  C   UNL     1      -1.941  -4.301   0.056  0.00  0.00    +0.032 C 
BRANCH  13  20
ATOM     20  C   UNL     1      -3.298  -2.644   1.162  0.00  0.00    +0.070 C 
ATOM     21  S   UNL     1      -3.648  -3.810   2.199  0.00  0.00    -0.038 S 
BRANCH  20  22
ATOM     22  N   UNL     1      -3.761  -1.396   1.370  0.00  0.00    -0.354 N 
ATOM     23  H   UNL     1      -3.490  -0.674   0.782  0.00  0.00    +0.143 HD
ATOM     24  H   UNL     1      -4.366  -1.220   2.108  0.00  0.00    +0.143 HD
ENDBRANCH  20  22
ENDBRANCH  13  20
ENDBRANCH   3  13
TORSDOF 4
