REMARK  Name = ZINC13639551
REMARK  3 active torsions:
REMARK  status: ('A' for Active; 'I' for Inactive)
REMARK    1  A    between atoms: C_3  and  C_9
REMARK    2  A    between atoms: C_4  and  O_8
REMARK    3  A    between atoms: C_6  and  O_7
REMARK                            x       y       z     vdW  Elec       q    Type
REMARK                         _______ _______ _______ _____ _____    ______ ____
ROOT
ATOM      1  C   UNL     1       1.235  -2.187  -0.021  0.00  0.00    +0.108 C 
ATOM      2  C   UNL     1       1.160  -2.712   1.398  0.00  0.00    +0.029 C 
ATOM      3  C   UNL     1      -0.121  -2.424   2.181  0.00  0.00    +0.033 C 
ATOM      4  C   UNL     1      -0.151  -3.623   3.133  0.00  0.00    -0.030 C 
ATOM      5  C   UNL     1       0.489  -4.651   2.587  0.00  0.00    -0.023 C 
ATOM      6  C   UNL     1       0.959  -4.251   1.239  0.00  0.00    +0.049 C 
ATOM      7  C   UNL     1       2.196  -4.785   0.631  0.00  0.00    -0.017 A 
ATOM      8  C   UNL     1       2.657  -6.053   0.917  0.00  0.00    +0.026 A 
ATOM      9  C   UNL     1       3.793  -6.544   0.301  0.00  0.00    +0.043 A 
ATOM     10  C   UNL     1       4.473  -5.754  -0.610  0.00  0.00    +0.041 A 
ATOM     11  C   UNL     1       4.025  -4.482  -0.893  0.00  0.00    +0.063 A 
ATOM     12  C   UNL     1       2.883  -3.970  -0.273  0.00  0.00    +0.050 A 
ATOM     13  N   UNL     1       2.502  -2.668  -0.596  0.00  0.00    -0.335 N 
ATOM     14 CL   UNL     1       4.891  -3.503  -2.037  0.00  0.00    -0.082 Cl
ATOM     15 CL   UNL     1       4.365  -8.142   0.668  0.00  0.00    -0.083 Cl
ATOM     16  H   UNL     1       3.251  -2.017  -0.416  0.00  0.00    +0.147 HD
ENDROOT
BRANCH   1  19
ATOM     17  C   UNL     1       1.426   1.389   1.173  0.00  0.00    +0.046 A 
ATOM     18  C   UNL     1       1.446   0.007   1.163  0.00  0.00    +0.012 A 
ATOM     19  C   UNL     1       1.214  -0.680  -0.013  0.00  0.00    +0.015 A 
ATOM     20  C   UNL     1       0.961   0.016  -1.187  0.00  0.00    +0.125 A 
ATOM     21  C   UNL     1       0.942   1.401  -1.179  0.00  0.00    +0.091 A 
ATOM     22  C   UNL     1       1.174   2.089   0.002  0.00  0.00    +0.120 A 
BRANCH  22  23
ATOM     23  O   UNL     1       1.156   3.448   0.013  0.00  0.00    -0.507 OA
ATOM     24  H   UNL     1       0.286   3.828   0.194  0.00  0.00    +0.292 HD
ENDBRANCH  22  23
BRANCH  20  25
ATOM     25  O   UNL     1       0.734  -0.661  -2.343  0.00  0.00    -0.506 OA
ATOM     26  H   UNL     1       1.533  -0.844  -2.856  0.00  0.00    +0.292 HD
ENDBRANCH  20  25
ENDBRANCH   1  19
TORSDOF 3
