REMARK  Name = ZINC12749270
REMARK  8 active torsions:
REMARK  status: ('A' for Active; 'I' for Inactive)
REMARK    1  A    between atoms: C_1  and  C_2
REMARK    2  A    between atoms: C_2  and  C_4
REMARK    3  A    between atoms: C_2  and  S_16
REMARK    4  A    between atoms: N_6  and  C_7
REMARK    5  A    between atoms: C_12  and  N_13
REMARK    6  A    between atoms: S_16  and  C_17
REMARK    7  A    between atoms: C_20  and  C_29
REMARK    8  A    between atoms: N_21  and  C_22
REMARK                            x       y       z     vdW  Elec       q    Type
REMARK                         _______ _______ _______ _____ _____    ______ ____
ROOT
ATOM      1  C   UNL     1      -2.361  -0.070  -1.526  0.00  0.00    +0.197 A 
ATOM      2  N   UNL     1      -1.732   0.633  -2.438  0.00  0.00    -0.122 NA
ATOM      3  N   UNL     1      -2.510   0.866  -3.434  0.00  0.00    -0.128 NA
ATOM      4  C   UNL     1      -3.688   0.325  -3.221  0.00  0.00    +0.171 A 
ATOM      5  N   UNL     1      -3.629  -0.297  -1.993  0.00  0.00    -0.270 N 
ENDROOT
BRANCH   4   6
ATOM      6  C   UNL     1      -4.852   0.371  -4.127  0.00  0.00    +0.045 A 
ATOM      7  C   UNL     1      -6.073  -0.181  -3.908  0.00  0.00    +0.095 A 
ATOM      8  N   UNL     1      -6.891   0.072  -4.972  0.00  0.00    -0.360 N 
ATOM      9  H   UNL     1      -7.812  -0.222  -5.046  0.00  0.00    +0.165 HD
ATOM     10  C   UNL     1      -6.217   0.804  -5.926  0.00  0.00    +0.047 A 
ATOM     11  C   UNL     1      -4.917   1.030  -5.443  0.00  0.00    +0.010 A 
ATOM     12  C   UNL     1      -4.006   1.758  -6.206  0.00  0.00    +0.011 A 
ATOM     13  C   UNL     1      -4.388   2.256  -7.432  0.00  0.00    +0.001 A 
ATOM     14  C   UNL     1      -5.673   2.036  -7.909  0.00  0.00    +0.002 A 
ATOM     15  C   UNL     1      -6.582   1.312  -7.169  0.00  0.00    +0.026 A 
ENDBRANCH   4   6
BRANCH   5  16
ATOM     16  C   UNL     1      -4.653  -1.010  -1.354  0.00  0.00    +0.051 A 
ATOM     17  C   UNL     1      -5.125  -2.193  -1.905  0.00  0.00    +0.028 A 
ATOM     18  C   UNL     1      -6.134  -2.894  -1.274  0.00  0.00    +0.022 A 
ATOM     19  C   UNL     1      -6.675  -2.417  -0.092  0.00  0.00    +0.041 A 
ATOM     20  C   UNL     1      -6.207  -1.238   0.459  0.00  0.00    +0.022 A 
ATOM     21  C   UNL     1      -5.193  -0.537  -0.166  0.00  0.00    +0.028 A 
ATOM     22 CL   UNL     1      -7.943  -3.300   0.698  0.00  0.00    -0.084 Cl
ENDBRANCH   5  16
BRANCH   1  23
ATOM     23  S   UNL     1      -1.697  -0.625   0.009  0.00  0.00    -0.073 S 
BRANCH  23  25
ATOM     24  C   UNL     1      -0.022   1.537   0.032  0.00  0.00    +0.029 C 
ATOM     25  C   UNL     1       0.003   0.007   0.006  0.00  0.00    +0.137 C 
BRANCH  25  26
ATOM     26  C   UNL     1       0.732  -0.504   1.221  0.00  0.00    +0.230 C 
ATOM     27  O   UNL     1       0.106  -0.905   2.179  0.00  0.00    -0.274 OA
ATOM     28  N   UNL     1       2.079  -0.516   1.244  0.00  0.00    -0.283 N 
ATOM     29  H   UNL     1       2.580  -0.272   0.450  0.00  0.00    +0.155 HD
BRANCH  28  30
ATOM     30  C   UNL     1       2.756  -0.881   2.413  0.00  0.00    +0.064 A 
ATOM     31  C   UNL     1       2.143  -0.726   3.650  0.00  0.00    +0.025 A 
ATOM     32  C   UNL     1       2.814  -1.087   4.801  0.00  0.00    +0.002 A 
ATOM     33  C   UNL     1       4.095  -1.603   4.725  0.00  0.00    +0.002 A 
ATOM     34  C   UNL     1       4.708  -1.759   3.495  0.00  0.00    +0.034 A 
ATOM     35  C   UNL     1       4.040  -1.405   2.339  0.00  0.00    +0.147 A 
BRANCH  35  36
ATOM     36  N   UNL     1       4.695  -1.578   1.023  0.00  0.00    +0.058 N 
ATOM     37  O   UNL     1       5.775  -2.116   0.951  0.00  0.00    -0.126 OA
ATOM     38  O   UNL     1       4.149  -1.182   0.019  0.00  0.00    -0.126 OA
ENDBRANCH  35  36
ENDBRANCH  28  30
ENDBRANCH  25  26
ENDBRANCH  23  25
ENDBRANCH   1  23
TORSDOF 7
