REMARK  Name = ZINC66925563
REMARK  6 active torsions:
REMARK  status: ('A' for Active; 'I' for Inactive)
REMARK    1  A    between atoms: C_10  and  C_11
REMARK    2  A    between atoms: C_10  and  O_29
REMARK    3  A    between atoms: C_11  and  N_12
REMARK    4  A    between atoms: N_15  and  C_16
REMARK    5  A    between atoms: C_16  and  C_17
REMARK    6  A    between atoms: C_22  and  N_23
REMARK                            x       y       z     vdW  Elec       q    Type
REMARK                         _______ _______ _______ _____ _____    ______ ____
ROOT
ATOM      1  N   UNL     1       4.551   1.563   0.699  0.00  0.00    -0.296 N 
ATOM      2  C   UNL     1       5.540   2.313   1.225  0.00  0.00    +0.300 C 
ATOM      3  O   UNL     1       6.282   1.839   2.063  0.00  0.00    -0.253 OA
ATOM      4  N   UNL     1       5.705   3.589   0.823  0.00  0.00    -0.295 N 
ATOM      5  H   UNL     1       3.958   1.941   0.031  0.00  0.00    +0.150 HD
ATOM      6  H   UNL     1       5.112   3.967   0.154  0.00  0.00    +0.151 HD
ENDROOT
BRANCH   1   7
ATOM      7  C   UNL     1       4.371   0.176   1.137  0.00  0.00    +0.145 C 
BRANCH   7  17
ATOM      8  C   UNL     1       2.926  -4.560   1.550  0.00  0.00    +0.000 A 
ATOM      9  C   UNL     1       3.091  -3.545   2.475  0.00  0.00    +0.000 A 
ATOM     10  C   UNL     1       3.206  -2.240   2.045  0.00  0.00    +0.007 A 
ATOM     11  C   UNL     1       3.159  -1.936   0.690  0.00  0.00    -0.011 A 
ATOM     12  C   UNL     1       3.000  -2.947  -0.230  0.00  0.00    -0.041 A 
ATOM     13  C   UNL     1       2.881  -4.261   0.205  0.00  0.00    +0.004 A 
ATOM     14  C   UNL     1       2.957  -2.693  -1.714  0.00  0.00    +0.035 C 
ATOM     15  C   UNL     1       2.668  -1.220  -1.999  0.00  0.00    +0.008 C 
ATOM     16  C   UNL     1       3.650  -0.368  -1.187  0.00  0.00    +0.041 C 
ATOM     17  C   UNL     1       3.283  -0.488   0.291  0.00  0.00    +0.107 C 
BRANCH  17  18
ATOM     18  O   UNL     1       2.038   0.173   0.523  0.00  0.00    -0.382 OA
ATOM     19  H   UNL     1       1.748   0.153   1.445  0.00  0.00    +0.211 HD
ENDBRANCH  17  18
ENDBRANCH   7  17
ENDBRANCH   1   7
BRANCH   4  20
ATOM     20  C   UNL     1       6.779   4.404   1.395  0.00  0.00    +0.144 C 
BRANCH  20  21
ATOM     21  C   UNL     1       6.747   5.780   0.780  0.00  0.00    +0.008 A 
ATOM     22  C   UNL     1       7.649   6.127  -0.209  0.00  0.00    +0.010 A 
ATOM     23  C   UNL     1       7.583   7.405  -0.747  0.00  0.00    +0.018 A 
ATOM     24  C   UNL     1       6.627   8.286  -0.282  0.00  0.00    +0.084 A 
ATOM     25  N   UNL     1       5.780   7.928   0.664  0.00  0.00    -0.349 N 
ATOM     26  C   UNL     1       5.807   6.716   1.197  0.00  0.00    +0.103 A 
ATOM     27  H   UNL     1       5.118   8.566   0.973  0.00  0.00    +0.167 HD
BRANCH  26  28
ATOM     28  N   UNL     1       4.891   6.379   2.187  0.00  0.00    -0.316 N 
ATOM     29  C   UNL     1       5.236   6.526   3.607  0.00  0.00    +0.106 C 
ATOM     30  C   UNL     1       4.158   7.373   4.291  0.00  0.00    +0.019 C 
ATOM     31  C   UNL     1       2.785   6.745   4.040  0.00  0.00    +0.003 C 
ATOM     32  C   UNL     1       2.500   6.723   2.536  0.00  0.00    +0.019 C 
ATOM     33  C   UNL     1       3.557   5.874   1.832  0.00  0.00    +0.106 C 
ENDBRANCH  26  28
ENDBRANCH  20  21
ENDBRANCH   4  20
TORSDOF 6
