REMARK  Name = ZINC23701677
REMARK  8 active torsions:
REMARK  status: ('A' for Active; 'I' for Inactive)
REMARK    1  A    between atoms: C_4  and  C_7
REMARK    2  A    between atoms: C_8  and  S_9
REMARK    3  A    between atoms: S_9  and  N_12
REMARK    4  A    between atoms: N_15  and  C_18
REMARK    5  A    between atoms: C_18  and  C_19
REMARK    6  A    between atoms: N_21  and  C_22
REMARK    7  A    between atoms: C_22  and  C_23
REMARK    8  A    between atoms: C_23  and  N_29
REMARK                            x       y       z     vdW  Elec       q    Type
REMARK                         _______ _______ _______ _____ _____    ______ ____
ROOT
ATOM      1  N   UNL     1      -1.849   2.501  -0.627  0.00  0.00    -0.181 NA
ATOM      2  C   UNL     1      -0.410   2.799  -0.580  0.00  0.00    +0.091 C 
ATOM      3  C   UNL     1       0.107   2.485   0.829  0.00  0.00    -0.061 C 
ATOM      4  N   UNL     1      -0.254   1.106   1.184  0.00  0.00    +0.387 N 
ATOM      5  C   UNL     1      -1.712   0.933   1.236  0.00  0.00    -0.061 C 
ATOM      6  C   UNL     1      -2.303   1.183  -0.156  0.00  0.00    +0.091 C 
ATOM      7  H   UNL     1       0.133   0.445   0.395  0.00  0.00    -0.081 HD
ENDROOT
BRANCH   1   8
ATOM      8  S   UNL     1      -2.931   3.619  -1.195  0.00  0.00    +0.054 S 
ATOM      9  O   UNL     1      -4.188   3.298  -0.616  0.00  0.00    -0.153 OA
ATOM     10  O   UNL     1      -2.321   4.892  -1.034  0.00  0.00    -0.153 OA
BRANCH   8  12
ATOM     11  C   UNL     1      -4.251   2.952  -3.433  0.00  0.00    +0.028 C 
ATOM     12  C   UNL     1      -3.092   3.353  -2.929  0.00  0.00    +0.153 C 
BRANCH  11  16
ATOM     13  C   UNL     1      -4.640   2.311  -7.614  0.00  0.00    +0.000 A 
ATOM     14  C   UNL     1      -5.725   2.101  -6.781  0.00  0.00    +0.001 A 
ATOM     15  C   UNL     1      -5.605   2.308  -5.422  0.00  0.00    +0.008 A 
ATOM     16  C   UNL     1      -4.386   2.729  -4.888  0.00  0.00    -0.024 A 
ATOM     17  C   UNL     1      -3.298   2.944  -5.734  0.00  0.00    +0.008 A 
ATOM     18  C   UNL     1      -3.429   2.728  -7.091  0.00  0.00    +0.001 A 
ENDBRANCH  11  16
ENDBRANCH   8  12
ENDBRANCH   1   8
BRANCH   4  19
ATOM     19  C   UNL     1       0.369   0.710   2.454  0.00  0.00    +0.019 C 
BRANCH  19  20
ATOM     20  C   UNL     1      -0.188   1.554   3.572  0.00  0.00    +0.197 C 
ATOM     21  O   UNL     1      -0.941   2.471   3.322  0.00  0.00    -0.278 OA
ATOM     22  N   UNL     1       0.150   1.289   4.849  0.00  0.00    -0.315 N 
ATOM     23  H   UNL     1       0.833   0.457   5.076  0.00  0.00    +0.149 HD
BRANCH  22  24
ATOM     24  C   UNL     1      -0.391   2.109   5.936  0.00  0.00    +0.126 C 
BRANCH  24  25
ATOM     25  C   UNL     1       0.243   1.682   7.261  0.00  0.00    +0.038 C 
ATOM     26  C   UNL     1      -0.393   2.471   8.408  0.00  0.00    +0.024 C 
ATOM     27  C   UNL     1      -0.159   3.967   8.188  0.00  0.00    +0.002 C 
ATOM     28  C   UNL     1       1.345   4.248   8.148  0.00  0.00    +0.000 C 
ATOM     29  C   UNL     1       1.981   3.459   7.002  0.00  0.00    +0.002 C 
ATOM     30  C   UNL     1       1.746   1.963   7.221  0.00  0.00    +0.024 C 
BRANCH  25  31
ATOM     31  N   UNL     1       0.018   0.246   7.472  0.00  0.00    -0.291 NA
ATOM     32  C   UNL     1      -1.419  -0.065   7.489  0.00  0.00    +0.113 C 
ATOM     33  C   UNL     1      -1.606  -1.576   7.651  0.00  0.00    +0.175 C 
ATOM     34  O   UNL     1      -0.944  -2.009   8.842  0.00  0.00    -0.377 OA
ATOM     35  C   UNL     1       0.457  -1.722   8.858  0.00  0.00    +0.175 C 
ATOM     36  C   UNL     1       0.666  -0.213   8.709  0.00  0.00    +0.113 C 
ENDBRANCH  25  31
ENDBRANCH  24  25
ENDBRANCH  22  24
ENDBRANCH  19  20
ENDBRANCH   4  19
TORSDOF 8
