REMARK  Name = ZINC14475942
REMARK  7 active torsions:
REMARK  status: ('A' for Active; 'I' for Inactive)
REMARK    1  A    between atoms: C_2  and  C_3
REMARK    2  A    between atoms: C_3  and  N_4
REMARK    3  A    between atoms: N_4  and  S_5
REMARK    4  A    between atoms: S_5  and  C_8
REMARK    5  A    between atoms: C_21  and  C_24
REMARK    6  A    between atoms: C_26  and  N_31
REMARK    7  A    between atoms: C_29  and  O_30
REMARK                            x       y       z     vdW  Elec       q    Type
REMARK                         _______ _______ _______ _____ _____    ______ ____
ROOT
ATOM      1  C   UNL     1      -4.022  -2.184  -1.281  0.00  0.00    +0.106 A 
ATOM      2  C   UNL     1      -4.716  -1.866  -0.129  0.00  0.00    +0.030 A 
ATOM      3  C   UNL     1      -5.967  -1.290  -0.218  0.00  0.00    +0.025 A 
ATOM      4  C   UNL     1      -6.528  -1.028  -1.466  0.00  0.00    +0.031 A 
ATOM      5  C   UNL     1      -5.829  -1.336  -2.619  0.00  0.00    -0.018 A 
ATOM      6  C   UNL     1      -4.572  -1.917  -2.518  0.00  0.00    +0.034 A 
ATOM      7  C   UNL     1      -6.371  -1.042  -3.989  0.00  0.00    +0.049 C 
ATOM      8  C   UNL     1      -5.301  -0.285  -4.760  0.00  0.00    -0.023 C 
ATOM      9  C   UNL     1      -5.574   0.993  -4.793  0.00  0.00    -0.030 C 
ATOM     10  C   UNL     1      -6.868   1.289  -4.064  0.00  0.00    +0.033 C 
ATOM     11  C   UNL     1      -7.572  -0.101  -3.970  0.00  0.00    +0.029 C 
ATOM     12  C   UNL     1      -8.483  -0.220  -2.784  0.00  0.00    +0.108 C 
ATOM     13  N   UNL     1      -7.796  -0.461  -1.530  0.00  0.00    -0.336 N 
ATOM     14  H   UNL     1      -8.249  -0.240  -0.702  0.00  0.00    +0.147 HD
ENDROOT
BRANCH  12  15
ATOM     15  C   UNL     1      -9.249   1.070  -2.641  0.00  0.00    +0.017 A 
ATOM     16  C   UNL     1      -8.787   2.058  -1.793  0.00  0.00    +0.041 A 
ATOM     17  C   UNL     1      -9.489   3.242  -1.661  0.00  0.00    +0.127 A 
ATOM     18  C   UNL     1     -10.656   3.440  -2.377  0.00  0.00    +0.036 A 
ATOM     19  C   UNL     1     -11.122   2.455  -3.226  0.00  0.00    +0.048 A 
ATOM     20  C   UNL     1     -10.416   1.268  -3.365  0.00  0.00    +0.122 A 
BRANCH  17  21
ATOM     21  N   UNL     1      -8.993   4.298  -0.752  0.00  0.00    +0.056 N 
ATOM     22  O   UNL     1      -7.973   4.126  -0.125  0.00  0.00    -0.126 OA
ATOM     23  O   UNL     1      -9.606   5.334  -0.636  0.00  0.00    -0.126 OA
ENDBRANCH  17  21
BRANCH  20  24
ATOM     24  O   UNL     1     -10.869   0.300  -4.203  0.00  0.00    -0.506 OA
ATOM     25  H   UNL     1     -11.470  -0.332  -3.786  0.00  0.00    +0.292 HD
ENDBRANCH  20  24
ENDBRANCH  12  15
BRANCH   1  26
ATOM     26  S   UNL     1      -2.428  -2.927  -1.170  0.00  0.00    +0.059 S 
ATOM     27  O   UNL     1      -2.218  -3.622  -2.392  0.00  0.00    -0.153 OA
ATOM     28  O   UNL     1      -2.369  -3.575   0.093  0.00  0.00    -0.153 OA
BRANCH  26  29
ATOM     29  N   UNL     1      -1.318  -1.700  -1.126  0.00  0.00    -0.186 NA
ATOM     30  H   UNL     1      -0.684  -1.593  -1.852  0.00  0.00    +0.148 HD
BRANCH  29  31
ATOM     31  C   UNL     1      -1.293  -0.775   0.010  0.00  0.00    +0.132 C 
BRANCH  31  33
ATOM     32  C   UNL     1      -0.016   1.306   0.009  0.00  0.00    +0.005 C 
ATOM     33  C   UNL     1       0.002  -0.004   0.002  0.00  0.00    -0.018 C 
ENDBRANCH  31  33
ENDBRANCH  29  31
ENDBRANCH  26  29
ENDBRANCH   1  26
TORSDOF 7
