REMARK  Name = ZINC13801261
REMARK  15 active torsions:
REMARK  status: ('A' for Active; 'I' for Inactive)
REMARK    1  A    between atoms: C_7  and  N_14
REMARK    2  A    between atoms: N_14  and  C_15
REMARK    3  A    between atoms: C_15  and  C_16
REMARK    4  A    between atoms: C_16  and  C_17
REMARK    5  A    between atoms: C_17  and  C_18
REMARK    6  A    between atoms: C_18  and  C_19
REMARK    7  A    between atoms: C_19  and  C_20
REMARK    8  A    between atoms: C_20  and  C_21
REMARK    9  A    between atoms: C_21  and  C_22
REMARK   10  A    between atoms: C_22  and  C_23
REMARK   11  A    between atoms: C_23  and  C_24
REMARK   12  A    between atoms: C_24  and  C_25
REMARK   13  A    between atoms: C_25  and  C_26
REMARK   14  A    between atoms: C_26  and  N_27
REMARK   15  A    between atoms: N_27  and  C_28
REMARK                            x       y       z     vdW  Elec       q    Type
REMARK                         _______ _______ _______ _____ _____    ______ ____
ROOT
ATOM      1  C   UNL     1     -16.141   4.421  -0.077  0.00  0.00    +0.019 C 
ENDROOT
BRANCH   1   2
ATOM      2  C   UNL     1     -17.311   5.407  -0.073  0.00  0.00    +0.101 C 
BRANCH   2   3
ATOM      3  N   UNL     1     -18.560   4.685   0.199  0.00  0.00    -0.343 N 
ATOM      4  H   UNL     1     -18.743   3.996  -0.515  0.00  0.00    +0.146 HD
BRANCH   3  11
ATOM      5  C   UNL     1     -20.634   6.129  -3.179  0.00  0.00    +0.001 A 
ATOM      6  C   UNL     1     -21.700   7.008  -3.002  0.00  0.00    +0.002 A 
ATOM      7  C   UNL     1     -22.081   7.409  -1.759  0.00  0.00    +0.026 A 
ATOM      8  C   UNL     1     -21.393   6.931  -0.630  0.00  0.00    +0.048 A 
ATOM      9  C   UNL     1     -20.307   6.043  -0.814  0.00  0.00    +0.019 A 
ATOM     10  C   UNL     1     -19.944   5.646  -2.108  0.00  0.00    +0.012 A 
ATOM     11  C   UNL     1     -19.625   5.563   0.327  0.00  0.00    +0.041 A 
ATOM     12  C   UNL     1     -20.043   5.999   1.581  0.00  0.00    -0.007 A 
ATOM     13  C   UNL     1     -21.109   6.875   1.682  0.00  0.00    +0.021 A 
ATOM     14  C   UNL     1     -21.602   7.388   3.013  0.00  0.00    +0.053 C 
ATOM     15  C   UNL     1     -21.098   6.503   4.150  0.00  0.00    +0.006 C 
ATOM     16  C   UNL     1     -19.579   6.346   4.006  0.00  0.00    +0.005 C 
ATOM     17  C   UNL     1     -19.300   5.476   2.782  0.00  0.00    +0.039 C 
ATOM     18  N   UNL     1     -21.807   7.359   0.612  0.00  0.00    -0.358 N 
ATOM     19  H   UNL     1     -22.596   8.005   0.728  0.00  0.00    +0.166 HD
ENDBRANCH   3  11
ENDBRANCH   2   3
ENDBRANCH   1   2
BRANCH   1  20
ATOM     20  C   UNL     1     -14.840   5.174  -0.360  0.00  0.00    +0.002 C 
BRANCH  20  21
ATOM     21  C   UNL     1     -13.670   4.187  -0.364  0.00  0.00    +0.000 C 
BRANCH  21  22
ATOM     22  C   UNL     1     -12.369   4.940  -0.647  0.00  0.00    +0.000 C 
BRANCH  22  23
ATOM     23  C   UNL     1     -11.199   3.953  -0.651  0.00  0.00    +0.000 C 
BRANCH  23  24
ATOM     24  C   UNL     1      -9.898   4.706  -0.934  0.00  0.00    +0.000 C 
BRANCH  24  25
ATOM     25  C   UNL     1      -8.729   3.720  -0.938  0.00  0.00    +0.000 C 
BRANCH  25  26
ATOM     26  C   UNL     1      -7.427   4.472  -1.222  0.00  0.00    +0.000 C 
BRANCH  26  27
ATOM     27  C   UNL     1      -6.258   3.486  -1.226  0.00  0.00    +0.002 C 
BRANCH  27  28
ATOM     28  C   UNL     1      -4.956   4.239  -1.509  0.00  0.00    +0.019 C 
BRANCH  28  29
ATOM     29  C   UNL     1      -3.787   3.252  -1.513  0.00  0.00    +0.101 C 
BRANCH  29  30
ATOM     30  N   UNL     1      -2.541   3.973  -1.784  0.00  0.00    -0.344 N 
ATOM     31  H   UNL     1      -2.556   4.932  -1.927  0.00  0.00    +0.146 HD
BRANCH  30  32
ATOM     32  C   UNL     1      -1.334   3.281  -1.837  0.00  0.00    +0.030 A 
ATOM     33  C   UNL     1      -1.291   1.901  -1.640  0.00  0.00    +0.040 A 
ATOM     34  C   UNL     1      -0.075   1.254  -1.696  0.00  0.00    +0.084 A 
ATOM     35  C   UNL     1       1.037   3.228  -2.139  0.00  0.00    +0.084 A 
ATOM     36  C   UNL     1      -0.137   3.950  -2.095  0.00  0.00    +0.040 A 
ATOM     37  N   UNL     1       1.107   1.882  -1.945  0.00  0.00    -0.367 N 
ATOM     38  H   UNL     1       1.997   1.372  -1.984  0.00  0.00    +0.165 HD
ENDBRANCH  30  32
ENDBRANCH  29  30
ENDBRANCH  28  29
ENDBRANCH  27  28
ENDBRANCH  26  27
ENDBRANCH  25  26
ENDBRANCH  24  25
ENDBRANCH  23  24
ENDBRANCH  22  23
ENDBRANCH  21  22
ENDBRANCH  20  21
ENDBRANCH   1  20
TORSDOF 15
