REMARK  Name = ZINC39363178
REMARK  7 active torsions:
REMARK  status: ('A' for Active; 'I' for Inactive)
REMARK    1  A    between atoms: C_3  and  C_11
REMARK    2  A    between atoms: C_5  and  C_7
REMARK    3  A    between atoms: C_11  and  S_12
REMARK    4  A    between atoms: S_12  and  C_13
REMARK    5  A    between atoms: C_16  and  C_26
REMARK    6  A    between atoms: N_18  and  C_19
REMARK    7  A    between atoms: C_26  and  C_27
REMARK                            x       y       z     vdW  Elec       q    Type
REMARK                         _______ _______ _______ _____ _____    ______ ____
ROOT
ATOM      1  C   UNL     1       5.731   3.354   1.505  0.00  0.00    +0.180 C 
ATOM      2  N   UNL     1       6.242   3.688   0.369  0.00  0.00    -0.162 NA
ATOM      3  N   UNL     1       7.417   4.432   0.534  0.00  0.00    -0.246 N 
ATOM      4  C   UNL     1       7.626   4.552   1.987  0.00  0.00    +0.187 C 
ATOM      5  N   UNL     1       6.483   3.829   2.570  0.00  0.00    -0.258 N 
ATOM      6  H   UNL     1       7.980   4.795  -0.168  0.00  0.00    +0.170 HD
ENDROOT
BRANCH   5   7
ATOM      7  C   UNL     1       6.211   3.653   3.930  0.00  0.00    +0.038 A 
ATOM      8  C   UNL     1       7.062   2.885   4.716  0.00  0.00    +0.025 A 
ATOM      9  C   UNL     1       6.791   2.713   6.059  0.00  0.00    +0.022 A 
ATOM     10  C   UNL     1       5.673   3.304   6.622  0.00  0.00    +0.041 A 
ATOM     11  C   UNL     1       4.824   4.069   5.841  0.00  0.00    +0.022 A 
ATOM     12  C   UNL     1       5.093   4.249   4.499  0.00  0.00    +0.025 A 
ATOM     13 CL   UNL     1       5.335   3.084   8.311  0.00  0.00    -0.084 Cl
ENDBRANCH   5   7
BRANCH   1  14
ATOM     14  S   UNL     1       4.251   2.414   1.684  0.00  0.00    -0.084 S 
BRANCH  14  15
ATOM     15  C   UNL     1       3.730   2.088  -0.023  0.00  0.00    +0.112 C 
BRANCH  15  18
ATOM     16  C   UNL     1       0.066   1.179   0.000  0.00  0.00    +0.001 A 
ATOM     17  C   UNL     1       1.233   1.920  -0.007  0.00  0.00    +0.004 A 
ATOM     18  C   UNL     1       2.458   1.280  -0.014  0.00  0.00    -0.037 A 
ATOM     19  C   UNL     1       2.516  -0.101  -0.013  0.00  0.00    +0.016 A 
ATOM     20  C   UNL     1       1.349  -0.842  -0.005  0.00  0.00    +0.055 A 
ATOM     21  C   UNL     1       0.124  -0.202   0.001  0.00  0.00    +0.012 A 
BRANCH  20  22
ATOM     22  C   UNL     1       1.412  -2.348  -0.005  0.00  0.00    +0.417 C 
ATOM     23  F   UNL     1       1.441  -2.813   1.314  0.00  0.00    -0.166 F 
ATOM     24  F   UNL     1       0.286  -2.862  -0.656  0.00  0.00    -0.166 F 
ATOM     25  F   UNL     1       2.569  -2.766  -0.672  0.00  0.00    -0.166 F 
ENDBRANCH  20  22
ENDBRANCH  15  18
ENDBRANCH  14  15
ENDBRANCH   1  14
BRANCH   4  26
ATOM     26  C   UNL     1       7.602   6.022   2.413  0.00  0.00    +0.097 C 
BRANCH  26  27
ATOM     27  C   UNL     1       8.720   6.762   1.725  0.00  0.00    +0.029 A 
ATOM     28  N   UNL     1       9.979   6.758   2.261  0.00  0.00    -0.311 N 
ATOM     29  C   UNL     1      10.984   7.416   1.655  0.00  0.00    +0.327 A 
ATOM     30  O   UNL     1      12.095   7.399   2.149  0.00  0.00    -0.247 OA
ATOM     31  N   UNL     1      10.777   8.091   0.509  0.00  0.00    -0.275 N 
ATOM     32  C   UNL     1       9.551   8.119  -0.051  0.00  0.00    +0.254 A 
ATOM     33  O   UNL     1       9.363   8.730  -1.088  0.00  0.00    -0.268 OA
ATOM     34  C   UNL     1       8.486   7.428   0.574  0.00  0.00    +0.091 A 
ATOM     35  H   UNL     1      11.513   8.559   0.085  0.00  0.00    +0.173 HD
ATOM     36  H   UNL     1      10.149   6.277   3.087  0.00  0.00    +0.170 HD
ENDBRANCH  26  27
ENDBRANCH   4  26
TORSDOF 7
