REMARK  Name = ZINC28878382
REMARK  6 active torsions:
REMARK  status: ('A' for Active; 'I' for Inactive)
REMARK    1  A    between atoms: C_1  and  C_2
REMARK    2  A    between atoms: C_2  and  C_4
REMARK    3  A    between atoms: C_2  and  N_12
REMARK    4  A    between atoms: N_12  and  C_13
REMARK    5  A    between atoms: C_13  and  C_15
REMARK    6  A    between atoms: C_13  and  C_16
REMARK                            x       y       z     vdW  Elec       q    Type
REMARK                         _______ _______ _______ _____ _____    ______ ____
ROOT
ATOM      1  N   UNL     1      -0.701   1.982   1.238  0.00  0.00    +0.391 N 
ATOM      2  H   UNL     1      -1.450   1.268   1.612  0.00  0.00    -0.084 HD
ATOM      3  H   UNL     1       0.078   2.129   2.001  0.00  0.00    -0.084 HD
ENDROOT
BRANCH   1   5
ATOM      4  C   UNL     1       1.032   0.481   0.377  0.00  0.00    -0.009 C 
ATOM      5  C   UNL     1      -0.091   1.454   0.010  0.00  0.00    -0.043 C 
BRANCH   5   6
ATOM      6  C   UNL     1      -1.137   0.731  -0.799  0.00  0.00    -0.060 A 
ATOM      7  C   UNL     1      -1.157   0.861  -2.176  0.00  0.00    +0.003 A 
ATOM      8  C   UNL     1      -2.115   0.199  -2.919  0.00  0.00    +0.021 A 
ATOM      9  C   UNL     1      -3.055  -0.594  -2.287  0.00  0.00    +0.059 A 
ATOM     10  C   UNL     1      -3.036  -0.725  -0.909  0.00  0.00    +0.059 A 
ATOM     11  C   UNL     1      -2.072  -0.066  -0.166  0.00  0.00    +0.023 A 
ATOM     12 CL   UNL     1      -4.215  -1.720  -0.113  0.00  0.00    -0.082 Cl
ATOM     13 CL   UNL     1      -4.260  -1.426  -3.220  0.00  0.00    -0.082 Cl
ENDBRANCH   5   6
ENDBRANCH   1   5
BRANCH   1  14
ATOM     14  C   UNL     1      -1.362   3.269   0.986  0.00  0.00    +0.014 C 
ATOM     15  C   UNL     1      -0.330   4.396   1.059  0.00  0.00    -0.004 C 
BRANCH  14  16
ATOM     16  C   UNL     1      -2.430   3.498   2.024  0.00  0.00    +0.206 C 
ATOM     17  O   UNL     1      -2.621   2.670   2.889  0.00  0.00    -0.277 OA
ATOM     18  N   UNL     1      -3.172   4.622   1.992  0.00  0.00    -0.242 N 
ATOM     19  C   UNL     1      -4.126   4.827   2.921  0.00  0.00    +0.303 C 
ATOM     20  O   UNL     1      -4.318   3.997   3.788  0.00  0.00    -0.253 OA
ATOM     21  N   UNL     1      -4.869   5.952   2.888  0.00  0.00    -0.313 N 
ATOM     22  H   UNL     1      -2.998   5.373   1.207  0.00  0.00    +0.159 HD
ATOM     23  H   UNL     1      -5.648   6.119   3.646  0.00  0.00    +0.146 HD
ATOM     24  H   UNL     1      -4.695   6.702   2.103  0.00  0.00    +0.146 HD
ENDBRANCH  14  16
ENDBRANCH   1  14
TORSDOF 4
