REMARK  Name = ZINC08432521
REMARK  8 active torsions:
REMARK  status: ('A' for Active; 'I' for Inactive)
REMARK    1  A    between atoms: C_4  and  C_7
REMARK    2  A    between atoms: C_7  and  O_8
REMARK    3  A    between atoms: O_8  and  C_9
REMARK    4  A    between atoms: C_14  and  C_15
REMARK    5  A    between atoms: C_15  and  C_17
REMARK    6  A    between atoms: C_15  and  N_28
REMARK    7  A    between atoms: C_26  and  O_27
REMARK    8  A    between atoms: N_28  and  C_29
REMARK                            x       y       z     vdW  Elec       q    Type
REMARK                         _______ _______ _______ _____ _____    ______ ____
ROOT
ATOM      1  C   UNL     1       4.912  -1.387  -4.073  0.00  0.00    +0.139 C 
ENDROOT
BRANCH   1   2
ATOM      2  C   UNL     1       5.272   0.064  -4.260  0.00  0.00    +0.021 A 
ATOM      3  C   UNL     1       6.159   0.425  -5.271  0.00  0.00    +0.010 A 
ATOM      4  C   UNL     1       6.501   1.728  -5.470  0.00  0.00    +0.010 A 
ATOM      5  C   UNL     1       5.963   2.724  -4.638  0.00  0.00    +0.004 A 
ATOM      6  C   UNL     1       6.298   4.081  -4.809  0.00  0.00    +0.011 A 
ATOM      7  C   UNL     1       5.736   4.995  -3.964  0.00  0.00    +0.020 A 
ATOM      8  C   UNL     1       4.859   4.572  -2.967  0.00  0.00    +0.111 A 
ATOM      9  N   UNL     1       4.550   3.308  -2.812  0.00  0.00    -0.251 NA
ATOM     10  C   UNL     1       5.065   2.364  -3.605  0.00  0.00    +0.113 A 
ATOM     11  C   UNL     1       4.729   1.004  -3.432  0.00  0.00    +0.148 A 
BRANCH  11  12
ATOM     12  O   UNL     1       3.870   0.633  -2.448  0.00  0.00    -0.504 OA
ATOM     13  H   UNL     1       4.305   0.359  -1.629  0.00  0.00    +0.292 HD
ENDBRANCH  11  12
ENDBRANCH   1   2
BRANCH   1  19
ATOM     14  C   UNL     1       5.472  -3.209  -2.444  0.00  0.00    +0.126 A 
ATOM     15  C   UNL     1       6.304  -3.771  -1.486  0.00  0.00    +0.046 A 
ATOM     16  C   UNL     1       7.464  -3.120  -1.113  0.00  0.00    +0.004 A 
ATOM     17  C   UNL     1       7.796  -1.909  -1.693  0.00  0.00    +0.001 A 
ATOM     18  C   UNL     1       6.969  -1.348  -2.648  0.00  0.00    +0.009 A 
ATOM     19  C   UNL     1       5.810  -1.997  -3.028  0.00  0.00    +0.019 A 
BRANCH  14  20
ATOM     20  O   UNL     1       4.330  -3.847  -2.812  0.00  0.00    -0.487 OA
BRANCH  20  21
ATOM     21  C   UNL     1       4.049  -5.094  -2.173  0.00  0.00    +0.264 C 
BRANCH  21  25
ATOM     22  C   UNL     1       0.376  -6.669  -3.681  0.00  0.00    +0.000 A 
ATOM     23  C   UNL     1       0.369  -5.838  -2.577  0.00  0.00    +0.000 A 
ATOM     24  C   UNL     1       1.558  -5.328  -2.089  0.00  0.00    +0.007 A 
ATOM     25  C   UNL     1       2.753  -5.650  -2.705  0.00  0.00    -0.010 A 
ATOM     26  C   UNL     1       2.759  -6.481  -3.809  0.00  0.00    +0.007 A 
ATOM     27  C   UNL     1       1.570  -6.991  -4.297  0.00  0.00    +0.000 A 
ENDBRANCH  21  25
ENDBRANCH  20  21
ENDBRANCH  14  20
ENDBRANCH   1  19
BRANCH   1  28
ATOM     28  N   UNL     1       5.083  -2.100  -5.341  0.00  0.00    -0.319 N 
ATOM     29  H   UNL     1       5.914  -2.564  -5.528  0.00  0.00    +0.148 HD
BRANCH  28  30
ATOM     30  C   UNL     1       4.054  -2.113  -6.276  0.00  0.00    +0.097 A 
ATOM     31  C   UNL     1       2.908  -1.358  -6.050  0.00  0.00    +0.041 A 
ATOM     32  C   UNL     1       1.895  -1.375  -6.991  0.00  0.00    +0.005 A 
ATOM     33  C   UNL     1       2.058  -2.159  -8.126  0.00  0.00    +0.018 A 
ATOM     34  C   UNL     1       3.219  -2.888  -8.283  0.00  0.00    +0.084 A 
ATOM     35  N   UNL     1       4.238  -2.890  -7.382  0.00  0.00    -0.350 N 
ATOM     36  H   UNL     1       5.091  -3.442  -7.525  0.00  0.00    +0.166 HD
ENDBRANCH  28  30
ENDBRANCH   1  28
TORSDOF 8
