REMARK  Name = ZINC40982074
REMARK  10 active torsions:
REMARK  status: ('A' for Active; 'I' for Inactive)
REMARK    1  A    between atoms: C_1  and  C_2
REMARK    2  A    between atoms: C_2  and  C_3
REMARK    3  A    between atoms: C_3  and  S_4
REMARK    4  A    between atoms: S_4  and  C_5
REMARK    5  A    between atoms: C_10  and  C_19
REMARK    6  A    between atoms: C_12  and  C_16
REMARK    7  A    between atoms: C_13  and  C_15
REMARK    8  A    between atoms: C_23  and  O_25
REMARK    9  A    between atoms: O_25  and  C_26
REMARK   10  A    between atoms: C_26  and  C_27
REMARK                            x       y       z     vdW  Elec       q    Type
REMARK                         _______ _______ _______ _____ _____    ______ ____
ROOT
ATOM      1  C   UNL     1       1.265  -2.758   2.961  0.00  0.00    +0.210 A 
ATOM      2  N   UNL     1       1.812  -1.887   3.822  0.00  0.00    -0.187 NA
ATOM      3  C   UNL     1       2.558  -2.531   4.678  0.00  0.00    +0.219 A 
ATOM      4  N   UNL     1       2.506  -3.851   4.374  0.00  0.00    -0.220 N 
ATOM      5  N   UNL     1       1.662  -3.974   3.271  0.00  0.00    -0.141 NA
ATOM      6  C   UNL     1       3.230  -4.880   5.115  0.00  0.00    +0.177 C 
ATOM      7  C   UNL     1       3.764  -4.294   6.395  0.00  0.00    +0.060 C 
ATOM      8  C   UNL     1       3.787  -2.976   6.643  0.00  0.00    +0.018 C 
ATOM      9  N   UNL     1       3.308  -2.054   5.744  0.00  0.00    -0.287 N 
ATOM     10  C   UNL     1       4.356  -2.491   7.951  0.00  0.00    +0.061 C 
ATOM     11  H   UNL     1       3.488  -1.107   5.851  0.00  0.00    +0.155 HD
ENDROOT
BRANCH   6  12
ATOM     12  C   UNL     1       4.375  -5.391   4.279  0.00  0.00    -0.015 A 
ATOM     13  C   UNL     1       5.368  -4.523   3.865  0.00  0.00    +0.006 A 
ATOM     14  C   UNL     1       6.420  -4.988   3.098  0.00  0.00    +0.004 A 
ATOM     15  C   UNL     1       6.481  -6.322   2.743  0.00  0.00    +0.045 A 
ATOM     16  C   UNL     1       5.485  -7.194   3.157  0.00  0.00    +0.121 A 
ATOM     17  C   UNL     1       4.434  -6.726   3.932  0.00  0.00    +0.051 A 
BRANCH  16  18
ATOM     18  O   UNL     1       5.543  -8.507   2.809  0.00  0.00    -0.487 OA
BRANCH  18  19
ATOM     19  C   UNL     1       6.657  -8.919   2.015  0.00  0.00    +0.266 C 
BRANCH  19  20
ATOM     20  C   UNL     1       6.551 -10.395   1.730  0.00  0.00    +0.008 A 
ATOM     21  C   UNL     1       5.480 -11.119   2.219  0.00  0.00    +0.008 A 
ATOM     22  C   UNL     1       5.383 -12.473   1.958  0.00  0.00    +0.000 A 
ATOM     23  C   UNL     1       6.357 -13.104   1.206  0.00  0.00    +0.001 A 
ATOM     24  C   UNL     1       7.428 -12.381   0.716  0.00  0.00    +0.020 A 
ATOM     25  C   UNL     1       7.523 -11.025   0.973  0.00  0.00    +0.047 A 
ATOM     26 CL   UNL     1       8.865 -10.115   0.352  0.00  0.00    -0.083 Cl
ENDBRANCH  19  20
ENDBRANCH  18  19
ENDBRANCH  16  18
ENDBRANCH   6  12
BRANCH   7  27
ATOM     27  C   UNL     1       4.267  -5.174   7.382  0.00  0.00    +0.241 C 
ATOM     28  O   UNL     1       3.498  -5.839   8.053  0.00  0.00    -0.271 OA
ATOM     29  N   UNL     1       5.596  -5.277   7.579  0.00  0.00    -0.325 N 
ATOM     30  H   UNL     1       6.208  -4.748   7.045  0.00  0.00    +0.145 HD
ATOM     31  H   UNL     1       5.941  -5.881   8.256  0.00  0.00    +0.145 HD
ENDBRANCH   7  27
BRANCH   1  32
ATOM     32  S   UNL     1       0.183  -2.343   1.634  0.00  0.00    -0.084 S 
BRANCH  32  33
ATOM     33  C   UNL     1       0.032  -0.538   1.739  0.00  0.00    +0.077 C 
BRANCH  33  35
ATOM     34  C   UNL     1      -1.020   1.484   0.717  0.00  0.00    +0.004 C 
ATOM     35  C   UNL     1      -0.893  -0.038   0.628  0.00  0.00    +0.008 C 
ENDBRANCH  33  35
ENDBRANCH  32  33
ENDBRANCH   1  32
TORSDOF 8
