REMARK  Name = ZINC05545780
REMARK  6 active torsions:
REMARK  status: ('A' for Active; 'I' for Inactive)
REMARK    1  A    between atoms: C_18  and  C_21
REMARK    2  A    between atoms: C_21  and  N_30
REMARK    3  A    between atoms: C_22  and  C_23
REMARK    4  A    between atoms: C_24  and  C_25
REMARK    5  A    between atoms: C_31  and  C_33
REMARK    6  A    between atoms: C_36  and  N_39
REMARK                            x       y       z     vdW  Elec       q    Type
REMARK                         _______ _______ _______ _____ _____    ______ ____
ROOT
ATOM      1  C   UNL     1      -1.213   2.197   0.016  0.00  0.00    +0.076 C 
ATOM      2  C   UNL     1      -2.450   1.596  -0.008  0.00  0.00    +0.027 C 
ENDROOT
BRANCH   1  20
ATOM      3  C   UNL     1       8.561   1.749   0.130  0.00  0.00    +0.001 A 
ATOM      4  C   UNL     1       7.935   2.983   0.132  0.00  0.00    +0.001 A 
ATOM      5  C   UNL     1       6.555   3.069   0.116  0.00  0.00    +0.012 A 
ATOM      6  C   UNL     1       5.788   1.907   0.098  0.00  0.00    +0.033 A 
ATOM      7  C   UNL     1       6.424   0.653   0.097  0.00  0.00    +0.033 A 
ATOM      8  C   UNL     1       7.815   0.585   0.113  0.00  0.00    +0.012 A 
ATOM      9  C   UNL     1       5.616  -0.584   0.078  0.00  0.00    +0.195 C 
ATOM     10  O   UNL     1       6.165  -1.669   0.077  0.00  0.00    -0.287 OA
ATOM     11  C   UNL     1       4.144  -0.500   0.062  0.00  0.00    +0.035 A 
ATOM     12  C   UNL     1       3.377  -1.666   0.045  0.00  0.00    +0.014 A 
ATOM     13  C   UNL     1       1.998  -1.600   0.029  0.00  0.00    +0.028 A 
ATOM     14  C   UNL     1       1.353  -0.373   0.031  0.00  0.00    +0.067 A 
ATOM     15  C   UNL     1       2.103   0.826   0.048  0.00  0.00    +0.101 A 
ATOM     16  C   UNL     1       3.512   0.758   0.063  0.00  0.00    +0.060 A 
ATOM     17  C   UNL     1       4.313   1.988   0.081  0.00  0.00    +0.197 C 
ATOM     18  O   UNL     1       3.762   3.073   0.083  0.00  0.00    -0.287 OA
ATOM     19  N   UNL     1       1.233   1.845   0.046  0.00  0.00    -0.226 NA
ATOM     20  C   UNL     1      -0.001   1.378   0.029  0.00  0.00    +0.154 A 
ATOM     21  N   UNL     1       0.026   0.004   0.019  0.00  0.00    -0.337 N 
ATOM     22  H   UNL     1      -0.765  -0.606   0.006  0.00  0.00    +0.167 HD
ENDBRANCH   1  20
BRANCH   1  23
ATOM     23  N   UNL     1      -1.114   3.589   0.027  0.00  0.00    -0.279 N 
ATOM     24  C   UNL     1      -0.478   4.211   1.040  0.00  0.00    +0.248 C 
ATOM     25  O   UNL     1       0.084   3.558   1.898  0.00  0.00    -0.270 OA
ATOM     26  H   UNL     1      -1.503   4.109  -0.693  0.00  0.00    +0.155 HD
BRANCH  24  27
ATOM     27  C   UNL     1      -0.462   5.684   1.106  0.00  0.00    +0.037 A 
ATOM     28  C   UNL     1      -1.102   6.437   0.117  0.00  0.00    +0.015 A 
ATOM     29  C   UNL     1      -1.091   7.812   0.185  0.00  0.00    +0.023 A 
ATOM     30  C   UNL     1      -0.432   8.453   1.232  0.00  0.00    +0.025 A 
ATOM     31  C   UNL     1       0.210   7.706   2.215  0.00  0.00    +0.023 A 
ATOM     32  C   UNL     1       0.197   6.331   2.156  0.00  0.00    +0.015 A 
BRANCH  30  33
ATOM     33  N   UNL     1      -0.418   9.842   1.294  0.00  0.00    -0.358 N 
ATOM     34  H   UNL     1       0.040  10.289   2.023  0.00  0.00    +0.142 HD
ATOM     35  H   UNL     1      -0.865  10.363   0.610  0.00  0.00    +0.142 HD
ENDBRANCH  30  33
ENDBRANCH  24  27
ENDBRANCH   1  23
BRANCH   2  36
ATOM     36  C   UNL     1      -3.610   2.379  -0.128  0.00  0.00    +0.006 C 
ATOM     37  C   UNL     1      -4.825   1.781  -0.254  0.00  0.00    +0.046 C 
BRANCH  37  38
ATOM     38  C   UNL     1      -5.994   2.570  -0.374  0.00  0.00    +0.128 A 
ATOM     39  C   UNL     1      -7.284   2.098  -0.514  0.00  0.00    +0.049 A 
ATOM     40  C   UNL     1      -8.115   3.226  -0.593  0.00  0.00    +0.042 A 
ATOM     41  C   UNL     1      -7.321   4.316  -0.511  0.00  0.00    +0.195 A 
ATOM     42  O   UNL     1      -6.045   3.918  -0.379  0.00  0.00    -0.464 OA
ENDBRANCH  37  38
ENDBRANCH   2  36
TORSDOF 6
