REMARK  Name = ZINC39653283
REMARK  10 active torsions:
REMARK  status: ('A' for Active; 'I' for Inactive)
REMARK    1  A    between atoms: C_1  and  C_2
REMARK    2  A    between atoms: C_2  and  O_3
REMARK    3  A    between atoms: O_3  and  C_4
REMARK    4  A    between atoms: C_6  and  C_12
REMARK    5  A    between atoms: C_9  and  O_10
REMARK    6  A    between atoms: O_10  and  C_11
REMARK    7  A    between atoms: C_12  and  C_13
REMARK    8  A    between atoms: C_13  and  N_14
REMARK    9  A    between atoms: C_15  and  C_17
REMARK   10  A    between atoms: C_28  and  C_30
REMARK                            x       y       z     vdW  Elec       q    Type
REMARK                         _______ _______ _______ _____ _____    ______ ____
ROOT
ATOM      1  C   UNL     1       4.499  -7.848   2.299  0.00  0.00    +0.100 C 
ATOM      2  C   UNL     1       5.473  -6.880   1.591  0.00  0.00    +0.121 C 
ATOM      3  N   UNL     1       6.208  -6.216   2.692  0.00  0.00    -0.296 N 
ATOM      4  C   UNL     1       6.442  -7.295   3.682  0.00  0.00    +0.115 C 
ATOM      5  C   UNL     1       5.140  -8.121   3.670  0.00  0.00    -0.004 C 
ATOM      6  C   UNL     1       4.212  -7.657   4.788  0.00  0.00    -0.010 C 
ATOM      7  C   UNL     1       4.846  -7.990   6.142  0.00  0.00    -0.082 C 
ATOM      8  N   UNL     1       5.073  -9.438   6.235  0.00  0.00    +0.379 N 
ATOM      9  C   UNL     1       6.038  -9.860   5.213  0.00  0.00    -0.082 C 
ATOM     10  C   UNL     1       5.455  -9.606   3.821  0.00  0.00    -0.010 C 
ATOM     11  C   UNL     1       6.581  -4.924   2.776  0.00  0.00    +0.247 C 
ATOM     12  O   UNL     1       6.205  -4.128   1.938  0.00  0.00    -0.270 OA
ATOM     13  H   UNL     1       5.434  -9.662   7.150  0.00  0.00    -0.086 HD
ATOM     14  H   UNL     1       4.200  -9.923   6.093  0.00  0.00    -0.086 HD
ENDROOT
BRANCH  11  15
ATOM     15  C   UNL     1       7.446  -4.474   3.887  0.00  0.00    +0.037 A 
ATOM     16  C   UNL     1       8.226  -5.398   4.586  0.00  0.00    +0.014 A 
ATOM     17  C   UNL     1       9.031  -4.972   5.621  0.00  0.00    +0.021 A 
ATOM     18  C   UNL     1       9.067  -3.632   5.968  0.00  0.00    +0.041 A 
ATOM     19  C   UNL     1       8.295  -2.711   5.279  0.00  0.00    +0.021 A 
ATOM     20  C   UNL     1       7.490  -3.124   4.238  0.00  0.00    +0.014 A 
ATOM     21 CL   UNL     1      10.082  -3.104   7.274  0.00  0.00    -0.084 Cl
ENDBRANCH  11  15
BRANCH   1  23
ATOM     22  N   UNL     1       2.048  -7.967   2.609  0.00  0.00    -0.315 N 
ATOM     23  C   UNL     1       3.148  -7.202   2.470  0.00  0.00    +0.218 C 
ATOM     24  O   UNL     1       3.052  -5.993   2.483  0.00  0.00    -0.275 OA
ATOM     25  H   UNL     1       2.124  -8.934   2.599  0.00  0.00    +0.149 HD
BRANCH  22  26
ATOM     26  C   UNL     1       0.735  -7.338   2.776  0.00  0.00    +0.109 C 
BRANCH  26  27
ATOM     27  C   UNL     1      -0.336  -8.422   2.911  0.00  0.00    +0.054 C 
BRANCH  27  30
ATOM     28  C   UNL     1      -3.697  -6.884   2.128  0.00  0.00    +0.162 A 
ATOM     29  C   UNL     1      -2.455  -7.479   1.972  0.00  0.00    +0.053 A 
ATOM     30  C   UNL     1      -1.687  -7.775   3.082  0.00  0.00    -0.042 A 
ATOM     31  C   UNL     1      -2.154  -7.480   4.349  0.00  0.00    +0.007 A 
ATOM     32  C   UNL     1      -3.393  -6.887   4.512  0.00  0.00    +0.049 A 
ATOM     33  C   UNL     1      -4.165  -6.582   3.403  0.00  0.00    +0.162 A 
BRANCH  33  34
ATOM     34  O   UNL     1      -5.381  -5.993   3.561  0.00  0.00    -0.491 OA
ATOM     35  C   UNL     1      -5.797  -5.712   4.899  0.00  0.00    +0.277 C 
ENDBRANCH  33  34
BRANCH  28  36
ATOM     36  O   UNL     1      -4.454  -6.591   1.037  0.00  0.00    -0.489 OA
BRANCH  36  38
ATOM     37  C   UNL     1      -4.897  -6.528  -1.338  0.00  0.00    +0.048 C 
ATOM     38  C   UNL     1      -3.910  -6.930  -0.240  0.00  0.00    +0.226 C 
ENDBRANCH  36  38
ENDBRANCH  28  36
ENDBRANCH  27  30
ENDBRANCH  26  27
ENDBRANCH  22  26
ENDBRANCH   1  23
TORSDOF 8
