REMARK  Name = ZINC01823919
REMARK  2 active torsions:
REMARK  status: ('A' for Active; 'I' for Inactive)
REMARK    1  A    between atoms: C_4  and  C_7
REMARK    2  A    between atoms: C_9  and  C_31
REMARK                            x       y       z     vdW  Elec       q    Type
REMARK                         _______ _______ _______ _____ _____    ______ ____
ROOT
ATOM      1  C   UNL     1       3.698  -0.687  -0.038  0.00  0.00    +0.077 A 
ATOM      2  C   UNL     1       3.717  -2.093  -0.052  0.00  0.00    +0.057 A 
ATOM      3  C   UNL     1       4.924  -2.740  -0.068  0.00  0.00    +0.078 A 
ATOM      4  N   UNL     1       6.074  -1.996  -0.070  0.00  0.00    -0.194 N 
ATOM      5  C   UNL     1       6.013  -0.630  -0.056  0.00  0.00    +0.255 A 
ATOM      6  N   UNL     1       4.832  -0.005  -0.046  0.00  0.00    -0.211 NA
ATOM      7  N   UNL     1       7.263  -0.179  -0.062  0.00  0.00    -0.175 NA
ATOM      8  C   UNL     1       8.111  -1.204  -0.079  0.00  0.00    +0.253 A 
ATOM      9  N   UNL     1       7.433  -2.334  -0.084  0.00  0.00    -0.126 NA
ATOM     10  N   UNL     1       9.505  -1.099  -0.090  0.00  0.00    -0.168 N 
ATOM     11  C   UNL     1      10.347  -2.148  -0.113  0.00  0.00    +0.262 C 
ATOM     12  O   UNL     1      10.021  -3.318  -0.127  0.00  0.00    -0.269 OA
ATOM     13  C   UNL     1      11.733  -1.639  -0.118  0.00  0.00    +0.071 A 
ATOM     14  C   UNL     1      11.627  -0.232  -0.097  0.00  0.00    +0.071 A 
ATOM     15  C   UNL     1      12.774   0.546  -0.096  0.00  0.00    +0.074 A 
ATOM     16  C   UNL     1      14.022  -0.066  -0.117  0.00  0.00    +0.080 A 
ATOM     17  C   UNL     1      14.126  -1.445  -0.138  0.00  0.00    +0.080 A 
ATOM     18  C   UNL     1      12.983  -2.237  -0.138  0.00  0.00    +0.074 A 
ATOM     19 CL   UNL     1      13.123  -3.967  -0.164  0.00  0.00    -0.081 Cl
ATOM     20 CL   UNL     1      15.693  -2.191  -0.163  0.00  0.00    -0.080 Cl
ATOM     21 CL   UNL     1      15.460   0.907  -0.116  0.00  0.00    -0.080 Cl
ATOM     22 CL   UNL     1      12.653   2.278  -0.071  0.00  0.00    -0.081 Cl
ATOM     23  C   UNL     1      10.181   0.064  -0.084  0.00  0.00    +0.262 C 
ATOM     24  O   UNL     1       9.684   1.172  -0.069  0.00  0.00    -0.269 OA
ENDROOT
BRANCH   1  28
ATOM     25  C   UNL     1      -0.017   1.379   0.010  0.00  0.00    +0.000 A 
ATOM     26  C   UNL     1       1.169   2.093   0.002  0.00  0.00    +0.001 A 
ATOM     27  C   UNL     1       2.377   1.427  -0.013  0.00  0.00    +0.010 A 
ATOM     28  C   UNL     1       2.403   0.033  -0.021  0.00  0.00    +0.001 A 
ATOM     29  C   UNL     1       1.205  -0.680  -0.013  0.00  0.00    +0.010 A 
ATOM     30  C   UNL     1       0.002  -0.004   0.002  0.00  0.00    +0.001 A 
ENDBRANCH   1  28
BRANCH   3  31
ATOM     31  C   UNL     1       4.985  -4.216  -0.082  0.00  0.00    +0.001 A 
ATOM     32  C   UNL     1       5.527  -4.906   1.004  0.00  0.00    +0.010 A 
ATOM     33  C   UNL     1       5.581  -6.285   0.984  0.00  0.00    +0.001 A 
ATOM     34  C   UNL     1       5.099  -6.983  -0.108  0.00  0.00    +0.000 A 
ATOM     35  C   UNL     1       4.560  -6.306  -1.188  0.00  0.00    +0.001 A 
ATOM     36  C   UNL     1       4.495  -4.928  -1.179  0.00  0.00    +0.010 A 
ENDBRANCH   3  31
TORSDOF 2
