REMARK  Name = ZINC15767482
REMARK  5 active torsions:
REMARK  status: ('A' for Active; 'I' for Inactive)
REMARK    1  A    between atoms: C_3  and  C_6
REMARK    2  A    between atoms: N_7  and  N_8
REMARK    3  A    between atoms: C_12  and  C_15
REMARK    4  A    between atoms: C_15  and  C_16
REMARK    5  A    between atoms: N_18  and  C_19
REMARK                            x       y       z     vdW  Elec       q    Type
REMARK                         _______ _______ _______ _____ _____    ______ ____
ROOT
ATOM      1  N   UNL     1       6.089   1.427  -0.070  0.00  0.00    -0.127 NA
ATOM      2  C   UNL     1       7.081   0.563  -0.081  0.00  0.00    +0.183 C 
ATOM      3  N   UNL     1       8.437   0.822  -0.089  0.00  0.00    -0.263 N 
ATOM      4  C   UNL     1       9.342  -0.141  -0.101  0.00  0.00    +0.233 C 
ATOM      5  C   UNL     1       8.799  -1.561  -0.105  0.00  0.00    +0.149 C 
ATOM      6  S   UNL     1       6.990  -1.221  -0.083  0.00  0.00    -0.075 S 
ATOM      7  O   UNL     1      10.532   0.093  -0.108  0.00  0.00    -0.274 OA
ATOM      8  H   UNL     1       8.736   1.744  -0.086  0.00  0.00    +0.157 HD
ENDROOT
BRANCH   1  10
ATOM      9  C   UNL     1       3.778   1.832  -0.045  0.00  0.00    +0.150 C 
ATOM     10  N   UNL     1       4.764   0.972  -0.057  0.00  0.00    -0.154 NA
BRANCH   9  13
ATOM     11  C   UNL     1       0.024   1.409  -0.007  0.00  0.00    +0.008 A 
ATOM     12  C   UNL     1       1.218   2.091  -0.018  0.00  0.00    +0.017 A 
ATOM     13  C   UNL     1       2.394   1.357  -0.032  0.00  0.00    +0.032 A 
ATOM     14  S   UNL     1       1.779  -0.319  -0.028  0.00  0.00    -0.096 S 
ATOM     15  C   UNL     1       0.033   0.050  -0.010  0.00  0.00    +0.046 A 
ENDBRANCH   9  13
ENDBRANCH   1  10
BRANCH   5  16
ATOM     16  C   UNL     1       9.231  -2.324   1.149  0.00  0.00    +0.120 C 
BRANCH  16  17
ATOM     17  C   UNL     1       8.777  -3.757   1.047  0.00  0.00    +0.219 C 
ATOM     18  O   UNL     1       8.167  -4.132   0.067  0.00  0.00    -0.275 OA
ATOM     19  N   UNL     1       9.047  -4.623   2.044  0.00  0.00    -0.284 N 
ATOM     20  H   UNL     1       9.590  -4.341   2.796  0.00  0.00    +0.155 HD
BRANCH  19  21
ATOM     21  C   UNL     1       8.545  -5.929   1.993  0.00  0.00    +0.052 A 
ATOM     22  C   UNL     1       8.425  -6.581   0.773  0.00  0.00    +0.026 A 
ATOM     23  C   UNL     1       7.929  -7.869   0.725  0.00  0.00    +0.022 A 
ATOM     24  C   UNL     1       7.552  -8.511   1.891  0.00  0.00    +0.042 A 
ATOM     25  C   UNL     1       7.670  -7.864   3.109  0.00  0.00    +0.041 A 
ATOM     26  C   UNL     1       8.171  -6.577   3.163  0.00  0.00    +0.064 A 
ATOM     27 CL   UNL     1       8.326  -5.769   4.692  0.00  0.00    -0.082 Cl
ATOM     28 CL   UNL     1       6.928 -10.129   1.827  0.00  0.00    -0.083 Cl
ENDBRANCH  19  21
ENDBRANCH  16  17
ENDBRANCH   5  16
TORSDOF 5
