REMARK  Name = ZINC39530904
REMARK  10 active torsions:
REMARK  status: ('A' for Active; 'I' for Inactive)
REMARK    1  A    between atoms: C_1  and  C_2
REMARK    2  A    between atoms: C_2  and  C_3
REMARK    3  A    between atoms: C_2  and  S_4
REMARK    4  A    between atoms: S_4  and  C_7
REMARK    5  A    between atoms: C_9  and  S_27
REMARK    6  A    between atoms: C_12  and  N_13
REMARK    7  A    between atoms: C_17  and  C_20
REMARK    8  A    between atoms: C_25  and  O_26
REMARK    9  A    between atoms: S_27  and  O_30
REMARK   10  A    between atoms: O_30  and  C_31
REMARK                            x       y       z     vdW  Elec       q    Type
REMARK                         _______ _______ _______ _____ _____    ______ ____
ROOT
ATOM      1  C   UNL     1       2.321   0.081  -1.228  0.00  0.00    +0.111 A 
ATOM      2  C   UNL     1       3.473  -0.680  -1.216  0.00  0.00    +0.059 A 
ATOM      3  C   UNL     1       4.705  -0.070  -1.067  0.00  0.00    +0.130 A 
ATOM      4  C   UNL     1       4.788   1.304  -0.930  0.00  0.00    +0.032 A 
ATOM      5  C   UNL     1       3.640   2.071  -0.942  0.00  0.00    +0.027 A 
ATOM      6  C   UNL     1       2.401   1.462  -1.097  0.00  0.00    +0.055 A 
ENDROOT
BRANCH   6   7
ATOM      7  N   UNL     1       1.238   2.235  -1.115  0.00  0.00    -0.331 N 
ATOM      8  C   UNL     1       0.449   2.444   0.109  0.00  0.00    +0.086 C 
ATOM      9  C   UNL     1       0.192   3.945   0.272  0.00  0.00    -0.063 C 
ATOM     10  N   UNL     1      -0.434   4.469  -0.949  0.00  0.00    +0.386 N 
ATOM     11  C   UNL     1       0.496   4.347  -2.079  0.00  0.00    -0.020 C 
ATOM     12  C   UNL     1       0.771   2.870  -2.357  0.00  0.00    +0.094 C 
ATOM     13  H   UNL     1      -1.273   3.944  -1.147  0.00  0.00    -0.085 HD
ATOM     14  H   UNL     1      -0.672   5.440  -0.814  0.00  0.00    -0.085 HD
BRANCH  11  15
ATOM     15  C   UNL     1      -0.113   4.986  -3.301  0.00  0.00    -0.018 A 
ATOM     16  C   UNL     1      -1.477   5.193  -3.366  0.00  0.00    +0.005 A 
ATOM     17  C   UNL     1      -2.036   5.778  -4.487  0.00  0.00    +0.000 A 
ATOM     18  C   UNL     1      -1.231   6.157  -5.546  0.00  0.00    +0.004 A 
ATOM     19  C   UNL     1       0.133   5.953  -5.486  0.00  0.00    +0.045 A 
ATOM     20  C   UNL     1       0.697   5.370  -4.360  0.00  0.00    +0.118 A 
BRANCH  20  21
ATOM     21  O   UNL     1       2.040   5.173  -4.296  0.00  0.00    -0.507 OA
ATOM     22  H   UNL     1       2.329   4.318  -4.644  0.00  0.00    +0.292 HD
ENDBRANCH  20  21
ENDBRANCH  11  15
ENDBRANCH   6   7
BRANCH   1  23
ATOM     23  S   UNL     1       0.751  -0.697  -1.418  0.00  0.00    +0.001 S 
ATOM     24  O   UNL     1      -0.080  -0.078  -0.446  0.00  0.00    -0.169 OA
ATOM     25  O   UNL     1       1.027  -2.089  -1.354  0.00  0.00    -0.169 OA
BRANCH  23  27
ATOM     26  C   UNL     1       1.187  -0.808  -4.116  0.00  0.00    +0.032 C 
ATOM     27  C   UNL     1       0.205  -0.244  -3.087  0.00  0.00    +0.130 C 
ATOM     28  C   UNL     1      -1.189  -0.822  -3.342  0.00  0.00    +0.032 C 
ENDBRANCH  23  27
ENDBRANCH   1  23
BRANCH   3  29
ATOM     29  S   UNL     1       6.172  -1.046  -1.050  0.00  0.00    +0.151 S 
ATOM     30  O   UNL     1       7.153  -0.291  -0.351  0.00  0.00    -0.131 OA
ATOM     31  O   UNL     1       5.787  -2.353  -0.647  0.00  0.00    -0.131 OA
BRANCH  29  32
ATOM     32  O   UNL     1       6.654  -1.158  -2.489  0.00  0.00    -0.342 OA
BRANCH  32  33
ATOM     33  C   UNL     1       7.238  -0.028  -2.967  0.00  0.00    +0.157 A 
ATOM     34  C   UNL     1       6.468   0.941  -3.594  0.00  0.00    +0.048 A 
ATOM     35  C   UNL     1       7.065   2.089  -4.077  0.00  0.00    +0.004 A 
ATOM     36  C   UNL     1       8.428   2.273  -3.938  0.00  0.00    +0.000 A 
ATOM     37  C   UNL     1       9.198   1.309  -3.314  0.00  0.00    +0.004 A 
ATOM     38  C   UNL     1       8.605   0.162  -2.823  0.00  0.00    +0.048 A 
ENDBRANCH  32  33
ENDBRANCH  29  32
ENDBRANCH   3  29
TORSDOF 8
