REMARK  Name = ZINC22518071
REMARK  10 active torsions:
REMARK  status: ('A' for Active; 'I' for Inactive)
REMARK    1  A    between atoms: C_1  and  C_2
REMARK    2  A    between atoms: C_3  and  C_7
REMARK    3  A    between atoms: C_10  and  S_13
REMARK    4  A    between atoms: N_11  and  N_12
REMARK    5  A    between atoms: S_13  and  C_14
REMARK    6  A    between atoms: C_14  and  C_16
REMARK    7  A    between atoms: C_14  and  C_17
REMARK    8  A    between atoms: N_19  and  C_20
REMARK    9  A    between atoms: C_20  and  C_22
REMARK   10  A    between atoms: C_20  and  C_23
REMARK                            x       y       z     vdW  Elec       q    Type
REMARK                         _______ _______ _______ _____ _____    ______ ____
ROOT
ATOM      1  C   UNL     1       0.284   5.237   1.770  0.00  0.00    +0.137 C 
ATOM      2  C   UNL     1       0.637   5.759   0.376  0.00  0.00    +0.029 C 
ENDROOT
BRANCH   1   3
ATOM      3  C   UNL     1       0.305   3.730   1.762  0.00  0.00    +0.227 C 
ATOM      4  O   UNL     1       1.269   3.134   2.193  0.00  0.00    -0.275 OA
ATOM      5  N   UNL     1      -0.749   3.044   1.275  0.00  0.00    -0.308 N 
ATOM      6  H   UNL     1      -1.623   3.584   0.884  0.00  0.00    +0.149 HD
BRANCH   5   7
ATOM      7  C   UNL     1      -0.729   1.579   1.267  0.00  0.00    +0.102 C 
ATOM      8  C   UNL     1      -0.013   1.086   0.008  0.00  0.00    +0.033 C 
BRANCH   7   9
ATOM      9  C   UNL     1      -2.143   1.058   1.278  0.00  0.00    -0.009 A 
ATOM     10  C   UNL     1      -3.172   1.841   0.791  0.00  0.00    +0.008 A 
ATOM     11  C   UNL     1      -4.468   1.361   0.795  0.00  0.00    +0.020 A 
ATOM     12  C   UNL     1      -4.738   0.100   1.297  0.00  0.00    +0.042 A 
ATOM     13  C   UNL     1      -3.709  -0.682   1.789  0.00  0.00    +0.040 A 
ATOM     14  C   UNL     1      -2.411  -0.203   1.780  0.00  0.00    +0.047 A 
ATOM     15 CL   UNL     1      -1.119  -1.184   2.398  0.00  0.00    -0.083 Cl
ATOM     16 CL   UNL     1      -6.367  -0.500   1.308  0.00  0.00    -0.083 Cl
ENDBRANCH   7   9
ENDBRANCH   5   7
ENDBRANCH   1   3
BRANCH   1  17
ATOM     17  S   UNL     1       1.494   5.850   2.969  0.00  0.00    -0.072 S 
BRANCH  17  21
ATOM     18  C   UNL     1       1.198   9.739   3.202  0.00  0.00    +0.185 A 
ATOM     19  N   UNL     1       0.281   9.432   2.314  0.00  0.00    -0.127 NA
ATOM     20  N   UNL     1       0.262   8.161   2.124  0.00  0.00    -0.121 NA
ATOM     21  C   UNL     1       1.159   7.578   2.885  0.00  0.00    +0.209 A 
ATOM     22  N   UNL     1       1.789   8.561   3.595  0.00  0.00    -0.224 N 
BRANCH  18  25
ATOM     23  C   UNL     1      -0.147  12.421   2.293  0.00  0.00    +0.087 C 
ATOM     24  C   UNL     1       0.960  12.269   3.304  0.00  0.00    +0.112 A 
ATOM     25  C   UNL     1       1.532  11.096   3.687  0.00  0.00    +0.061 A 
ATOM     26  C   UNL     1       2.554  11.456   4.678  0.00  0.00    +0.053 A 
ATOM     27  C   UNL     1       2.498  12.793   4.799  0.00  0.00    +0.196 A 
ATOM     28  O   UNL     1       1.546  13.267   3.981  0.00  0.00    -0.467 OA
ENDBRANCH  18  25
BRANCH  22  29
ATOM     29  N   UNL     1       2.796   8.407   4.505  0.00  0.00    -0.295 N 
ATOM     30  H   UNL     1       3.183   7.402   4.732  0.00  0.00    +0.163 HD
ATOM     31  H   UNL     1       3.220   9.287   5.011  0.00  0.00    +0.163 HD
ENDBRANCH  22  29
ENDBRANCH  17  21
ENDBRANCH   1  17
TORSDOF 7
