REMARK  Name = ZINC33169513
REMARK  8 active torsions:
REMARK  status: ('A' for Active; 'I' for Inactive)
REMARK    1  A    between atoms: C_3  and  S_23
REMARK    2  A    between atoms: C_6  and  C_7
REMARK    3  A    between atoms: C_7  and  C_8
REMARK    4  A    between atoms: C_8  and  N_9
REMARK    5  A    between atoms: N_9  and  S_10
REMARK    6  A    between atoms: S_10  and  C_13
REMARK    7  A    between atoms: C_15  and  C_18
REMARK    8  A    between atoms: S_23  and  N_26
REMARK                            x       y       z     vdW  Elec       q    Type
REMARK                         _______ _______ _______ _____ _____    ______ ____
ROOT
ATOM      1  N   UNL     1      -1.385   5.790  -1.538  0.00  0.00    -0.189 NA
ATOM      2  H   UNL     1      -0.681   6.510  -1.981  0.00  0.00    +0.148 HD
ENDROOT
BRANCH   1   3
ATOM      3  S   UNL     1      -1.185   5.329   0.040  0.00  0.00    +0.065 S 
ATOM      4  O   UNL     1      -2.486   5.232   0.603  0.00  0.00    -0.153 OA
ATOM      5  O   UNL     1      -0.180   6.173   0.585  0.00  0.00    -0.153 OA
BRANCH   3   6
ATOM      6  C   UNL     1      -0.519   3.698   0.026  0.00  0.00    +0.143 A 
ATOM      7  C   UNL     1       0.776   3.312   0.012  0.00  0.00    +0.048 A 
ATOM      8  C   UNL     1       1.045   1.943   0.003  0.00  0.00    +0.029 A 
ATOM      9  C   UNL     1      -0.013   1.076   0.008  0.00  0.00    +0.058 A 
ATOM     10  S   UNL     1      -1.382   2.138   0.019  0.00  0.00    -0.076 S 
BRANCH   8  11
ATOM     11  C   UNL     1       2.434   1.443  -0.013  0.00  0.00    +0.168 A 
ATOM     12  C   UNL     1       2.839   0.135  -0.023  0.00  0.00    +0.072 A 
ATOM     13  C   UNL     1       4.245   0.215  -0.035  0.00  0.00    +0.157 A 
ATOM     14  N   UNL     1       4.545   1.484  -0.031  0.00  0.00    -0.086 NA
ATOM     15  O   UNL     1       3.559   2.182  -0.025  0.00  0.00    -0.355 OA
ENDBRANCH   8  11
ENDBRANCH   3   6
ENDBRANCH   1   3
BRANCH   1  16
ATOM     16  C   UNL     1      -2.345   5.085  -2.391  0.00  0.00    +0.110 C 
BRANCH  16  17
ATOM     17  C   UNL     1      -2.614   5.914  -3.649  0.00  0.00    +0.052 C 
BRANCH  17  23
ATOM     18  C   UNL     1      -3.153   4.306  -5.490  0.00  0.00    +0.005 A 
ATOM     19  C   UNL     1      -4.060   3.638  -6.291  0.00  0.00    +0.029 A 
ATOM     20  C   UNL     1      -5.415   3.860  -6.135  0.00  0.00    +0.105 A 
ATOM     21  C   UNL     1      -5.864   4.747  -5.175  0.00  0.00    +0.029 A 
ATOM     22  C   UNL     1      -4.958   5.412  -4.370  0.00  0.00    +0.005 A 
ATOM     23  C   UNL     1      -3.602   5.189  -4.526  0.00  0.00    -0.046 A 
BRANCH  20  24
ATOM     24  S   UNL     1      -6.571   3.012  -7.160  0.00  0.00    +0.056 S 
ATOM     25  O   UNL     1      -5.924   1.830  -7.610  0.00  0.00    -0.153 OA
ATOM     26  O   UNL     1      -7.801   2.983  -6.448  0.00  0.00    -0.153 OA
BRANCH  24  27
ATOM     27  N   UNL     1      -6.822   3.954  -8.499  0.00  0.00    -0.204 NA
ATOM     28  H   UNL     1      -7.540   3.457  -9.167  0.00  0.00    +0.144 HD
ATOM     29  H   UNL     1      -5.868   4.099  -9.028  0.00  0.00    +0.144 HD
ENDBRANCH  24  27
ENDBRANCH  20  24
ENDBRANCH  17  23
ENDBRANCH  16  17
ENDBRANCH   1  16
TORSDOF 8
