REMARK  Name = ZINC33909612
REMARK  8 active torsions:
REMARK  status: ('A' for Active; 'I' for Inactive)
REMARK    1  A    between atoms: C_1  and  N_2
REMARK    2  A    between atoms: C_13  and  C_15
REMARK    3  A    between atoms: C_16  and  C_17
REMARK    4  A    between atoms: C_16  and  N_23
REMARK    5  A    between atoms: N_19  and  C_20
REMARK    6  A    between atoms: C_20  and  C_21
REMARK    7  A    between atoms: C_21  and  O_22
REMARK    8  A    between atoms: C_24  and  C_26
REMARK                            x       y       z     vdW  Elec       q    Type
REMARK                         _______ _______ _______ _____ _____    ______ ____
ROOT
ATOM      1  C   UNK A   1      -0.037  -3.675   4.370  0.00  0.00    +0.036 C 
ATOM      2  C   UNK A   1       0.292  -3.339   5.641  0.00  0.00    +0.097 C 
ENDROOT
BRANCH   1  15
ATOM      3  C   UNK A   1      -1.303   0.630  -0.614  0.00  0.00    +0.149 C 
ATOM      4  N   UNK A   1      -0.513   0.462   0.609  0.00  0.00    -0.343 N 
ATOM      5  C   UNK A   1       0.358   1.407   1.122  0.00  0.00    +0.050 A 
ATOM      6  C   UNK A   1       0.722   2.679   0.690  0.00  0.00    +0.026 A 
ATOM      7  C   UNK A   1       1.633   3.418   1.412  0.00  0.00    +0.002 A 
ATOM      8  C   UNK A   1       2.196   2.907   2.571  0.00  0.00    +0.001 A 
ATOM      9  C   UNK A   1       1.848   1.650   3.015  0.00  0.00    +0.010 A 
ATOM     10  C   UNK A   1       0.928   0.892   2.296  0.00  0.00    +0.008 A 
ATOM     11  C   UNK A   1       0.350  -0.452   2.485  0.00  0.00    +0.008 A 
ATOM     12  C   UNK A   1      -0.537  -0.659   1.415  0.00  0.00    +0.050 A 
ATOM     13  C   UNK A   1      -1.244  -1.857   1.330  0.00  0.00    +0.027 A 
ATOM     14  C   UNK A   1      -1.082  -2.823   2.279  0.00  0.00    +0.010 A 
ATOM     15  C   UNK A   1      -0.203  -2.627   3.353  0.00  0.00    -0.022 A 
ATOM     16  C   UNK A   1       0.521  -1.436   3.450  0.00  0.00    +0.018 A 
ENDBRANCH   1  15
BRANCH   2  17
ATOM     17  C   UNK A   1       0.296  -1.929   6.050  0.00  0.00    +0.258 C 
ATOM     18  O   UNK A   1       1.346  -1.377   6.321  0.00  0.00    -0.269 OA
ATOM     19  N   UNK A   1      -0.864  -1.246   6.125  0.00  0.00    -0.308 N 
ATOM     20  H   UNK A   1      -1.706  -1.703   5.979  0.00  0.00    +0.149 HD
BRANCH  19  21
ATOM     21  C   UNK A   1      -0.851   0.188   6.427  0.00  0.00    +0.132 C 
BRANCH  21  22
ATOM     22  C   UNK A   1      -2.288   0.690   6.576  0.00  0.00    +0.174 C 
BRANCH  22  23
ATOM     23  O   UNK A   1      -2.892   0.075   7.716  0.00  0.00    -0.393 OA
ATOM     24  H   UNK A   1      -3.829   0.289   7.828  0.00  0.00    +0.209 HD
ENDBRANCH  22  23
ENDBRANCH  21  22
ENDBRANCH  19  21
ENDBRANCH   2  17
BRANCH   2  25
ATOM     25  N   UNK A   1       0.627  -4.337   6.563  0.00  0.00    -0.277 N 
ATOM     26  C   UNK A   0       1.002  -4.000   7.813  0.00  0.00    +0.248 C 
ATOM     27  O   UNK A   0       0.972  -2.836   8.164  0.00  0.00    -0.270 OA
ATOM     28  H   UNK A   1       0.590  -5.270   6.303  0.00  0.00    +0.155 HD
BRANCH  26  29
ATOM     29  C   UNK A   0       1.448  -5.045   8.758  0.00  0.00    +0.037 A 
ATOM     30  C   UNK A   0       1.489  -6.382   8.356  0.00  0.00    +0.013 A 
ATOM     31  C   UNK A   0       1.907  -7.353   9.242  0.00  0.00    +0.001 A 
ATOM     32  C   UNK A   0       2.286  -7.004  10.527  0.00  0.00    +0.000 A 
ATOM     33  C   UNK A   0       2.248  -5.681  10.931  0.00  0.00    +0.001 A 
ATOM     34  C   UNK A   0       1.837  -4.700  10.053  0.00  0.00    +0.013 A 
ENDBRANCH  26  29
ENDBRANCH   2  25
TORSDOF 7
