REMARK  Name = ZINC45347867
REMARK  6 active torsions:
REMARK  status: ('A' for Active; 'I' for Inactive)
REMARK    1  A    between atoms: C_4  and  C_7
REMARK    2  A    between atoms: C_7  and  C_9
REMARK    3  A    between atoms: C_7  and  N_12
REMARK    4  A    between atoms: N_15  and  N_16
REMARK    5  A    between atoms: C_17  and  C_19
REMARK    6  A    between atoms: C_19  and  C_20
REMARK                            x       y       z     vdW  Elec       q    Type
REMARK                         _______ _______ _______ _____ _____    ______ ____
ROOT
ATOM      1  N   UNL     1       3.630  -1.873   0.845  0.00  0.00    -0.291 N 
ATOM      2  C   UNL     1       4.751  -2.385   1.391  0.00  0.00    +0.316 C 
ATOM      3  O   UNL     1       5.830  -1.879   1.150  0.00  0.00    -0.251 OA
ATOM      4  N   UNL     1       4.677  -3.458   2.203  0.00  0.00    -0.218 N 
ATOM      5  H   UNL     1       2.769  -2.277   1.038  0.00  0.00    +0.151 HD
ATOM      6  H   UNL     1       5.484  -3.826   2.595  0.00  0.00    +0.174 HD
ENDROOT
BRANCH   4   7
ATOM      7  N   UNL     1       3.434  -4.041   2.480  0.00  0.00    -0.233 N 
ATOM      8  C   UNL     1       3.359  -5.114   3.293  0.00  0.00    +0.234 C 
ATOM      9  O   UNL     1       4.368  -5.575   3.783  0.00  0.00    -0.274 OA
ATOM     10  H   UNL     1       2.627  -3.673   2.088  0.00  0.00    +0.173 HD
BRANCH   8  11
ATOM     11  C   UNL     1       2.022  -5.742   3.591  0.00  0.00    +0.134 C 
BRANCH  11  12
ATOM     12  C   UNL     1       2.213  -6.915   4.517  0.00  0.00    -0.014 A 
ATOM     13  C   UNL     1       2.344  -8.203   4.158  0.00  0.00    +0.087 A 
ATOM     14  N   UNL     1       2.500  -8.983   5.271  0.00  0.00    -0.360 N 
ATOM     15  H   UNL     1       2.612  -9.947   5.264  0.00  0.00    +0.165 HD
ATOM     16  C   UNL     1       2.473  -8.198   6.402  0.00  0.00    +0.047 A 
ATOM     17  C   UNL     1       2.299  -6.867   5.979  0.00  0.00    +0.003 A 
ATOM     18  C   UNL     1       2.240  -5.839   6.921  0.00  0.00    +0.010 A 
ATOM     19  C   UNL     1       2.355  -6.130   8.251  0.00  0.00    +0.001 A 
ATOM     20  C   UNL     1       2.531  -7.441   8.673  0.00  0.00    +0.002 A 
ATOM     21  C   UNL     1       2.583  -8.472   7.761  0.00  0.00    +0.026 A 
ENDBRANCH  11  12
ENDBRANCH   8  11
ENDBRANCH   4   7
BRANCH   1  22
ATOM     22  C   UNL     1       3.711  -0.707  -0.038  0.00  0.00    +0.108 C 
BRANCH  22  26
ATOM     23  C   UNL     1      -0.017   1.378   0.010  0.00  0.00    +0.000 A 
ATOM     24  C   UNL     1       1.171   2.086   0.002  0.00  0.00    +0.000 A 
ATOM     25  C   UNL     1       2.377   1.411  -0.013  0.00  0.00    +0.005 A 
ATOM     26  C   UNL     1       2.396   0.029  -0.020  0.00  0.00    -0.027 A 
ATOM     27  C   UNL     1       1.208  -0.679  -0.012  0.00  0.00    +0.005 A 
ATOM     28  C   UNL     1       0.002  -0.004   0.002  0.00  0.00    +0.000 A 
ENDBRANCH  22  26
BRANCH  22  29
ATOM     29  C   UNL     1       4.019  -1.168  -1.464  0.00  0.00    +0.014 C 
ATOM     30  C   UNL     1       3.979  -2.671  -1.745  0.00  0.00    +0.006 C 
ATOM     31  C   UNL     1       5.321  -1.938  -1.692  0.00  0.00    +0.006 C 
ENDBRANCH  22  29
ENDBRANCH   1  22
TORSDOF 6
