REMARK  Name = ZINC39609846
REMARK  10 active torsions:
REMARK  status: ('A' for Active; 'I' for Inactive)
REMARK    1  A    between atoms: C_1  and  O_2
REMARK    2  A    between atoms: O_2  and  C_3
REMARK    3  A    between atoms: C_6  and  C_9
REMARK    4  A    between atoms: C_9  and  N_10
REMARK    5  A    between atoms: C_11  and  C_13
REMARK    6  A    between atoms: C_24  and  C_26
REMARK    7  A    between atoms: C_28  and  O_34
REMARK    8  A    between atoms: C_30  and  O_32
REMARK    9  A    between atoms: O_32  and  C_33
REMARK   10  A    between atoms: O_34  and  C_35
REMARK                            x       y       z     vdW  Elec       q    Type
REMARK                         _______ _______ _______ _____ _____    ______ ____
ROOT
ATOM      1  C   UNL     1      -7.338  -3.190  -2.624  0.00  0.00    +0.100 C 
ATOM      2  C   UNL     1      -7.524  -2.006  -3.599  0.00  0.00    +0.121 C 
ATOM      3  N   UNL     1      -8.675  -2.396  -4.446  0.00  0.00    -0.296 N 
ATOM      4  C   UNL     1      -9.617  -3.054  -3.509  0.00  0.00    +0.115 C 
ATOM      5  C   UNL     1      -8.713  -3.875  -2.567  0.00  0.00    -0.004 C 
ATOM      6  C   UNL     1      -9.264  -3.838  -1.145  0.00  0.00    -0.010 C 
ATOM      7  C   UNL     1     -10.605  -4.576  -1.102  0.00  0.00    -0.082 C 
ATOM      8  N   UNL     1     -10.416  -5.964  -1.539  0.00  0.00    +0.379 N 
ATOM      9  C   UNL     1      -9.975  -5.993  -2.939  0.00  0.00    -0.082 C 
ATOM     10  C   UNL     1      -8.607  -5.315  -3.059  0.00  0.00    -0.010 C 
ATOM     11  C   UNL     1      -8.831  -2.197  -5.770  0.00  0.00    +0.247 C 
ATOM     12  O   UNL     1      -7.911  -1.756  -6.431  0.00  0.00    -0.270 OA
ATOM     13  H   UNL     1      -9.718  -6.406  -0.959  0.00  0.00    -0.086 HD
ATOM     14  H   UNL     1     -11.288  -6.465  -1.452  0.00  0.00    -0.086 HD
ENDROOT
BRANCH  11  15
ATOM     15  C   UNL     1     -10.120  -2.518  -6.419  0.00  0.00    +0.044 A 
ATOM     16  C   UNL     1     -11.285  -2.603  -5.656  0.00  0.00    +0.059 A 
ATOM     17  C   UNL     1     -12.491  -2.903  -6.268  0.00  0.00    +0.124 A 
ATOM     18  C   UNL     1     -12.542  -3.118  -7.637  0.00  0.00    +0.091 A 
ATOM     19  C   UNL     1     -11.386  -3.033  -8.400  0.00  0.00    +0.124 A 
ATOM     20  C   UNL     1     -10.177  -2.729  -7.797  0.00  0.00    +0.059 A 
BRANCH  19  21
ATOM     21  O   UNL     1     -11.441  -3.245  -9.741  0.00  0.00    -0.495 OA
ATOM     22  C   UNL     1     -12.722  -3.549 -10.298  0.00  0.00    +0.277 C 
ENDBRANCH  19  21
BRANCH  17  23
ATOM     23  O   UNL     1     -13.626  -2.987  -5.525  0.00  0.00    -0.495 OA
ATOM     24  C   UNL     1     -14.835  -3.299  -6.221  0.00  0.00    +0.277 C 
ENDBRANCH  17  23
ENDBRANCH  11  15
BRANCH   1  26
ATOM     25  N   UNL     1      -6.173  -3.450  -0.457  0.00  0.00    -0.311 N 
ATOM     26  C   UNL     1      -6.944  -2.689  -1.258  0.00  0.00    +0.218 C 
ATOM     27  O   UNL     1      -7.321  -1.600  -0.880  0.00  0.00    -0.275 OA
ATOM     28  H   UNL     1      -5.871  -4.321  -0.760  0.00  0.00    +0.149 HD
BRANCH  25  29
ATOM     29  C   UNL     1      -5.790  -2.963   0.870  0.00  0.00    +0.139 C 
BRANCH  29  33
ATOM     30  C   UNL     1      -3.365  -5.892   2.819  0.00  0.00    +0.120 A 
ATOM     31  C   UNL     1      -2.775  -4.912   2.034  0.00  0.00    +0.046 A 
ATOM     32  C   UNL     1      -3.561  -3.967   1.405  0.00  0.00    +0.009 A 
ATOM     33  C   UNL     1      -4.935  -3.996   1.557  0.00  0.00    -0.030 A 
ATOM     34  C   UNL     1      -5.525  -4.972   2.340  0.00  0.00    +0.009 A 
ATOM     35  C   UNL     1      -4.744  -5.923   2.966  0.00  0.00    +0.046 A 
BRANCH  30  37
ATOM     36  C   UNL     1      -1.181  -6.731   3.242  0.00  0.00    +0.277 C 
ATOM     37  O   UNL     1      -2.593  -6.824   3.438  0.00  0.00    -0.495 OA
ENDBRANCH  30  37
ENDBRANCH  29  33
ENDBRANCH  25  29
ENDBRANCH   1  26
TORSDOF 7
