REMARK  Name = ZINC04674912
REMARK  5 active torsions:
REMARK  status: ('A' for Active; 'I' for Inactive)
REMARK    1  A    between atoms: C_9  and  O_12
REMARK    2  A    between atoms: O_12  and  C_13
REMARK    3  A    between atoms: C_13  and  C_14
REMARK    4  A    between atoms: N_16  and  C_17
REMARK    5  A    between atoms: C_20  and  N_23
REMARK                            x       y       z     vdW  Elec       q    Type
REMARK                         _______ _______ _______ _____ _____    ______ ____
ROOT
ATOM      1  C   UNL     1       2.331   7.966   0.026  0.00  0.00    +0.324 C 
ENDROOT
BRANCH   1   2
ATOM      2  C   UNL     1       2.119   9.458   0.026  0.00  0.00    +0.255 C 
ATOM      3  O   UNL     1       0.994   9.911   0.030  0.00  0.00    -0.272 OA
ATOM      4  N   UNL     1       3.180  10.290   0.021  0.00  0.00    -0.283 N 
ATOM      5  H   UNL     1       4.078   9.930   0.086  0.00  0.00    +0.155 HD
BRANCH   4   6
ATOM      6  C   UNL     1       2.985  11.672  -0.076  0.00  0.00    +0.034 A 
ATOM      7  C   UNL     1       3.895  12.456  -0.772  0.00  0.00    +0.025 A 
ATOM      8  C   UNL     1       3.696  13.819  -0.872  0.00  0.00    +0.034 A 
ATOM      9  C   UNL     1       2.599  14.405  -0.268  0.00  0.00    +0.126 A 
ATOM     10  C   UNL     1       1.694  13.628   0.431  0.00  0.00    +0.034 A 
ATOM     11  C   UNL     1       1.883  12.263   0.529  0.00  0.00    +0.025 A 
BRANCH   9  12
ATOM     12  N   UNL     1       2.393  15.867  -0.371  0.00  0.00    +0.056 N 
ATOM     13  O   UNL     1       1.426  16.384   0.160  0.00  0.00    -0.126 OA
ATOM     14  O   UNL     1       3.189  16.553  -0.987  0.00  0.00    -0.126 OA
ENDBRANCH   9  12
ENDBRANCH   4   6
ENDBRANCH   1   2
BRANCH   1  15
ATOM     15  O   UNL     1       1.064   7.305   0.031  0.00  0.00    -0.482 OA
BRANCH  15  24
ATOM     16  C   UNL     1      -0.011   1.075   0.036  0.00  0.00    +0.001 A 
ATOM     17  C   UNL     1      -1.234   1.745   0.035  0.00  0.00    +0.001 A 
ATOM     18  C   UNL     1      -1.288   3.105   0.041  0.00  0.00    +0.010 A 
ATOM     19  C   UNL     1      -0.094   3.848   0.036  0.00  0.00    -0.000 A 
ATOM     20  C   UNL     1       1.149   3.167   0.032  0.00  0.00    -0.017 A 
ATOM     21  C   UNL     1       1.164   1.762   0.032  0.00  0.00    +0.008 A 
ATOM     22  C   UNL     1       2.344   3.907   0.027  0.00  0.00    +0.012 A 
ATOM     23  C   UNL     1       2.299   5.266   0.026  0.00  0.00    +0.047 A 
ATOM     24  C   UNL     1       1.078   5.946   0.031  0.00  0.00    +0.136 A 
ATOM     25  C   UNL     1      -0.112   5.253   0.036  0.00  0.00    +0.067 A 
ATOM     26 BR   UNL     1      -1.757   6.185   0.042  0.00  0.00    -0.046 Br
ENDBRANCH  15  24
ENDBRANCH   1  15
TORSDOF 5
