REMARK  Name = ZINC06613245
REMARK  3 active torsions:
REMARK  status: ('A' for Active; 'I' for Inactive)
REMARK    1  A    between atoms: C_1  and  C_2
REMARK    2  A    between atoms: C_4  and  C_23
REMARK    3  A    between atoms: C_14  and  C_17
REMARK                            x       y       z     vdW  Elec       q    Type
REMARK                         _______ _______ _______ _____ _____    ______ ____
ROOT
ATOM      1  C   UNL     1       3.424  -2.809  -0.606  0.00  0.00    +0.044 C 
ATOM      2  C   UNL     1       1.988  -3.182  -0.341  0.00  0.00    -0.037 A 
ATOM      3  C   UNL     1       1.576  -4.499  -0.252  0.00  0.00    +0.033 A 
ATOM      4  C   UNL     1       0.258  -4.843  -0.009  0.00  0.00    +0.108 A 
ATOM      5  N   UNL     1      -0.692  -3.931   0.155  0.00  0.00    -0.239 NA
ATOM      6  C   UNL     1      -0.348  -2.664   0.081  0.00  0.00    +0.111 A 
ATOM      7  C   UNL     1       0.975  -2.203  -0.167  0.00  0.00    +0.032 A 
ATOM      8  C   UNL     1       1.147  -0.765  -0.218  0.00  0.00    +0.058 A 
ATOM      9  C   UNL     1       0.002  -0.004   0.002  0.00  0.00    +0.097 A 
ATOM     10  S   UNL     1      -1.294  -1.179   0.247  0.00  0.00    -0.062 S 
ATOM     11  C   UNL     1      -0.017   1.403   0.010  0.00  0.00    +0.254 C 
ATOM     12  O   UNL     1      -1.054   2.042   0.018  0.00  0.00    -0.270 OA
ATOM     13  N   UNL     1       1.207   1.998   0.001  0.00  0.00    -0.289 N 
ATOM     14  C   UNL     1       2.409   1.193   0.203  0.00  0.00    +0.190 C 
ATOM     15  N   UNL     1       2.355  -0.099  -0.483  0.00  0.00    -0.321 N 
ATOM     16  H   UNL     1       1.281   2.954  -0.139  0.00  0.00    +0.151 HD
ATOM     17  H   UNL     1       2.496   0.013  -1.476  0.00  0.00    +0.148 HD
ENDROOT
BRANCH  14  18
ATOM     18  C   UNL     1       3.598   1.964  -0.309  0.00  0.00    -0.009 A 
ATOM     19  C   UNL     1       4.724   1.291  -0.743  0.00  0.00    +0.007 A 
ATOM     20  C   UNL     1       5.813   1.998  -1.217  0.00  0.00    +0.000 A 
ATOM     21  C   UNL     1       5.780   3.380  -1.247  0.00  0.00    +0.000 A 
ATOM     22  C   UNL     1       4.655   4.054  -0.808  0.00  0.00    +0.000 A 
ATOM     23  C   UNL     1       3.565   3.346  -0.339  0.00  0.00    +0.007 A 
ENDBRANCH  14  18
BRANCH   4  24
ATOM     24  C   UNL     1      -0.111  -6.301   0.072  0.00  0.00    +0.390 C 
ATOM     25  F   UNL     1      -1.431  -6.473  -0.356  0.00  0.00    -0.202 F 
ATOM     26  F   UNL     1       0.746  -7.045  -0.747  0.00  0.00    -0.202 F 
ENDBRANCH   4  24
TORSDOF 2
