REMARK  Name = ZINC13064983
REMARK  13 active torsions:
REMARK  status: ('A' for Active; 'I' for Inactive)
REMARK    1  A    between atoms: C_1  and  C_2
REMARK    2  A    between atoms: C_2  and  C_3
REMARK    3  A    between atoms: C_3  and  C_5
REMARK    4  A    between atoms: C_3  and  N_69
REMARK    5  A    between atoms: N_9  and  C_10
REMARK    6  A    between atoms: C_10  and  C_11
REMARK    7  A    between atoms: C_11  and  C_12
REMARK    8  A    between atoms: C_18  and  C_19
REMARK    9  A    between atoms: C_18  and  N_69
REMARK   10  A    between atoms: C_24  and  C_25
REMARK   11  A    between atoms: C_24  and  N_69
REMARK   12  A    between atoms: C_28  and  C_38
REMARK   13  A    between atoms: C_30  and  C_37
REMARK                            x       y       z     vdW  Elec       q    Type
REMARK                         _______ _______ _______ _____ _____    ______ ____
ROOT
ATOM      1  N   UNL     1       0.377   4.345   1.234  0.00  0.00    +0.394 N 
ATOM      2  H   UNL     1       0.172   5.338   1.069  0.00  0.00    -0.080 HD
ENDROOT
BRANCH   1   3
ATOM      3  C   UNL     1      -0.886   3.579   1.178  0.00  0.00    +0.003 C 
BRANCH   3   4
ATOM      4  C   UNL     1      -1.919   4.282   2.020  0.00  0.00    +0.138 A 
ATOM      5  N   UNL     1      -1.829   4.560   3.298  0.00  0.00    -0.115 NA
ATOM      6  N   UNL     1      -2.911   5.165   3.650  0.00  0.00    -0.023 NA
ATOM      7  N   UNL     1      -3.688   5.281   2.630  0.00  0.00    -0.044 NA
ATOM      8  N   UNL     1      -3.109   4.753   1.605  0.00  0.00    -0.231 N 
BRANCH   8   9
ATOM      9  C   UNL     1      -3.648   4.678   0.244  0.00  0.00    +0.152 C 
BRANCH   9  10
ATOM     10  C   UNL     1      -4.561   3.456   0.124  0.00  0.00    +0.058 C 
BRANCH  10  11
ATOM     11  C   UNL     1      -5.059   3.339  -1.293  0.00  0.00    -0.046 A 
ATOM     12  C   UNL     1      -6.237   3.960  -1.665  0.00  0.00    +0.004 A 
ATOM     13  C   UNL     1      -6.692   3.857  -2.966  0.00  0.00    +0.000 A 
ATOM     14  C   UNL     1      -5.975   3.124  -3.893  0.00  0.00    +0.000 A 
ATOM     15  C   UNL     1      -4.800   2.498  -3.520  0.00  0.00    +0.000 A 
ATOM     16  C   UNL     1      -4.342   2.606  -2.220  0.00  0.00    +0.004 A 
ENDBRANCH  10  11
ENDBRANCH   9  10
ENDBRANCH   8   9
ENDBRANCH   3   4
BRANCH   3  18
ATOM     17  C   UNL     1      -1.968   1.357   1.546  0.00  0.00    +0.002 C 
ATOM     18  C   UNL     1      -0.675   2.159   1.709  0.00  0.00    -0.011 C 
ENDBRANCH   3  18
ENDBRANCH   1   3
BRANCH   1  19
ATOM     19  C   UNL     1       0.997   4.199   2.568  0.00  0.00    -0.002 C 
BRANCH  19  20
ATOM     20  C   UNL     1       2.053   5.262   2.730  0.00  0.00    +0.089 A 
ATOM     21  C   UNL     1       1.874   6.470   3.293  0.00  0.00    +0.042 A 
ATOM     22  C   UNL     1       3.119   7.138   3.235  0.00  0.00    +0.041 A 
ATOM     23  C   UNL     1       3.984   6.297   2.639  0.00  0.00    +0.195 A 
ATOM     24  O   UNL     1       3.335   5.160   2.340  0.00  0.00    -0.470 OA
ENDBRANCH  19  20
ENDBRANCH   1  19
BRANCH   1  25
ATOM     25  C   UNL     1       1.306   3.866   0.190  0.00  0.00    -0.036 C 
BRANCH  25  26
ATOM     26  C   UNL     1       0.875   4.433  -1.138  0.00  0.00    +0.001 A 
ATOM     27  C   UNL     1       1.412   5.595  -1.583  0.00  0.00    +0.017 A 
ATOM     28  C   UNL     1       0.971   6.119  -2.877  0.00  0.00    +0.002 A 
ATOM     29  C   UNL     1       1.490   7.313  -3.389  0.00  0.00    -0.041 A 
ATOM     30  C   UNL     1       1.058   7.775  -4.600  0.00  0.00    +0.007 A 
ATOM     31  C   UNL     1       0.109   7.070  -5.327  0.00  0.00    -0.048 A 
ATOM     32  C   UNL     1      -0.416   5.891  -4.842  0.00  0.00    +0.029 A 
ATOM     33  C   UNL     1       0.009   5.401  -3.612  0.00  0.00    +0.050 A 
ATOM     34  N   UNL     1      -0.498   4.224  -3.103  0.00  0.00    -0.322 N 
ATOM     35  H   UNL     1      -1.161   3.731  -3.611  0.00  0.00    +0.169 HD
ATOM     36  C   UNL     1      -0.084   3.748  -1.916  0.00  0.00    +0.251 A 
ATOM     37  O   UNL     1      -0.550   2.702  -1.500  0.00  0.00    -0.268 OA
ATOM     38  C   UNL     1      -0.352   7.599  -6.661  0.00  0.00    +0.044 C 
ATOM     39  C   UNL     1       2.520   8.087  -2.607  0.00  0.00    +0.044 C 
ENDBRANCH  25  26
ENDBRANCH   1  25
TORSDOF 10
