REMARK  Name = ZINC38975272
REMARK  8 active torsions:
REMARK  status: ('A' for Active; 'I' for Inactive)
REMARK    1  A    between atoms: C_1  and  O_2
REMARK    2  A    between atoms: O_2  and  C_3
REMARK    3  A    between atoms: C_5  and  N_11
REMARK    4  A    between atoms: C_7  and  O_9
REMARK    5  A    between atoms: O_9  and  C_10
REMARK    6  A    between atoms: N_11  and  C_12
REMARK    7  A    between atoms: N_15  and  S_16
REMARK    8  A    between atoms: S_16  and  C_19
REMARK                            x       y       z     vdW  Elec       q    Type
REMARK                         _______ _______ _______ _____ _____    ______ ____
ROOT
ATOM      1  C   UNL     1       2.151  -4.684   3.269  0.00  0.00    +0.237 C 
ATOM      2  C   UNL     1       3.129  -5.631   2.611  0.00  0.00    +0.192 C 
ATOM      3  N   UNL     1       4.000  -5.188   1.752  0.00  0.00    -0.110 NA
ATOM      4  N   UNL     1       3.086  -6.935   2.926  0.00  0.00    -0.226 NA
ATOM      5  C   UNL     1       2.214  -7.407   3.792  0.00  0.00    +0.089 A 
ATOM      6  C   UNL     1       2.197  -8.791   4.102  0.00  0.00    +0.030 A 
ATOM      7  C   UNL     1       1.305  -9.281   4.989  0.00  0.00    +0.002 A 
ATOM      8  C   UNL     1       0.362  -8.472   5.645  0.00  0.00    +0.002 A 
ATOM      9  C   UNL     1       0.292  -7.141   5.423  0.00  0.00    +0.027 A 
ATOM     10  C   UNL     1       1.229  -6.529   4.470  0.00  0.00    +0.063 A 
ATOM     11  N   UNL     1       1.192  -5.248   4.231  0.00  0.00    -0.359 N 
ATOM     12  H   UNL     1       0.545  -4.680   4.678  0.00  0.00    +0.162 HD
ENDROOT
BRANCH   3  13
ATOM     13  S   UNL     1       5.066  -6.235   1.039  0.00  0.00    +0.100 S 
ATOM     14  O   UNL     1       5.917  -6.714   2.071  0.00  0.00    -0.146 OA
ATOM     15  O   UNL     1       4.294  -7.106   0.223  0.00  0.00    -0.146 OA
BRANCH  13  16
ATOM     16  C   UNL     1       6.077  -5.289  -0.050  0.00  0.00    +0.113 A 
ATOM     17  C   UNL     1       5.690  -5.101  -1.364  0.00  0.00    +0.030 A 
ATOM     18  C   UNL     1       6.483  -4.359  -2.219  0.00  0.00    +0.022 A 
ATOM     19  C   UNL     1       7.664  -3.803  -1.759  0.00  0.00    +0.041 A 
ATOM     20  C   UNL     1       8.050  -3.991  -0.444  0.00  0.00    +0.022 A 
ATOM     21  C   UNL     1       7.253  -4.729   0.411  0.00  0.00    +0.030 A 
ATOM     22 CL   UNL     1       8.660  -2.870  -2.832  0.00  0.00    -0.084 Cl
ENDBRANCH  13  16
ENDBRANCH   3  13
BRANCH   1  23
ATOM     23  N   UNL     1       1.385  -4.024   2.208  0.00  0.00    -0.318 N 
ATOM     24  H   UNL     1       0.950  -4.554   1.522  0.00  0.00    +0.148 HD
BRANCH  23  27
ATOM     25  C   UNL     1       1.653  -0.499   3.228  0.00  0.00    +0.125 A 
ATOM     26  C   UNL     1       1.756  -1.882   3.253  0.00  0.00    +0.068 A 
ATOM     27  C   UNL     1       1.281  -2.632   2.185  0.00  0.00    +0.036 A 
ATOM     28  C   UNL     1       0.703  -1.996   1.094  0.00  0.00    +0.068 A 
ATOM     29  C   UNL     1       0.600  -0.614   1.072  0.00  0.00    +0.125 A 
ATOM     30  C   UNL     1       1.071   0.134   2.141  0.00  0.00    +0.091 A 
BRANCH  25  32
ATOM     31  C   UNL     1       1.974   1.654   4.184  0.00  0.00    +0.277 C 
ATOM     32  O   UNL     1       2.118   0.235   4.273  0.00  0.00    -0.495 OA
ENDBRANCH  25  32
BRANCH  29  33
ATOM     33  O   UNL     1       0.034   0.008   0.004  0.00  0.00    -0.495 OA
ATOM     34  C   UNL     1      -0.038   1.435   0.048  0.00  0.00    +0.277 C 
ENDBRANCH  29  33
ENDBRANCH  23  27
ENDBRANCH   1  23
TORSDOF 6
