REMARK  Name = ZINC06015054
REMARK  11 active torsions:
REMARK  status: ('A' for Active; 'I' for Inactive)
REMARK    1  A    between atoms: C_1  and  C_2
REMARK    2  A    between atoms: C_2  and  C_3
REMARK    3  A    between atoms: C_2  and  C_4
REMARK    4  A    between atoms: C_2  and  N_5
REMARK    5  A    between atoms: C_6  and  C_10
REMARK    6  A    between atoms: C_10  and  C_12
REMARK    7  A    between atoms: C_10  and  N_65
REMARK    8  A    between atoms: C_27  and  C_28
REMARK    9  A    between atoms: C_27  and  N_65
REMARK   10  A    between atoms: C_34  and  C_35
REMARK   11  A    between atoms: C_34  and  N_65
REMARK                            x       y       z     vdW  Elec       q    Type
REMARK                         _______ _______ _______ _____ _____    ______ ____
ROOT
ATOM      1  C   UNL     1      -3.782   1.561   0.477  0.00  0.00    +0.040 C 
ENDROOT
BRANCH   1   2
ATOM      2  C   UNL     1      -2.998   0.308   0.771  0.00  0.00    +0.011 A 
ATOM      3  C   UNL     1      -1.684   0.394   1.102  0.00  0.00    +0.017 A 
ATOM      4  C   UNL     1      -0.950  -0.840   1.375  0.00  0.00    +0.002 A 
ATOM      5  C   UNL     1       0.408  -0.812   1.717  0.00  0.00    +0.059 A 
ATOM      6  C   UNL     1       1.072  -1.991   1.976  0.00  0.00    +0.167 A 
ATOM      7  C   UNL     1       0.394  -3.214   1.897  0.00  0.00    +0.168 A 
ATOM      8  C   UNL     1      -0.946  -3.251   1.559  0.00  0.00    +0.075 A 
ATOM      9  C   UNL     1      -1.630  -2.071   1.296  0.00  0.00    +0.053 A 
ATOM     10  N   UNL     1      -2.968  -2.089   0.959  0.00  0.00    -0.322 N 
ATOM     11  H   UNL     1      -3.450  -2.963   0.903  0.00  0.00    +0.169 HD
ATOM     12  C   UNL     1      -3.633  -0.948   0.706  0.00  0.00    +0.251 A 
ATOM     13  O   UNL     1      -4.815  -1.002   0.412  0.00  0.00    -0.268 OA
ATOM     14  O   UNL     1       1.272  -4.215   2.197  0.00  0.00    -0.453 OA
ATOM     15  C   UNL     1       2.378  -3.573   2.858  0.00  0.00    +0.466 C 
ATOM     16  O   UNL     1       2.370  -2.236   2.325  0.00  0.00    -0.453 OA
ENDBRANCH   1   2
BRANCH   1  18
ATOM     17  N   UNL     1      -3.785   2.334  -1.954  0.00  0.00    -0.225 N 
ATOM     18  C   UNL     1      -4.235   1.545  -0.960  0.00  0.00    +0.143 A 
ATOM     19  N   UNL     1      -5.148   0.764  -1.484  0.00  0.00    -0.115 NA
ATOM     20  N   UNL     1      -5.250   1.054  -2.735  0.00  0.00    -0.023 NA
ATOM     21  N   UNL     1      -4.426   2.000  -3.023  0.00  0.00    -0.043 NA
BRANCH  17  23
ATOM     22  C   UNL     1      -1.469   2.761  -1.296  0.00  0.00    +0.036 C 
ATOM     23  C   UNL     1      -2.760   3.374  -1.843  0.00  0.00    +0.059 C 
ATOM     24  C   UNL     1      -2.493   3.978  -3.223  0.00  0.00    +0.036 C 
ATOM     25  C   UNL     1      -3.245   4.470  -0.892  0.00  0.00    +0.036 C 
ENDBRANCH  17  23
ENDBRANCH   1  18
BRANCH   1  26
ATOM     26  N   UNL     1      -4.972   1.603   1.352  0.00  0.00    +0.397 N 
ATOM     27  H   UNL     1      -5.623   0.862   1.065  0.00  0.00    -0.079 HD
BRANCH  26  28
ATOM     28  C   UNL     1      -4.575   1.376   2.757  0.00  0.00    -0.039 C 
BRANCH  28  29
ATOM     29  C   UNL     1      -5.805   1.036   3.559  0.00  0.00    -0.046 A 
ATOM     30  C   UNL     1      -6.516   2.033   4.210  0.00  0.00    +0.005 A 
ATOM     31  C   UNL     1      -7.644   1.675   4.932  0.00  0.00    +0.020 A 
ATOM     32  C   UNL     1      -8.014   0.344   4.987  0.00  0.00    +0.111 A 
ATOM     33  N   UNL     1      -7.311  -0.578   4.359  0.00  0.00    -0.263 NA
ATOM     34  C   UNL     1      -6.235  -0.273   3.659  0.00  0.00    +0.112 A 
ENDBRANCH  28  29
ENDBRANCH  26  28
BRANCH  26  35
ATOM     35  C   UNL     1      -5.648   2.911   1.223  0.00  0.00    -0.001 C 
BRANCH  35  36
ATOM     36  C   UNL     1      -6.473   2.906  -0.038  0.00  0.00    +0.089 A 
ATOM     37  C   UNL     1      -7.704   2.382  -0.171  0.00  0.00    +0.042 A 
ATOM     38  C   UNL     1      -8.099   2.597  -1.511  0.00  0.00    +0.041 A 
ATOM     39  C   UNL     1      -7.085   3.240  -2.118  0.00  0.00    +0.195 A 
ATOM     40  O   UNL     1      -6.105   3.429  -1.219  0.00  0.00    -0.470 OA
ENDBRANCH  35  36
ENDBRANCH  26  35
ENDBRANCH   1  26
TORSDOF 8
