REMARK  Name = ZINC41584903
REMARK  6 active torsions:
REMARK  status: ('A' for Active; 'I' for Inactive)
REMARK    1  A    between atoms: C_4  and  C_7
REMARK    2  A    between atoms: C_7  and  N_8
REMARK    3  A    between atoms: N_11  and  C_14
REMARK    4  A    between atoms: C_14  and  C_15
REMARK    5  A    between atoms: C_16  and  O_33
REMARK    6  A    between atoms: C_23  and  C_24
REMARK                            x       y       z     vdW  Elec       q    Type
REMARK                         _______ _______ _______ _____ _____    ______ ____
ROOT
ATOM      1  C   UNL     1       6.760  -3.806   4.220  0.00  0.00    +0.051 A 
ATOM      2  C   UNL     1       6.685  -5.189   4.261  0.00  0.00    +0.125 A 
ATOM      3  C   UNL     1       7.820  -5.953   4.517  0.00  0.00    +0.046 A 
ATOM      4  C   UNL     1       9.024  -5.342   4.731  0.00  0.00    +0.019 A 
ATOM      5  C   UNL     1       9.114  -3.950   4.692  0.00  0.00    +0.068 A 
ATOM      6  C   UNL     1       7.976  -3.170   4.429  0.00  0.00    +0.147 A 
ATOM      7  O   UNL     1       8.310  -1.861   4.435  0.00  0.00    -0.451 OA
ATOM      8  C   UNL     1       9.628  -1.678   4.685  0.00  0.00    +0.176 C 
ATOM      9  C   UNL     1      10.272  -0.487   4.758  0.00  0.00    +0.058 C 
ATOM     10  C   UNL     1      10.232  -3.007   4.875  0.00  0.00    +0.231 C 
ATOM     11  O   UNL     1      11.397  -3.269   5.117  0.00  0.00    -0.283 OA
ENDROOT
BRANCH   9  12
ATOM     12  C   UNL     1       9.507   0.767   4.698  0.00  0.00    -0.020 A 
ATOM     13  C   UNL     1       8.108   0.740   4.737  0.00  0.00    +0.008 A 
ATOM     14  C   UNL     1       7.398   1.921   4.680  0.00  0.00    +0.002 A 
ATOM     15  C   UNL     1       8.065   3.130   4.586  0.00  0.00    +0.015 A 
ATOM     16  C   UNL     1       9.449   3.166   4.546  0.00  0.00    +0.018 A 
ATOM     17  C   UNL     1      10.174   1.993   4.608  0.00  0.00    +0.023 A 
ATOM     18 BR   UNL     1      10.346   4.825   4.416  0.00  0.00    -0.050 Br
ENDBRANCH   9  12
BRANCH   2  19
ATOM     19  O   UNL     1       5.493  -5.805   4.051  0.00  0.00    -0.506 OA
ATOM     20  H   UNL     1       5.319  -6.019   3.125  0.00  0.00    +0.292 HD
ENDBRANCH   2  19
BRANCH   1  21
ATOM     21  C   UNL     1       5.522  -2.993   3.941  0.00  0.00    +0.126 C 
BRANCH  21  25
ATOM     22  N   UNL     1       5.028  -1.207   0.142  0.00  0.00    +0.384 N 
ATOM     23  C   UNL     1       3.950  -2.069   0.645  0.00  0.00    -0.063 C 
ATOM     24  C   UNL     1       4.076  -2.209   2.163  0.00  0.00    +0.066 C 
ATOM     25  N   UNL     1       5.385  -2.790   2.493  0.00  0.00    -0.301 NA
ATOM     26  C   UNL     1       6.474  -1.949   1.974  0.00  0.00    +0.066 C 
ATOM     27  C   UNL     1       6.329  -1.812   0.456  0.00  0.00    -0.063 C 
ATOM     28  H   UNL     1       4.964  -0.300   0.579  0.00  0.00    -0.081 HD
BRANCH  22  29
ATOM     29  C   UNL     1       4.896  -1.058  -1.314  0.00  0.00    -0.043 C 
BRANCH  29  33
ATOM     30  C   UNL     1       1.271   1.014  -2.214  0.00  0.00    +0.000 A 
ATOM     31  C   UNL     1       2.441   1.723  -2.014  0.00  0.00    +0.000 A 
ATOM     32  C   UNL     1       3.614   1.052  -1.722  0.00  0.00    +0.002 A 
ATOM     33  C   UNL     1       3.617  -0.327  -1.631  0.00  0.00    -0.064 A 
ATOM     34  C   UNL     1       2.447  -1.036  -1.831  0.00  0.00    +0.002 A 
ATOM     35  C   UNL     1       1.274  -0.365  -2.123  0.00  0.00    +0.000 A 
ENDBRANCH  29  33
ENDBRANCH  22  29
ENDBRANCH  21  25
ENDBRANCH   1  21
TORSDOF 6
