REMARK  Name = ZINC63350142
REMARK  8 active torsions:
REMARK  status: ('A' for Active; 'I' for Inactive)
REMARK    1  A    between atoms: C_1  and  O_2
REMARK    2  A    between atoms: O_2  and  C_3
REMARK    3  A    between atoms: C_6  and  C_11
REMARK    4  A    between atoms: C_8  and  O_9
REMARK    5  A    between atoms: O_9  and  C_10
REMARK    6  A    between atoms: C_18  and  O_23
REMARK    7  A    between atoms: O_23  and  C_24
REMARK    8  A    between atoms: C_24  and  C_25
REMARK                            x       y       z     vdW  Elec       q    Type
REMARK                         _______ _______ _______ _____ _____    ______ ____
ROOT
ATOM      1  C   UNL     1      -4.987  -2.627   0.035  0.00  0.00    +0.111 C 
ATOM      2  C   UNL     1      -5.498  -2.744   1.473  0.00  0.00    +0.128 C 
ATOM      3  C   UNL     1      -5.774  -1.321   1.945  0.00  0.00    -0.035 C 
ATOM      4  C   UNL     1      -5.097  -1.162   3.072  0.00  0.00    +0.003 A 
ATOM      5  C   UNL     1      -5.029  -0.049   4.032  0.00  0.00    +0.055 A 
ATOM      6  C   UNL     1      -4.204  -0.213   5.102  0.00  0.00    +0.122 A 
ATOM      7  C   UNL     1      -3.434  -1.363   5.329  0.00  0.00    +0.048 A 
ATOM      8  C   UNL     1      -3.424  -2.449   4.513  0.00  0.00    +0.029 A 
ATOM      9  C   UNL     1      -4.283  -2.393   3.323  0.00  0.00    +0.043 A 
ATOM     10  N   UNL     1      -4.494  -3.292   2.384  0.00  0.00    -0.376 N 
ATOM     11  C   UNL     1      -6.598  -0.360   1.122  0.00  0.00    +0.048 C 
ATOM     12  C   UNL     1      -6.050  -0.444  -0.314  0.00  0.00    +0.086 C 
ATOM     13  N   UNL     1      -5.962  -1.844  -0.741  0.00  0.00    -0.307 NA
ATOM     14  H   UNL     1      -5.774  -1.910  -1.730  0.00  0.00    +0.123 HD
ATOM     15  H   UNL     1      -4.064  -4.158   2.301  0.00  0.00    +0.160 HD
ENDROOT
BRANCH   1  19
ATOM     16  C   UNL     1      -1.201  -0.639   0.013  0.00  0.00    +0.162 A 
ATOM     17  C   UNL     1      -2.291  -0.051   0.634  0.00  0.00    +0.050 A 
ATOM     18  C   UNL     1      -3.514  -0.696   0.639  0.00  0.00    +0.009 A 
ATOM     19  C   UNL     1      -3.652  -1.928   0.026  0.00  0.00    -0.024 A 
ATOM     20  C   UNL     1      -2.568  -2.520  -0.594  0.00  0.00    +0.054 A 
ATOM     21  C   UNL     1      -1.341  -1.876  -0.608  0.00  0.00    +0.162 A 
BRANCH  16  23
ATOM     22  C   UNL     1       0.073   1.261   0.664  0.00  0.00    +0.277 C 
ATOM     23  O   UNL     1       0.003  -0.005   0.007  0.00  0.00    -0.491 OA
ENDBRANCH  16  23
BRANCH  21  24
ATOM     24  O   UNL     1      -0.275  -2.454  -1.223  0.00  0.00    -0.491 OA
ATOM     25  C   UNL     1      -0.492  -3.725  -1.841  0.00  0.00    +0.277 C 
ENDBRANCH  21  24
ENDBRANCH   1  19
BRANCH   6  26
ATOM     26  O   UNL     1      -4.120   0.799   6.005  0.00  0.00    -0.487 OA
BRANCH  26  27
ATOM     27  C   UNL     1      -3.247   0.604   7.120  0.00  0.00    +0.264 C 
BRANCH  27  28
ATOM     28  C   UNL     1      -3.284   1.821   8.007  0.00  0.00    -0.010 A 
ATOM     29  C   UNL     1      -2.403   2.863   7.787  0.00  0.00    +0.007 A 
ATOM     30  C   UNL     1      -2.437   3.980   8.601  0.00  0.00    +0.000 A 
ATOM     31  C   UNL     1      -3.353   4.056   9.633  0.00  0.00    +0.000 A 
ATOM     32  C   UNL     1      -4.236   3.014   9.852  0.00  0.00    +0.000 A 
ATOM     33  C   UNL     1      -4.204   1.899   9.036  0.00  0.00    +0.007 A 
ENDBRANCH  27  28
ENDBRANCH  26  27
ENDBRANCH   6  26
TORSDOF 6
