REMARK  Name = ZINC63667447
REMARK  9 active torsions:
REMARK  status: ('A' for Active; 'I' for Inactive)
REMARK    1  A    between atoms: C_1  and  O_2
REMARK    2  A    between atoms: O_2  and  C_3
REMARK    3  A    between atoms: C_6  and  C_9
REMARK    4  A    between atoms: C_12  and  C_28
REMARK    5  A    between atoms: C_15  and  C_17
REMARK    6  A    between atoms: C_17  and  S_18
REMARK    7  A    between atoms: S_18  and  C_19
REMARK    8  A    between atoms: C_31  and  O_34
REMARK    9  A    between atoms: O_34  and  C_35
REMARK                            x       y       z     vdW  Elec       q    Type
REMARK                         _______ _______ _______ _____ _____    ______ ____
ROOT
ATOM      1  C   UNL     1       2.505  -2.503  -4.381  0.00  0.00    +0.137 C 
ATOM      2  C   UNL     1       3.907  -3.009  -3.990  0.00  0.00    +0.087 C 
ATOM      3  C   UNL     1       3.824  -4.505  -4.191  0.00  0.00    +0.069 C 
ATOM      4  N   UNL     1       2.646  -4.819  -4.607  0.00  0.00    -0.181 NA
ATOM      5  N   UNL     1       1.784  -3.730  -4.759  0.00  0.00    -0.184 N 
ATOM      6  C   UNL     1       0.505  -3.790  -5.179  0.00  0.00    +0.245 C 
ATOM      7  O   UNL     1      -0.151  -2.774  -5.272  0.00  0.00    -0.273 OA
ENDROOT
BRANCH   1  11
ATOM      8  C   UNL     1       0.606  -0.607  -1.056  0.00  0.00    +0.120 A 
ATOM      9  C   UNL     1       1.173   0.161  -2.062  0.00  0.00    +0.046 A 
ATOM     10  C   UNL     1       1.786  -0.455  -3.136  0.00  0.00    +0.009 A 
ATOM     11  C   UNL     1       1.835  -1.835  -3.209  0.00  0.00    -0.024 A 
ATOM     12  C   UNL     1       1.270  -2.602  -2.207  0.00  0.00    +0.009 A 
ATOM     13  C   UNL     1       0.661  -1.992  -1.128  0.00  0.00    +0.046 A 
BRANCH   8  15
ATOM     14  C   UNL     1      -0.017   1.425   0.010  0.00  0.00    +0.277 C 
ATOM     15  O   UNL     1       0.002  -0.004   0.002  0.00  0.00    -0.495 OA
ENDBRANCH   8  15
ENDBRANCH   1  11
BRANCH   3  16
ATOM     16  C   UNL     1       4.923  -5.459  -3.950  0.00  0.00    -0.002 A 
ATOM     17  C   UNL     1       6.161  -5.000  -3.493  0.00  0.00    +0.013 A 
ATOM     18  C   UNL     1       7.185  -5.894  -3.269  0.00  0.00    +0.046 A 
ATOM     19  C   UNL     1       6.988  -7.250  -3.497  0.00  0.00    +0.120 A 
ATOM     20  C   UNL     1       5.759  -7.711  -3.952  0.00  0.00    +0.046 A 
ATOM     21  C   UNL     1       4.727  -6.824  -4.173  0.00  0.00    +0.013 A 
BRANCH  19  22
ATOM     22  O   UNL     1       8.000  -8.129  -3.275  0.00  0.00    -0.495 OA
ATOM     23  C   UNL     1       7.729  -9.508  -3.530  0.00  0.00    +0.277 C 
ENDBRANCH  19  22
ENDBRANCH   3  16
BRANCH   6  24
ATOM     24  C   UNL     1      -0.109  -5.119  -5.535  0.00  0.00    +0.170 C 
BRANCH  24  25
ATOM     25  S   UNL     1      -1.827  -4.870  -6.061  0.00  0.00    -0.106 S 
BRANCH  25  26
ATOM     26  C   UNL     1      -2.415  -6.542  -6.447  0.00  0.00    +0.236 C 
ATOM     27  N   UNL     1      -1.552  -7.157  -7.463  0.00  0.00    -0.355 N 
ATOM     28  C   UNL     1      -1.029  -8.226  -6.936  0.00  0.00    +0.061 A 
ATOM     29  C   UNL     1      -0.100  -9.242  -7.449  0.00  0.00    +0.027 A 
ATOM     30  C   UNL     1       0.276 -10.263  -6.654  0.00  0.00    +0.002 A 
ATOM     31  C   UNL     1      -0.188 -10.406  -5.334  0.00  0.00    +0.002 A 
ATOM     32  C   UNL     1      -1.043  -9.532  -4.765  0.00  0.00    +0.027 A 
ATOM     33  C   UNL     1      -1.519  -8.377  -5.538  0.00  0.00    +0.061 A 
ATOM     34  N   UNL     1      -2.326  -7.395  -5.256  0.00  0.00    -0.355 N 
ATOM     35  H   UNL     1      -1.399  -6.827  -8.363  0.00  0.00    +0.162 HD
ATOM     36  H   UNL     1      -2.785  -7.253  -4.413  0.00  0.00    +0.162 HD
ENDBRANCH  25  26
ENDBRANCH  24  25
ENDBRANCH   6  24
TORSDOF 7
