REMARK  Name = ZINC03446184
REMARK  7 active torsions:
REMARK  status: ('A' for Active; 'I' for Inactive)
REMARK    1  A    between atoms: C_1  and  C_2
REMARK    2  A    between atoms: C_7  and  C_10
REMARK    3  A    between atoms: C_11  and  C_13
REMARK    4  A    between atoms: C_13  and  S_14
REMARK    5  A    between atoms: S_14  and  C_15
REMARK    6  A    between atoms: C_19  and  C_22
REMARK    7  A    between atoms: N_30  and  N_31
REMARK                            x       y       z     vdW  Elec       q    Type
REMARK                         _______ _______ _______ _____ _____    ______ ____
ROOT
ATOM      1  C   UNL     1      -0.614  -2.221  -0.005  0.00  0.00    +0.190 A 
ATOM      2  N   UNL     1      -0.936  -0.944   0.006  0.00  0.00    -0.215 NA
ATOM      3  C   UNL     1       0.002  -0.004   0.002  0.00  0.00    +0.117 A 
ATOM      4  C   UNL     1       1.372  -0.319  -0.013  0.00  0.00    +0.081 A 
ATOM      5  C   UNL     1       2.269   0.833  -0.015  0.00  0.00    +0.004 A 
ATOM      6  C   UNL     1       1.734   2.076  -0.003  0.00  0.00    +0.056 A 
ATOM      7  S   UNL     1      -0.022   1.770   0.012  0.00  0.00    -0.076 S 
ATOM      8  C   UNL     1       1.691  -1.711  -0.024  0.00  0.00    +0.280 A 
ATOM      9  O   UNL     1       2.854  -2.078  -0.037  0.00  0.00    -0.265 OA
ATOM     10  N   UNL     1       0.693  -2.613  -0.020  0.00  0.00    -0.209 N 
ENDROOT
BRANCH   5  11
ATOM     11  C   UNL     1       3.739   0.644  -0.031  0.00  0.00    -0.017 A 
ATOM     12  C   UNL     1       4.345  -0.215   0.886  0.00  0.00    +0.008 A 
ATOM     13  C   UNL     1       5.713  -0.391   0.863  0.00  0.00    +0.001 A 
ATOM     14  C   UNL     1       6.485   0.291  -0.060  0.00  0.00    +0.000 A 
ATOM     15  C   UNL     1       5.891   1.149  -0.968  0.00  0.00    +0.001 A 
ATOM     16  C   UNL     1       4.523   1.329  -0.958  0.00  0.00    +0.008 A 
ENDBRANCH   5  11
BRANCH  10  17
ATOM     17  N   UNL     1       0.994  -3.946  -0.030  0.00  0.00    -0.293 N 
ATOM     18  H   UNL     1       0.154  -4.506  -0.025  0.00  0.00    +0.163 HD
ATOM     19  H   UNL     1       1.579  -4.179  -0.819  0.00  0.00    +0.163 HD
ENDBRANCH  10  17
BRANCH   1  20
ATOM     20  S   UNL     1      -1.887  -3.439   0.000  0.00  0.00    -0.077 S 
BRANCH  20  21
ATOM     21  C   UNL     1      -3.346  -2.369   0.020  0.00  0.00    +0.173 C 
BRANCH  21  30
ATOM     22  C   UNL     1      -7.335  -3.230  -2.426  0.00  0.00    +0.039 C 
ATOM     23  C   UNL     1      -7.958  -2.925  -1.062  0.00  0.00    +0.133 C 
ATOM     24  C   UNL     1      -7.036  -3.439   0.049  0.00  0.00    +0.139 C 
ATOM     25  N   UNL     1      -5.806  -2.632   0.042  0.00  0.00    -0.296 N 
ATOM     26  C   UNL     1      -5.940  -1.167   0.058  0.00  0.00    +0.139 C 
ATOM     27  C   UNL     1      -6.916  -0.763  -1.059  0.00  0.00    +0.133 C 
ATOM     28  O   UNL     1      -8.125  -1.512  -0.919  0.00  0.00    -0.371 OA
ATOM     29  C   UNL     1      -7.225   0.732  -0.951  0.00  0.00    +0.039 C 
ATOM     30  C   UNL     1      -4.592  -3.217   0.027  0.00  0.00    +0.226 C 
ATOM     31  O   UNL     1      -4.502  -4.427   0.019  0.00  0.00    -0.275 OA
ENDBRANCH  21  30
ENDBRANCH  20  21
ENDBRANCH   1  20
TORSDOF 5
