REMARK  Name = ZINC52565826
REMARK  5 active torsions:
REMARK  status: ('A' for Active; 'I' for Inactive)
REMARK    1  A    between atoms: N_8  and  C_27
REMARK    2  A    between atoms: N_14  and  C_17
REMARK    3  A    between atoms: C_17  and  C_18
REMARK    4  A    between atoms: C_27  and  C_28
REMARK    5  A    between atoms: C_31  and  O_34
REMARK                            x       y       z     vdW  Elec       q    Type
REMARK                         _______ _______ _______ _____ _____    ______ ____
ROOT
ATOM      1  C   UNL     1      -0.017   1.380   0.010  0.00  0.00    +0.001 A 
ATOM      2  C   UNL     1       1.170   2.090   0.002  0.00  0.00    +0.004 A 
ATOM      3  C   UNL     1       2.380   1.422  -0.023  0.00  0.00    +0.046 A 
ATOM      4  C   UNL     1       2.398   0.034  -0.035  0.00  0.00    +0.126 A 
ATOM      5  C   UNL     1       1.210  -0.670  -0.011  0.00  0.00    +0.008 A 
ATOM      6  C   UNL     1       0.002  -0.004   0.002  0.00  0.00    +0.008 A 
ATOM      7  C   UNL     1       1.244  -2.186   0.029  0.00  0.00    +0.123 C 
ATOM      8  N   UNL     1       1.758  -2.680  -1.253  0.00  0.00    -0.290 NA
ATOM      9  C   UNL     1       3.218  -2.700  -1.303  0.00  0.00    +0.133 C 
ATOM     10  C   UNL     1       3.845  -1.323  -1.318  0.00  0.00    +0.126 C 
ATOM     11  O   UNL     1       3.582  -0.634  -0.088  0.00  0.00    -0.484 OA
ATOM     12  C   UNL     1       5.363  -1.440  -1.503  0.00  0.00    +0.064 C 
ATOM     13  C   UNL     1       5.973  -0.038  -1.550  0.00  0.00    +0.088 C 
ATOM     14  N   UNL     1       5.388   0.716  -2.666  0.00  0.00    -0.298 NA
ATOM     15  C   UNL     1       3.938   0.877  -2.496  0.00  0.00    +0.088 C 
ATOM     16  C   UNL     1       3.269  -0.499  -2.477  0.00  0.00    +0.064 C 
ENDROOT
BRANCH  14  17
ATOM     17  C   UNL     1       6.047   2.020  -2.823  0.00  0.00    +0.117 C 
BRANCH  17  18
ATOM     18  C   UNL     1       5.598   2.657  -4.113  0.00  0.00    -0.028 C 
ATOM     19  C   UNL     1       4.600   3.554  -4.272  0.00  0.00    +0.003 A 
ATOM     20  C   UNL     1       3.655   4.197  -3.352  0.00  0.00    +0.029 A 
ATOM     21  C   UNL     1       2.756   5.074  -3.855  0.00  0.00    +0.111 A 
ATOM     22  N   UNL     1       2.683   5.386  -5.144  0.00  0.00    -0.261 NA
ATOM     23  C   UNL     1       3.457   4.891  -6.068  0.00  0.00    +0.136 A 
ATOM     24  C   UNL     1       4.498   3.918  -5.705  0.00  0.00    +0.061 A 
ATOM     25  N   UNL     1       5.394   3.274  -6.402  0.00  0.00    -0.379 N 
ATOM     26  C   UNL     1       6.176   2.428  -5.492  0.00  0.00    +0.146 C 
ATOM     27  H   UNL     1       5.524   3.345  -7.361  0.00  0.00    +0.160 HD
ENDBRANCH  17  18
ENDBRANCH  14  17
BRANCH   8  28
ATOM     28  C   UNL     1       1.202  -4.002  -1.569  0.00  0.00    +0.120 C 
BRANCH  28  29
ATOM     29  C   UNL     1      -0.282  -3.881  -1.800  0.00  0.00    -0.033 A 
ATOM     30  C   UNL     1      -1.159  -4.015  -0.740  0.00  0.00    +0.008 A 
ATOM     31  C   UNL     1      -2.520  -3.905  -0.949  0.00  0.00    +0.046 A 
ATOM     32  C   UNL     1      -3.007  -3.658  -2.225  0.00  0.00    +0.117 A 
ATOM     33  C   UNL     1      -2.125  -3.524  -3.287  0.00  0.00    +0.046 A 
ATOM     34  C   UNL     1      -0.764  -3.630  -3.072  0.00  0.00    +0.008 A 
BRANCH  32  35
ATOM     35  O   UNL     1      -4.345  -3.550  -2.433  0.00  0.00    -0.507 OA
ATOM     36  H   UNL     1      -4.685  -2.649  -2.344  0.00  0.00    +0.292 HD
ENDBRANCH  32  35
ENDBRANCH  28  29
ENDBRANCH   8  28
TORSDOF 5
