REMARK  Name = ZINC38570776
REMARK  8 active torsions:
REMARK  status: ('A' for Active; 'I' for Inactive)
REMARK    1  A    between atoms: C_1  and  C_2
REMARK    2  A    between atoms: C_2  and  C_3
REMARK    3  A    between atoms: C_3  and  C_5
REMARK    4  A    between atoms: C_3  and  N_6
REMARK    5  A    between atoms: C_7  and  O_33
REMARK    6  A    between atoms: C_9  and  C_16
REMARK    7  A    between atoms: N_30  and  C_31
REMARK    8  A    between atoms: C_31  and  C_32
REMARK                            x       y       z     vdW  Elec       q    Type
REMARK                         _______ _______ _______ _____ _____    ______ ____
ROOT
ATOM      1  C   UNL     1      -0.363   0.673   9.180  0.00  0.00    +0.120 C 
ATOM      2  C   UNL     1       0.558   0.063   8.150  0.00  0.00    +0.038 A 
ATOM      3  H   UNL     1       1.384   1.688   7.142  0.00  0.00    +0.166 HD
ATOM      4  C   UNL     1       0.725  -1.272   8.010  0.00  0.00    -0.016 A 
ATOM      5  C   UNL     1       1.670  -1.474   6.934  0.00  0.00    +0.003 A 
ATOM      6  C   UNL     1       2.216  -2.622   6.351  0.00  0.00    +0.010 A 
ATOM      7  C   UNL     1       3.106  -2.433   5.322  0.00  0.00    +0.001 A 
ATOM      8  C   UNL     1       3.455  -1.170   4.873  0.00  0.00    +0.002 A 
ATOM      9  C   UNL     1       2.930  -0.017   5.432  0.00  0.00    +0.026 A 
ATOM     10  C   UNL     1       2.024  -0.177   6.478  0.00  0.00    +0.047 A 
ATOM     11  N   UNL     1       1.333   0.724   7.236  0.00  0.00    -0.356 N 
ATOM     12  C   UNL     1       0.018  -2.293   8.865  0.00  0.00    +0.053 C 
ATOM     13  C   UNL     1      -0.549  -1.571  10.094  0.00  0.00    +0.090 C 
ATOM     14  N   UNL     1      -1.281  -0.369   9.666  0.00  0.00    -0.293 NA
ENDROOT
BRANCH   1  17
ATOM     15  N   UNL     1      -2.458   0.437   6.990  0.00  0.00    -0.255 N 
ATOM     16  C   UNL     1      -1.434   1.483   7.072  0.00  0.00    +0.220 C 
ATOM     17  C   UNL     1      -1.165   1.809   8.543  0.00  0.00    +0.147 C 
ATOM     18  C   UNL     1      -2.478   1.965   9.266  0.00  0.00    +0.249 C 
ATOM     19  O   UNL     1      -2.580   2.837  10.283  0.00  0.00    -0.273 OA
ATOM     20  N   UNL     1      -3.516   1.261   8.913  0.00  0.00    -0.128 NA
ATOM     21  C   UNL     1      -3.470   0.408   7.874  0.00  0.00    +0.331 C 
ATOM     22  O   UNL     1      -4.360  -0.410   7.734  0.00  0.00    -0.250 OA
BRANCH  15  23
ATOM     23  C   UNL     1      -2.381  -0.578   5.936  0.00  0.00    +0.077 C 
ATOM     24  C   UNL     1      -2.460  -1.971   6.563  0.00  0.00    +0.028 C 
BRANCH  23  26
ATOM     25  C   UNL     1      -3.398   0.952   4.243  0.00  0.00    +0.006 C 
ATOM     26  C   UNL     1      -3.546  -0.390   4.962  0.00  0.00    +0.019 C 
ENDBRANCH  23  26
ENDBRANCH  15  23
BRANCH  16  27
ATOM     27  O   UNL     1      -1.895   2.656   6.398  0.00  0.00    -0.373 OA
ATOM     28  H   UNL     1      -2.089   2.520   5.460  0.00  0.00    +0.212 HD
ENDBRANCH  16  27
ENDBRANCH   1  17
BRANCH  14  29
ATOM     29  C   UNL     1      -2.136   0.144  10.745  0.00  0.00    +0.082 C 
ATOM     30  C   UNL     1      -2.581  -1.016  11.638  0.00  0.00    +0.020 C 
ENDBRANCH  14  29
TORSDOF 5
