REMARK  Name = ZINC38700679
REMARK  8 active torsions:
REMARK  status: ('A' for Active; 'I' for Inactive)
REMARK    1  A    between atoms: C_1  and  S_2
REMARK    2  A    between atoms: S_2  and  C_3
REMARK    3  A    between atoms: C_6  and  C_9
REMARK    4  A    between atoms: C_14  and  O_23
REMARK    5  A    between atoms: C_18  and  N_22
REMARK    6  A    between atoms: C_19  and  C_20
REMARK    7  A    between atoms: O_23  and  C_24
REMARK    8  A    between atoms: C_24  and  C_26
REMARK                            x       y       z     vdW  Elec       q    Type
REMARK                         _______ _______ _______ _____ _____    ______ ____
ROOT
ATOM      1  C   UNL     1      -5.809  -1.597   0.077  0.00  0.00    +0.098 C 
ATOM      2  C   UNL     1      -6.128  -2.390  -1.163  0.00  0.00    +0.008 A 
ATOM      3  C   UNL     1      -6.362  -1.725  -2.354  0.00  0.00    +0.012 A 
ATOM      4  C   UNL     1      -6.656  -2.436  -3.501  0.00  0.00    +0.047 A 
ATOM      5  C   UNL     1      -6.718  -3.822  -3.462  0.00  0.00    +0.135 A 
ATOM      6  C   UNL     1      -6.483  -4.490  -2.271  0.00  0.00    +0.093 A 
ATOM      7  C   UNL     1      -6.188  -3.774  -1.118  0.00  0.00    +0.138 A 
ATOM      8  O   UNL     1      -5.961  -4.442   0.040  0.00  0.00    -0.441 OA
ATOM      9  C   UNL     1      -6.059  -3.799   1.215  0.00  0.00    +0.199 C 
ATOM     10  C   UNL     1      -5.993  -2.453   1.299  0.00  0.00    +0.098 C 
ENDROOT
BRANCH   1  14
ATOM     11  C   UNL     1      -1.758  -0.247  -0.108  0.00  0.00    +0.008 A 
ATOM     12  C   UNL     1      -2.796   0.674  -0.028  0.00  0.00    +0.015 A 
ATOM     13  C   UNL     1      -4.104   0.234   0.032  0.00  0.00    +0.005 A 
ATOM     14  C   UNL     1      -4.381  -1.121   0.012  0.00  0.00    -0.035 A 
ATOM     15  C   UNL     1      -3.350  -2.040  -0.068  0.00  0.00    +0.005 A 
ATOM     16  C   UNL     1      -2.041  -1.607  -0.135  0.00  0.00    +0.015 A 
BRANCH  11  18
ATOM     17  C   UNL     1      -0.225   2.118  -0.121  0.00  0.00    +0.090 C 
ATOM     18  S   UNL     1      -0.088   0.310  -0.185  0.00  0.00    -0.129 S 
ENDBRANCH  11  18
ENDBRANCH   1  14
BRANCH   9  19
ATOM     19  N   UNL     1      -6.229  -4.532   2.363  0.00  0.00    -0.328 N 
ATOM     20  H   UNL     1      -6.277  -5.500   2.318  0.00  0.00    +0.145 HD
ATOM     21  H   UNL     1      -6.301  -4.082   3.219  0.00  0.00    +0.145 HD
ENDBRANCH   9  19
BRANCH  10  22
ATOM     22  C   UNL     1      -6.102  -1.828   2.583  0.00  0.00    +0.101 C 
ATOM     23  N   UNL     1      -6.189  -1.333   3.601  0.00  0.00    -0.191 NA
ENDBRANCH  10  22
BRANCH   5  24
ATOM     24  O   UNL     1      -7.008  -4.523  -4.589  0.00  0.00    -0.422 OA
BRANCH  24  25
ATOM     25  C   UNL     1      -8.198  -5.154  -4.654  0.00  0.00    +0.351 C 
ATOM     26  O   UNL     1      -9.015  -5.001  -3.768  0.00  0.00    -0.244 OA
BRANCH  25  27
ATOM     27  C   UNL     1      -8.506  -6.027  -5.797  0.00  0.00    +0.144 A 
ATOM     28  C   UNL     1      -9.725  -6.686  -5.894  0.00  0.00    +0.033 A 
ATOM     29  C   UNL     1      -9.937  -7.536  -7.010  0.00  0.00    +0.018 A 
ATOM     30  C   UNL     1     -11.209  -8.067  -7.268  0.00  0.00    +0.011 A 
ATOM     31  C   UNL     1     -11.407  -8.849  -8.369  0.00  0.00    +0.001 A 
ATOM     32  C   UNL     1     -10.357  -9.131  -9.233  0.00  0.00    +0.004 A 
ATOM     33  C   UNL     1      -9.093  -8.635  -8.988  0.00  0.00    +0.047 A 
ATOM     34  C   UNL     1      -8.867  -7.843  -7.870  0.00  0.00    +0.139 A 
ATOM     35  O   UNL     1      -7.622  -7.386  -7.595  0.00  0.00    -0.422 OA
ATOM     36  C   UNL     1      -7.536  -6.233  -6.888  0.00  0.00    +0.351 A 
ATOM     37  O   UNL     1      -6.687  -5.399  -7.140  0.00  0.00    -0.244 OA
ENDBRANCH  25  27
ENDBRANCH  24  25
ENDBRANCH   5  24
TORSDOF 7
