REMARK  Name = ZINC18200732
REMARK  7 active torsions:
REMARK  status: ('A' for Active; 'I' for Inactive)
REMARK    1  A    between atoms: C_1  and  C_2
REMARK    2  A    between atoms: C_5  and  C_7
REMARK    3  A    between atoms: C_12  and  C_17
REMARK    4  A    between atoms: C_20  and  O_25
REMARK    5  A    between atoms: C_21  and  O_23
REMARK    6  A    between atoms: O_23  and  C_24
REMARK    7  A    between atoms: O_25  and  C_26
REMARK                            x       y       z     vdW  Elec       q    Type
REMARK                         _______ _______ _______ _____ _____    ______ ____
ROOT
ATOM      1  C   UNL     1       6.585  -0.261  -0.068  0.00  0.00    +0.211 C 
ATOM      2  C   UNL     1       5.242   0.432   0.003  0.00  0.00    +0.044 C 
ATOM      3  C   UNL     1       4.642   0.716   1.179  0.00  0.00    +0.020 C 
ATOM      4  C   UNL     1       3.309   1.425   1.218  0.00  0.00    +0.060 C 
ATOM      5  C   UNL     1       2.489   1.046  -0.017  0.00  0.00    +0.032 C 
ATOM      6  C   UNL     1       3.286   1.440  -1.265  0.00  0.00    +0.088 C 
ATOM      7  C   UNL     1       4.631   0.770  -1.218  0.00  0.00    +0.164 C 
ATOM      8  O   UNL     1       5.204   0.514  -2.259  0.00  0.00    -0.292 OA
ATOM      9  N   UNL     1       5.208   0.370   2.383  0.00  0.00    -0.287 N 
ATOM     10  C   UNL     1       6.260  -0.531   2.373  0.00  0.00    +0.220 A 
ATOM     11  N   UNL     1       6.915  -0.842   1.228  0.00  0.00    -0.216 N 
ATOM     12  N   UNL     1       7.898  -1.770   1.570  0.00  0.00    -0.132 NA
ATOM     13  C   UNL     1       7.798  -1.967   2.866  0.00  0.00    +0.233 A 
ATOM     14  N   UNL     1       6.801  -1.210   3.348  0.00  0.00    -0.180 NA
ATOM     15  N   UNL     1       8.600  -2.825   3.619  0.00  0.00    -0.326 N 
ATOM     16  H   UNL     1       4.881   0.747   3.215  0.00  0.00    +0.155 HD
ATOM     17  H   UNL     1       8.456  -2.910   4.575  0.00  0.00    +0.145 HD
ATOM     18  H   UNL     1       9.301  -3.338   3.188  0.00  0.00    +0.145 HD
ENDROOT
BRANCH   1  23
ATOM     19  C   UNL     1       5.216  -4.456  -2.511  0.00  0.00    +0.086 C 
ATOM     20  C   UNL     1       5.935  -3.177  -2.168  0.00  0.00    +0.102 A 
ATOM     21  C   UNL     1       6.913  -2.605  -2.893  0.00  0.00    +0.045 A 
ATOM     22  C   UNL     1       7.293  -1.427  -2.211  0.00  0.00    +0.047 A 
ATOM     23  C   UNL     1       6.530  -1.353  -1.105  0.00  0.00    +0.134 A 
ATOM     24  O   UNL     1       5.707  -2.414  -1.086  0.00  0.00    -0.462 OA
ENDBRANCH   1  23
BRANCH   5  25
ATOM     25  C   UNL     1       1.175   1.783   0.000  0.00  0.00    -0.040 A 
ATOM     26  C   UNL     1       1.160   3.166   0.008  0.00  0.00    +0.008 A 
ATOM     27  C   UNL     1      -0.043   3.847   0.023  0.00  0.00    +0.049 A 
ATOM     28  C   UNL     1      -1.237   3.144   0.030  0.00  0.00    +0.161 A 
ATOM     29  C   UNL     1      -1.222   1.752   0.017  0.00  0.00    +0.162 A 
ATOM     30  C   UNL     1      -0.013   1.076   0.008  0.00  0.00    +0.053 A 
BRANCH  29  31
ATOM     31  O   UNL     1      -2.391   1.058   0.019  0.00  0.00    -0.491 OA
ATOM     32  C   UNL     1      -2.299  -0.368   0.011  0.00  0.00    +0.277 C 
ENDBRANCH  29  31
BRANCH  28  33
ATOM     33  O   UNL     1      -2.421   3.812   0.044  0.00  0.00    -0.491 OA
ATOM     34  C   UNL     1      -2.361   5.240   0.051  0.00  0.00    +0.277 C 
ENDBRANCH  28  33
ENDBRANCH   5  25
TORSDOF 4
