REMARK  Name = ZINC39695786
REMARK  7 active torsions:
REMARK  status: ('A' for Active; 'I' for Inactive)
REMARK    1  A    between atoms: C_1  and  C_2
REMARK    2  A    between atoms: C_9  and  C_11
REMARK    3  A    between atoms: C_11  and  C_13
REMARK    4  A    between atoms: C_11  and  N_14
REMARK    5  A    between atoms: C_15  and  C_17
REMARK    6  A    between atoms: C_28  and  C_30
REMARK    7  A    between atoms: C_33  and  C_38
REMARK                            x       y       z     vdW  Elec       q    Type
REMARK                         _______ _______ _______ _____ _____    ______ ____
ROOT
ATOM      1  C   UNL     1       1.869  -8.731   0.983  0.00  0.00    +0.100 C 
ATOM      2  C   UNL     1       0.768  -9.461   0.182  0.00  0.00    +0.121 C 
ATOM      3  N   UNL     1       1.232 -10.867   0.105  0.00  0.00    -0.296 N 
ATOM      4  C   UNL     1       1.818 -11.136   1.440  0.00  0.00    +0.115 C 
ATOM      5  C   UNL     1       2.555  -9.833   1.808  0.00  0.00    -0.004 C 
ATOM      6  C   UNL     1       2.407  -9.546   3.299  0.00  0.00    -0.010 C 
ATOM      7  C   UNL     1       3.147 -10.624   4.097  0.00  0.00    -0.082 C 
ATOM      8  N   UNL     1       4.565 -10.629   3.718  0.00  0.00    +0.379 N 
ATOM      9  C   UNL     1       4.704 -10.997   2.303  0.00  0.00    -0.082 C 
ATOM     10  C   UNL     1       4.030  -9.935   1.429  0.00  0.00    -0.010 C 
ATOM     11  C   UNL     1       1.142 -11.710  -0.943  0.00  0.00    +0.250 C 
ATOM     12  O   UNL     1       0.720 -11.310  -2.011  0.00  0.00    -0.270 OA
ATOM     13  H   UNL     1       4.955  -9.710   3.865  0.00  0.00    -0.086 HD
ATOM     14  H   UNL     1       5.062 -11.297   4.288  0.00  0.00    -0.086 HD
ENDROOT
BRANCH  11  15
ATOM     15  C   UNL     1       1.556 -13.120  -0.794  0.00  0.00    +0.075 A 
ATOM     16  C   UNL     1       1.345 -13.789   0.414  0.00  0.00    +0.016 A 
ATOM     17  C   UNL     1       1.734 -15.105   0.548  0.00  0.00    +0.007 A 
ATOM     18  C   UNL     1       2.332 -15.767  -0.511  0.00  0.00    -0.012 A 
ATOM     19  C   UNL     1       2.545 -15.113  -1.712  0.00  0.00    +0.162 A 
ATOM     20  C   UNL     1       2.155 -13.793  -1.863  0.00  0.00    +0.171 A 
ATOM     21  F   UNL     1       2.357 -13.155  -3.037  0.00  0.00    -0.202 F 
ATOM     22  F   UNL     1       3.130 -15.766  -2.740  0.00  0.00    -0.202 F 
ATOM     23  C   UNL     1       2.753 -17.205  -0.354  0.00  0.00    +0.047 C 
ENDBRANCH  11  15
BRANCH   1  25
ATOM     24  N   UNL     1       2.009  -6.681   2.361  0.00  0.00    -0.305 N 
ATOM     25  C   UNL     1       1.257  -7.698   1.894  0.00  0.00    +0.219 C 
ATOM     26  O   UNL     1       0.088  -7.781   2.206  0.00  0.00    -0.275 OA
ATOM     27  H   UNL     1       2.944  -6.615   2.111  0.00  0.00    +0.149 HD
BRANCH  24  28
ATOM     28  C   UNL     1       1.414  -5.677   3.247  0.00  0.00    +0.136 C 
ATOM     29  C   UNL     1       0.735  -4.594   2.406  0.00  0.00    +0.036 C 
BRANCH  28  38
ATOM     30  C   UNL     1       5.749  -2.339   8.291  0.00  0.00    +0.044 C 
ATOM     31  C   UNL     1       5.281  -3.053   7.049  0.00  0.00    -0.048 A 
ATOM     32  C   UNL     1       6.196  -3.389   6.062  0.00  0.00    +0.005 A 
ATOM     33  C   UNL     1       5.792  -4.036   4.928  0.00  0.00    +0.030 A 
ATOM     34  C   UNL     1       4.445  -4.365   4.758  0.00  0.00    +0.089 A 
ATOM     35  C   UNL     1       3.518  -4.025   5.757  0.00  0.00    +0.067 A 
ATOM     36  C   UNL     1       3.948  -3.372   6.904  0.00  0.00    +0.031 A 
ATOM     37  N   UNL     1       2.292  -4.474   5.309  0.00  0.00    -0.340 N 
ATOM     38  C   UNL     1       2.493  -5.053   4.094  0.00  0.00    +0.128 A 
ATOM     39  N   UNL     1       3.752  -4.990   3.771  0.00  0.00    -0.231 NA
ATOM     40  H   UNL     1       1.445  -4.391   5.773  0.00  0.00    +0.167 HD
ENDBRANCH  28  38
ENDBRANCH  24  28
ENDBRANCH   1  25
TORSDOF 4
