REMARK  Name = ZINC16011540
REMARK  4 active torsions:
REMARK  status: ('A' for Active; 'I' for Inactive)
REMARK    1  A    between atoms: C_12  and  C_15
REMARK    2  A    between atoms: C_15  and  C_16
REMARK    3  A    between atoms: C_19  and  O_22
REMARK    4  A    between atoms: N_25  and  C_28
REMARK                            x       y       z     vdW  Elec       q    Type
REMARK                         _______ _______ _______ _____ _____    ______ ____
ROOT
ATOM      1  C   UNL     1      -0.017   1.379   0.010  0.00  0.00    +0.000 A 
ATOM      2  C   UNL     1       1.173   2.084   0.002  0.00  0.00    +0.002 A 
ATOM      3  C   UNL     1       2.379   1.414  -0.013  0.00  0.00    +0.023 A 
ATOM      4  C   UNL     1       2.407   0.021  -0.021  0.00  0.00    +0.039 A 
ATOM      5  C   UNL     1       1.203  -0.677  -0.012  0.00  0.00    +0.003 A 
ATOM      6  C   UNL     1       0.002  -0.004   0.002  0.00  0.00    +0.008 A 
ATOM      7  C   UNL     1       1.575  -2.132  -0.021  0.00  0.00    +0.136 C 
ATOM      8  C   UNL     1       0.962  -2.889  -1.181  0.00  0.00    +0.123 C 
ATOM      9  C   UNL     1       1.173  -4.340  -0.596  0.00  0.00    +0.108 C 
ATOM     10  C   UNL     1       0.690  -4.230   0.787  0.00  0.00    +0.072 C 
ATOM     11  N   UNL     1       1.048  -2.819   1.191  0.00  0.00    -0.295 NA
ATOM     12  C   UNL     1       0.996  -5.164  -1.767  0.00  0.00    +0.232 C 
ATOM     13  O   UNL     1       0.512  -6.274  -1.824  0.00  0.00    -0.274 OA
ATOM     14  N   UNL     1       1.496  -4.415  -2.804  0.00  0.00    -0.210 N 
ATOM     15  C   UNL     1       1.706  -3.095  -2.464  0.00  0.00    +0.233 C 
ATOM     16  O   UNL     1       2.358  -2.270  -3.068  0.00  0.00    -0.274 OA
ATOM     17  C   UNL     1       3.077  -2.155  -0.037  0.00  0.00    +0.243 C 
ATOM     18  O   UNL     1       3.787  -3.139  -0.050  0.00  0.00    -0.273 OA
ATOM     19  N   UNL     1       3.483  -0.870  -0.035  0.00  0.00    -0.283 N 
ATOM     20  H   UNL     1       1.727  -2.809   1.936  0.00  0.00    +0.124 HD
ATOM     21  H   UNL     1       4.413  -0.596  -0.043  0.00  0.00    +0.155 HD
ENDROOT
BRANCH  14  22
ATOM     22  C   UNL     1       1.757  -4.933  -4.081  0.00  0.00    +0.044 A 
ATOM     23  C   UNL     1       2.269  -4.109  -5.074  0.00  0.00    +0.027 A 
ATOM     24  C   UNL     1       2.526  -4.622  -6.330  0.00  0.00    +0.040 A 
ATOM     25  C   UNL     1       2.272  -5.956  -6.601  0.00  0.00    +0.124 A 
ATOM     26  C   UNL     1       1.761  -6.779  -5.611  0.00  0.00    +0.040 A 
ATOM     27  C   UNL     1       1.509  -6.272  -4.352  0.00  0.00    +0.027 A 
ATOM     28  F   UNL     1       2.522  -6.455  -7.831  0.00  0.00    -0.205 F 
ENDBRANCH  14  22
BRANCH  10  29
ATOM     29  C   UNL     1      -0.821  -4.463   0.846  0.00  0.00    +0.054 C 
BRANCH  29  30
ATOM     30  C   UNL     1      -1.273  -4.468   2.284  0.00  0.00    -0.046 A 
ATOM     31  C   UNL     1      -1.290  -5.652   2.998  0.00  0.00    +0.007 A 
ATOM     32  C   UNL     1      -1.704  -5.660   4.316  0.00  0.00    +0.045 A 
ATOM     33  C   UNL     1      -2.103  -4.478   4.923  0.00  0.00    +0.117 A 
ATOM     34  C   UNL     1      -2.084  -3.291   4.204  0.00  0.00    +0.045 A 
ATOM     35  C   UNL     1      -1.664  -3.288   2.888  0.00  0.00    +0.007 A 
BRANCH  33  36
ATOM     36  O   UNL     1      -2.511  -4.482   6.219  0.00  0.00    -0.507 OA
ATOM     37  H   UNL     1      -1.799  -4.338   6.856  0.00  0.00    +0.292 HD
ENDBRANCH  33  36
ENDBRANCH  29  30
ENDBRANCH  10  29
TORSDOF 4
