REMARK  Name = ZINC08800212
REMARK  9 active torsions:
REMARK  status: ('A' for Active; 'I' for Inactive)
REMARK    1  A    between atoms: C_1  and  C_2
REMARK    2  A    between atoms: C_5  and  S_9
REMARK    3  A    between atoms: C_6  and  C_8
REMARK    4  A    between atoms: S_9  and  N_12
REMARK    5  A    between atoms: N_12  and  C_13
REMARK    6  A    between atoms: C_13  and  C_14
REMARK    7  A    between atoms: C_14  and  C_16
REMARK    8  A    between atoms: C_14  and  N_66
REMARK    9  A    between atoms: N_25  and  C_26
REMARK                            x       y       z     vdW  Elec       q    Type
REMARK                         _______ _______ _______ _____ _____    ______ ____
ROOT
ATOM      1  C   UNL     1       5.933   3.030  -2.806  0.00  0.00    -0.022 C 
ENDROOT
BRANCH   1   2
ATOM      2  C   UNL     1       6.428   4.431  -3.060  0.00  0.00    -0.059 A 
ATOM      3  C   UNL     1       5.886   5.181  -4.087  0.00  0.00    +0.004 A 
ATOM      4  C   UNL     1       6.341   6.461  -4.319  0.00  0.00    +0.023 A 
ATOM      5  C   UNL     1       7.348   7.008  -3.522  0.00  0.00    +0.033 A 
ATOM      6  C   UNL     1       7.883   6.255  -2.492  0.00  0.00    -0.026 A 
ATOM      7  C   UNL     1       7.418   4.970  -2.263  0.00  0.00    +0.007 A 
ATOM      8  C   UNL     1       8.965   6.791  -1.588  0.00  0.00    +0.038 C 
ATOM      9  C   UNL     1       9.598   8.032  -2.222  0.00  0.00    +0.024 C 
ATOM     10  C   UNL     1       8.464   8.949  -2.698  0.00  0.00    +0.105 C 
ATOM     11  N   UNL     1       7.776   8.302  -3.817  0.00  0.00    -0.333 N 
ATOM     12  C   UNL     1       6.660   9.128  -4.297  0.00  0.00    +0.129 C 
ENDBRANCH   1   2
BRANCH   1  18
ATOM     13  C   UNL     1       5.173   0.999  -3.881  0.00  0.00    -0.078 C 
ATOM     14  C   UNL     1       4.814   0.378  -5.233  0.00  0.00    -0.019 C 
ATOM     15  C   UNL     1       6.067   0.322  -6.112  0.00  0.00    -0.004 C 
ATOM     16  C   UNL     1       6.632   1.736  -6.272  0.00  0.00    -0.019 C 
ATOM     17  C   UNL     1       6.938   2.318  -4.890  0.00  0.00    -0.078 C 
ATOM     18  N   UNL     1       5.687   2.367  -4.103  0.00  0.00    +0.385 N 
ATOM     19  H   UNL     1       4.986   2.906  -4.625  0.00  0.00    -0.081 HD
ENDBRANCH   1  18
BRANCH   1  20
ATOM     20  C   UNL     1       4.622   3.087  -2.021  0.00  0.00    +0.095 C 
BRANCH  20  21
ATOM     21  N   UNL     1       4.864   3.688  -0.707  0.00  0.00    -0.191 NA
ATOM     22  H   UNL     1       5.769   3.761  -0.367  0.00  0.00    +0.148 HD
BRANCH  21  23
ATOM     23  S   UNL     1       3.592   4.242   0.198  0.00  0.00    +0.059 S 
ATOM     24  O   UNL     1       2.837   5.099  -0.647  0.00  0.00    -0.153 OA
ATOM     25  O   UNL     1       4.135   4.677   1.437  0.00  0.00    -0.153 OA
BRANCH  23  30
ATOM     26  C   UNL     1       0.075  -0.503   1.428  0.00  0.00    +0.044 C 
ATOM     27  C   UNL     1       0.953   0.682   1.121  0.00  0.00    -0.050 A 
ATOM     28  C   UNL     1       0.473   1.714   0.336  0.00  0.00    +0.005 A 
ATOM     29  C   UNL     1       1.280   2.798   0.050  0.00  0.00    +0.029 A 
ATOM     30  C   UNL     1       2.565   2.856   0.557  0.00  0.00    +0.108 A 
ATOM     31  C   UNL     1       3.044   1.827   1.345  0.00  0.00    -0.024 A 
ATOM     32  C   UNL     1       2.238   0.739   1.627  0.00  0.00    +0.008 A 
ATOM     33  C   UNL     1       4.445   1.890   1.898  0.00  0.00    +0.046 C 
ENDBRANCH  23  30
ENDBRANCH  21  23
ENDBRANCH  20  21
ENDBRANCH   1  20
TORSDOF 6
