REMARK  Name = ZINC00720219
REMARK  8 active torsions:
REMARK  status: ('A' for Active; 'I' for Inactive)
REMARK    1  A    between atoms: C_1  and  O_2
REMARK    2  A    between atoms: O_2  and  C_3
REMARK    3  A    between atoms: C_6  and  C_11
REMARK    4  A    between atoms: C_8  and  O_9
REMARK    5  A    between atoms: O_9  and  C_10
REMARK    6  A    between atoms: C_13  and  C_32
REMARK    7  A    between atoms: C_14  and  N_31
REMARK    8  A    between atoms: N_15  and  C_23
REMARK                            x       y       z     vdW  Elec       q    Type
REMARK                         _______ _______ _______ _____ _____    ______ ____
ROOT
ATOM      1  C   UNL     1      -2.557   4.152   0.049  0.00  0.00    +0.097 C 
ATOM      2  C   UNL     1      -2.661   5.002  -1.183  0.00  0.00    +0.077 C 
ATOM      3  C   UNL     1      -2.448   6.341  -1.132  0.00  0.00    +0.107 C 
ATOM      4  N   UNL     1      -2.137   6.946   0.064  0.00  0.00    -0.255 N 
ATOM      5  C   UNL     1      -2.420   6.325   1.252  0.00  0.00    +0.025 C 
ATOM      6  C   UNL     1      -2.637   4.993   1.298  0.00  0.00    +0.025 C 
ATOM      7  C   UNL     1      -2.946   4.351   2.510  0.00  0.00    +0.162 C 
ATOM      8  O   UNL     1      -3.125   3.149   2.518  0.00  0.00    -0.292 OA
ATOM      9  C   UNL     1      -3.059   5.123   3.795  0.00  0.00    +0.080 C 
ATOM     10  C   UNL     1      -3.495   6.558   3.479  0.00  0.00    +0.014 C 
ATOM     11  C   UNL     1      -2.486   7.167   2.503  0.00  0.00    +0.052 C 
ENDROOT
BRANCH   4  12
ATOM     12  C   UNL     1      -1.525   8.207   0.067  0.00  0.00    +0.110 A 
ATOM     13  C   UNL     1      -2.303   9.359   0.080  0.00  0.00    +0.148 A 
ATOM     14  C   UNL     1      -1.695  10.601   0.088  0.00  0.00    +0.040 A 
ATOM     15  C   UNL     1      -0.316  10.698   0.073  0.00  0.00    +0.006 A 
ATOM     16  C   UNL     1       0.462   9.555   0.056  0.00  0.00    +0.040 A 
ATOM     17  C   UNL     1      -0.139   8.309   0.052  0.00  0.00    +0.148 A 
ATOM     18  F   UNL     1       0.622   7.192   0.035  0.00  0.00    -0.203 F 
ATOM     19  F   UNL     1      -3.650   9.265   0.088  0.00  0.00    -0.203 F 
ENDBRANCH   4  12
BRANCH   1  23
ATOM     20  C   UNL     1       1.178   2.069   0.002  0.00  0.00    +0.162 A 
ATOM     21  C   UNL     1       1.154   3.455   0.010  0.00  0.00    +0.050 A 
ATOM     22  C   UNL     1      -0.055   4.125   0.025  0.00  0.00    +0.008 A 
ATOM     23  C   UNL     1      -1.242   3.416   0.033  0.00  0.00    -0.031 A 
ATOM     24  C   UNL     1      -1.225   2.034   0.019  0.00  0.00    +0.054 A 
ATOM     25  C   UNL     1      -0.016   1.356   0.009  0.00  0.00    +0.162 A 
BRANCH  20  27
ATOM     26  C   UNL     1       3.552   2.206  -0.021  0.00  0.00    +0.277 C 
ATOM     27  O   UNL     1       2.367   1.409  -0.013  0.00  0.00    -0.491 OA
ENDBRANCH  20  27
BRANCH  25  28
ATOM     28  O   UNL     1       0.002  -0.004   0.002  0.00  0.00    -0.491 OA
ATOM     29  C   UNL     1      -1.262  -0.670   0.011  0.00  0.00    +0.277 C 
ENDBRANCH  25  28
ENDBRANCH   1  23
BRANCH   3  30
ATOM     30  N   UNL     1      -2.542   7.095  -2.278  0.00  0.00    -0.345 N 
ATOM     31  H   UNL     1      -2.390   8.052  -2.242  0.00  0.00    +0.144 HD
ATOM     32  H   UNL     1      -2.761   6.669  -3.122  0.00  0.00    +0.144 HD
ENDBRANCH   3  30
BRANCH   2  33
ATOM     33  C   UNL     1      -2.990   4.389  -2.435  0.00  0.00    +0.099 C 
ATOM     34  N   UNL     1      -3.252   3.904  -3.428  0.00  0.00    -0.191 NA
ENDBRANCH   2  33
TORSDOF 6
