REMARK  Name = ZINC38965700
REMARK  11 active torsions:
REMARK  status: ('A' for Active; 'I' for Inactive)
REMARK    1  A    between atoms: C_1  and  C_2
REMARK    2  A    between atoms: C_2  and  C_3
REMARK    3  A    between atoms: C_3  and  C_4
REMARK    4  A    between atoms: C_4  and  O_5
REMARK    5  A    between atoms: O_5  and  C_6
REMARK    6  A    between atoms: C_6  and  C_8
REMARK    7  A    between atoms: C_11  and  N_14
REMARK    8  A    between atoms: N_14  and  C_15
REMARK    9  A    between atoms: N_18  and  S_19
REMARK   10  A    between atoms: S_19  and  C_22
REMARK   11  A    between atoms: C_25  and  C_28
REMARK                            x       y       z     vdW  Elec       q    Type
REMARK                         _______ _______ _______ _____ _____    ______ ____
ROOT
ATOM      1  C   UNL     1       4.306  -7.359  -7.269  0.00  0.00    +0.237 C 
ATOM      2  C   UNL     1       5.779  -7.596  -7.515  0.00  0.00    +0.192 C 
ATOM      3  N   UNL     1       6.666  -7.173  -6.664  0.00  0.00    -0.110 NA
ATOM      4  N   UNL     1       6.157  -8.250  -8.625  0.00  0.00    -0.226 NA
ATOM      5  C   UNL     1       5.278  -8.689  -9.501  0.00  0.00    +0.089 A 
ATOM      6  C   UNL     1       5.713  -9.376 -10.663  0.00  0.00    +0.030 A 
ATOM      7  C   UNL     1       4.816  -9.828 -11.566  0.00  0.00    +0.002 A 
ATOM      8  C   UNL     1       3.431  -9.650 -11.414  0.00  0.00    +0.002 A 
ATOM      9  C   UNL     1       2.909  -9.009 -10.345  0.00  0.00    +0.027 A 
ATOM     10  C   UNL     1       3.820  -8.487  -9.316  0.00  0.00    +0.063 A 
ATOM     11  N   UNL     1       3.353  -7.864  -8.271  0.00  0.00    -0.359 N 
ATOM     12  H   UNL     1       2.399  -7.735  -8.156  0.00  0.00    +0.162 HD
ENDROOT
BRANCH   3  13
ATOM     13  S   UNL     1       8.276  -7.439  -6.945  0.00  0.00    +0.100 S 
ATOM     14  O   UNL     1       8.475  -8.844  -6.872  0.00  0.00    -0.146 OA
ATOM     15  O   UNL     1       8.618  -6.680  -8.097  0.00  0.00    -0.146 OA
BRANCH  13  16
ATOM     16  C   UNL     1       9.164  -6.734  -5.597  0.00  0.00    +0.113 A 
ATOM     17  C   UNL     1       9.576  -5.415  -5.654  0.00  0.00    +0.029 A 
ATOM     18  C   UNL     1      10.273  -4.862  -4.596  0.00  0.00    +0.005 A 
ATOM     19  C   UNL     1      10.557  -5.627  -3.480  0.00  0.00    -0.050 A 
ATOM     20  C   UNL     1      10.144  -6.945  -3.422  0.00  0.00    +0.005 A 
ATOM     21  C   UNL     1       9.444  -7.497  -4.479  0.00  0.00    +0.029 A 
ATOM     22  C   UNL     1      11.317  -5.024  -2.327  0.00  0.00    +0.044 C 
ENDBRANCH  13  16
ENDBRANCH   3  13
BRANCH   1  23
ATOM     23  N   UNL     1       4.100  -5.914  -7.144  0.00  0.00    -0.318 N 
ATOM     24  H   UNL     1       4.442  -5.315  -7.826  0.00  0.00    +0.148 HD
BRANCH  23  28
ATOM     25  C   UNL     1       2.054  -4.383  -3.866  0.00  0.00    +0.059 A 
ATOM     26  C   UNL     1       2.102  -5.764  -4.080  0.00  0.00    +0.017 A 
ATOM     27  C   UNL     1       2.777  -6.266  -5.162  0.00  0.00    +0.024 A 
ATOM     28  C   UNL     1       3.415  -5.402  -6.048  0.00  0.00    +0.029 A 
ATOM     29  C   UNL     1       3.369  -4.026  -5.839  0.00  0.00    +0.024 A 
ATOM     30  C   UNL     1       2.691  -3.518  -4.761  0.00  0.00    +0.017 A 
BRANCH  25  31
ATOM     31  C   UNL     1       1.328  -3.840  -2.704  0.00  0.00    +0.339 C 
ATOM     32  O   UNL     1       1.282  -2.639  -2.523  0.00  0.00    -0.245 OA
BRANCH  31  33
ATOM     33  O   UNL     1       0.715  -4.675  -1.842  0.00  0.00    -0.461 OA
BRANCH  33  34
ATOM     34  C   UNL     1       0.030  -4.080  -0.738  0.00  0.00    +0.232 C 
BRANCH  34  35
ATOM     35  C   UNL     1      -0.599  -5.177   0.123  0.00  0.00    +0.041 C 
BRANCH  35  37
ATOM     36  C   UNL     1      -1.961  -5.637   2.167  0.00  0.00    +0.004 C 
ATOM     37  C   UNL     1      -1.332  -4.540   1.305  0.00  0.00    -0.000 C 
ENDBRANCH  35  37
ENDBRANCH  34  35
ENDBRANCH  33  34
ENDBRANCH  31  33
ENDBRANCH  25  31
ENDBRANCH  23  28
ENDBRANCH   1  23
TORSDOF 9
