REMARK  Name = ZINC34971467
REMARK  7 active torsions:
REMARK  status: ('A' for Active; 'I' for Inactive)
REMARK    1  A    between atoms: C_1  and  C_2
REMARK    2  A    between atoms: C_2  and  C_3
REMARK    3  A    between atoms: C_2  and  C_4
REMARK    4  A    between atoms: C_19  and  C_21
REMARK    5  A    between atoms: C_21  and  N_22
REMARK    6  A    between atoms: C_23  and  C_25
REMARK    7  A    between atoms: C_25  and  C_27
REMARK                            x       y       z     vdW  Elec       q    Type
REMARK                         _______ _______ _______ _____ _____    ______ ____
ROOT
ATOM      1  C   UNL     1      -1.455  -0.471  -0.028  0.00  0.00    +0.125 C 
ATOM      2  C   UNL     1      -1.515  -1.975   0.116  0.00  0.00    +0.041 A 
ATOM      3  C   UNL     1      -1.950  -2.600   1.231  0.00  0.00    -0.016 A 
ATOM      4  C   UNL     1      -1.853  -4.025   0.982  0.00  0.00    +0.003 A 
ATOM      5  C   UNL     1      -2.154  -5.146   1.762  0.00  0.00    +0.010 A 
ATOM      6  C   UNL     1      -1.933  -6.375   1.192  0.00  0.00    +0.001 A 
ATOM      7  C   UNL     1      -1.436  -6.512  -0.094  0.00  0.00    +0.002 A 
ATOM      8  C   UNL     1      -1.129  -5.420  -0.887  0.00  0.00    +0.026 A 
ATOM      9  C   UNL     1      -1.343  -4.159  -0.335  0.00  0.00    +0.047 A 
ATOM     10  N   UNL     1      -1.152  -2.900  -0.827  0.00  0.00    -0.356 N 
ATOM     11  H   UNL     1      -0.810  -2.692  -1.710  0.00  0.00    +0.166 HD
ATOM     12  C   UNL     1      -2.440  -1.901   2.473  0.00  0.00    +0.056 C 
ATOM     13  C   UNL     1      -1.958  -0.445   2.448  0.00  0.00    +0.113 C 
ATOM     14  N   UNL     1      -2.191   0.113   1.106  0.00  0.00    -0.291 N 
ATOM     15  C   UNL     1      -3.054   1.131   0.920  0.00  0.00    +0.233 C 
ATOM     16  O   UNL     1      -3.233   1.578  -0.194  0.00  0.00    -0.274 OA
ENDROOT
BRANCH   1  18
ATOM     17  C   UNL     1       0.734  -0.539  -1.230  0.00  0.00    +0.009 C 
ATOM     18  C   UNL     1       0.002  -0.004   0.002  0.00  0.00    +0.009 C 
ATOM     19  C   UNL     1       0.048   1.525  -0.001  0.00  0.00    +0.009 C 
ENDBRANCH   1  18
BRANCH  15  20
ATOM     20  C   UNL     1      -3.797   1.715   2.094  0.00  0.00    +0.200 C 
BRANCH  20  21
ATOM     21  N   UNL     1      -4.666   2.800   1.632  0.00  0.00    -0.305 N 
ATOM     22  C   UNL     1      -5.431   3.472   2.515  0.00  0.00    +0.236 C 
ATOM     23  O   UNL     1      -5.400   3.179   3.691  0.00  0.00    -0.274 OA
ATOM     24  H   UNL     1      -4.691   3.034   0.691  0.00  0.00    +0.149 HD
BRANCH  22  25
ATOM     25  C   UNL     1      -6.325   4.588   2.039  0.00  0.00    +0.196 C 
ATOM     26 CL   UNL     1      -8.037   4.023   2.027  0.00  0.00    -0.107 Cl
BRANCH  25  27
ATOM     27  C   UNL     1      -6.192   5.768   2.968  0.00  0.00    -0.021 A 
ATOM     28  C   UNL     1      -6.601   5.661   4.284  0.00  0.00    +0.005 A 
ATOM     29  C   UNL     1      -6.480   6.743   5.136  0.00  0.00    +0.000 A 
ATOM     30  C   UNL     1      -5.949   7.932   4.671  0.00  0.00    +0.000 A 
ATOM     31  C   UNL     1      -5.539   8.039   3.355  0.00  0.00    +0.000 A 
ATOM     32  C   UNL     1      -5.657   6.955   2.505  0.00  0.00    +0.005 A 
ENDBRANCH  25  27
ENDBRANCH  22  25
ENDBRANCH  20  21
ENDBRANCH  15  20
TORSDOF 5
