REMARK  Name = ZINC67612658
REMARK  5 active torsions:
REMARK  status: ('A' for Active; 'I' for Inactive)
REMARK    1  A    between atoms: C_4  and  C_7
REMARK    2  A    between atoms: C_10  and  N_12
REMARK    3  A    between atoms: N_15  and  N_16
REMARK    4  A    between atoms: C_17  and  C_19
REMARK    5  A    between atoms: C_19  and  C_20
REMARK                            x       y       z     vdW  Elec       q    Type
REMARK                         _______ _______ _______ _____ _____    ______ ____
ROOT
ATOM      1  N   UNL     1       5.363  -1.736  -1.702  0.00  0.00    -0.295 N 
ATOM      2  C   UNL     1       5.608  -2.099  -2.976  0.00  0.00    +0.316 C 
ATOM      3  O   UNL     1       4.683  -2.347  -3.726  0.00  0.00    -0.251 OA
ATOM      4  N   UNL     1       6.878  -2.187  -3.420  0.00  0.00    -0.218 N 
ATOM      5  H   UNL     1       6.101  -1.538  -1.104  0.00  0.00    +0.151 HD
ATOM      6  H   UNL     1       7.054  -2.449  -4.337  0.00  0.00    +0.174 HD
ENDROOT
BRANCH   4   7
ATOM      7  N   UNL     1       7.943  -1.902  -2.556  0.00  0.00    -0.233 N 
ATOM      8  C   UNL     1       9.213  -1.990  -3.000  0.00  0.00    +0.234 C 
ATOM      9  O   UNL     1       9.433  -2.317  -4.147  0.00  0.00    -0.274 OA
ATOM     10  H   UNL     1       7.767  -1.641  -1.639  0.00  0.00    +0.173 HD
BRANCH   8  11
ATOM     11  C   UNL     1      10.358  -1.683  -2.071  0.00  0.00    +0.134 C 
BRANCH  11  12
ATOM     12  C   UNL     1      11.662  -1.855  -2.807  0.00  0.00    -0.014 A 
ATOM     13  C   UNL     1      12.430  -2.956  -2.823  0.00  0.00    +0.087 A 
ATOM     14  N   UNL     1      13.537  -2.741  -3.599  0.00  0.00    -0.360 N 
ATOM     15  H   UNL     1      14.238  -3.392  -3.762  0.00  0.00    +0.165 HD
ATOM     16  C   UNL     1      13.507  -1.464  -4.113  0.00  0.00    +0.047 A 
ATOM     17  C   UNL     1      12.328  -0.855  -3.645  0.00  0.00    +0.003 A 
ATOM     18  C   UNL     1      12.028   0.457  -4.014  0.00  0.00    +0.010 A 
ATOM     19  C   UNL     1      12.879   1.143  -4.834  0.00  0.00    +0.001 A 
ATOM     20  C   UNL     1      14.041   0.545  -5.302  0.00  0.00    +0.002 A 
ATOM     21  C   UNL     1      14.362  -0.746  -4.942  0.00  0.00    +0.026 A 
ENDBRANCH  11  12
ENDBRANCH   8  11
ENDBRANCH   4   7
BRANCH   1  24
ATOM     22  C   UNL     1       3.711  -0.707  -0.038  0.00  0.00    +0.041 C 
ATOM     23  C   UNL     1       3.675  -2.224   0.162  0.00  0.00    +0.033 C 
ATOM     24  C   UNL     1       3.983  -1.640  -1.219  0.00  0.00    +0.083 C 
BRANCH  22  28
ATOM     25  C   UNL     1      -0.017   1.378   0.010  0.00  0.00    +0.000 A 
ATOM     26  C   UNL     1       1.171   2.086   0.002  0.00  0.00    +0.000 A 
ATOM     27  C   UNL     1       2.377   1.411  -0.013  0.00  0.00    +0.004 A 
ATOM     28  C   UNL     1       2.396   0.029  -0.020  0.00  0.00    -0.042 A 
ATOM     29  C   UNL     1       1.208  -0.679  -0.012  0.00  0.00    +0.004 A 
ATOM     30  C   UNL     1       0.002  -0.004   0.002  0.00  0.00    +0.000 A 
ENDBRANCH  22  28
ENDBRANCH   1  24
TORSDOF 5
