REMARK  Name = ZINC04581761
REMARK  8 active torsions:
REMARK  status: ('A' for Active; 'I' for Inactive)
REMARK    1  A    between atoms: C_1  and  C_2
REMARK    2  A    between atoms: C_4  and  C_27
REMARK    3  A    between atoms: C_5  and  N_9
REMARK    4  A    between atoms: C_6  and  C_8
REMARK    5  A    between atoms: C_10  and  C_12
REMARK    6  A    between atoms: C_12  and  O_13
REMARK    7  A    between atoms: O_13  and  C_14
REMARK    8  A    between atoms: C_14  and  C_16
REMARK                            x       y       z     vdW  Elec       q    Type
REMARK                         _______ _______ _______ _____ _____    ______ ____
ROOT
ATOM      1  O   UNL     1       5.298  -0.409   1.514  0.00  0.00    -0.452 OA
ENDROOT
BRANCH   1   2
ATOM      2  C   UNL     1       4.158  -1.117   1.633  0.00  0.00    +0.340 C 
ATOM      3  O   UNL     1       3.992  -2.119   0.965  0.00  0.00    -0.245 OA
BRANCH   2   4
ATOM      4  C   UNL     1       3.111  -0.678   2.572  0.00  0.00    +0.061 A 
ATOM      5  C   UNL     1       3.303   0.476   3.340  0.00  0.00    +0.016 A 
ATOM      6  C   UNL     1       2.322   0.885   4.216  0.00  0.00    +0.017 A 
ATOM      7  C   UNL     1       1.147   0.155   4.335  0.00  0.00    +0.030 A 
ATOM      8  C   UNL     1       0.943  -1.003   3.576  0.00  0.00    +0.048 A 
ATOM      9  C   UNL     1       1.930  -1.413   2.694  0.00  0.00    +0.039 A 
ATOM     10  N   UNL     1      -0.225  -1.753   3.692  0.00  0.00    -0.284 N 
ATOM     11  C   UNL     1      -1.396  -1.321   4.152  0.00  0.00    +0.227 C 
ATOM     12  O   UNL     1      -2.324  -2.100   4.178  0.00  0.00    -0.275 OA
ATOM     13  C   UNL     1      -1.632   0.082   4.640  0.00  0.00    +0.170 C 
ATOM     14  S   UNL     1      -0.118   0.684   5.447  0.00  0.00    -0.114 S 
ATOM     15  H   UNL     1      -0.180  -2.680   3.409  0.00  0.00    +0.155 HD
ENDBRANCH   2   4
ENDBRANCH   1   2
BRANCH   1  16
ATOM     16  C   UNL     1       6.285  -0.901   0.569  0.00  0.00    +0.328 C 
BRANCH  16  18
ATOM     17  N   UNL     1       8.532  -0.249  -0.232  0.00  0.00    -0.282 N 
ATOM     18  C   UNL     1       7.483   0.012   0.573  0.00  0.00    +0.255 C 
ATOM     19  O   UNL     1       7.504   0.983   1.301  0.00  0.00    -0.272 OA
ATOM     20  H   UNL     1       8.538  -1.053  -0.775  0.00  0.00    +0.155 HD
BRANCH  17  25
ATOM     21  C   UNL     1      12.910   3.353  -0.448  0.00  0.00    +0.044 C 
ATOM     22  C   UNL     1      11.747   2.396  -0.390  0.00  0.00    -0.050 A 
ATOM     23  C   UNL     1      11.970   1.052  -0.152  0.00  0.00    +0.008 A 
ATOM     24  C   UNL     1      10.906   0.173  -0.099  0.00  0.00    -0.029 A 
ATOM     25  C   UNL     1       9.612   0.639  -0.285  0.00  0.00    +0.039 A 
ATOM     26  C   UNL     1       9.392   1.989  -0.529  0.00  0.00    -0.029 A 
ATOM     27  C   UNL     1      10.459   2.864  -0.576  0.00  0.00    +0.008 A 
ATOM     28  C   UNL     1       7.989   2.498  -0.737  0.00  0.00    +0.045 C 
ATOM     29  C   UNL     1      11.150  -1.291   0.161  0.00  0.00    +0.045 C 
ENDBRANCH  17  25
ENDBRANCH  16  18
ENDBRANCH   1  16
TORSDOF 5
