REMARK  Name = ZINC35864085
REMARK  13 active torsions:
REMARK  status: ('A' for Active; 'I' for Inactive)
REMARK    1  A    between atoms: C_1  and  N_2
REMARK    2  A    between atoms: N_2  and  C_3
REMARK    3  A    between atoms: N_2  and  C_4
REMARK    4  A    between atoms: C_4  and  C_5
REMARK    5  A    between atoms: C_5  and  N_6
REMARK    6  A    between atoms: N_6  and  C_7
REMARK    7  A    between atoms: C_7  and  C_8
REMARK    8  A    between atoms: C_15  and  C_17
REMARK    9  A    between atoms: C_17  and  O_18
REMARK   10  A    between atoms: O_18  and  C_19
REMARK   11  A    between atoms: C_26  and  C_28
REMARK   12  A    between atoms: C_31  and  O_34
REMARK   13  A    between atoms: O_34  and  C_35
REMARK                            x       y       z     vdW  Elec       q    Type
REMARK                         _______ _______ _______ _____ _____    ______ ____
ROOT
ATOM      1  C   UNL     1      -4.591   0.121  -1.088  0.00  0.00    +0.141 C 
ENDROOT
BRANCH   1   2
ATOM      2  C   UNL     1      -5.301   0.702  -2.312  0.00  0.00    +0.153 C 
ATOM      3  C   UNL     1      -6.515   1.522  -1.858  0.00  0.00    +0.141 C 
ATOM      4  N   UNL     1      -7.067   2.220  -3.030  0.00  0.00    -0.294 N 
ATOM      5  C   UNL     1      -6.144   2.996  -3.872  0.00  0.00    +0.136 C 
ATOM      6  C   UNL     1      -4.949   2.104  -4.228  0.00  0.00    +0.179 C 
ATOM      7  O   UNL     1      -4.401   1.550  -3.029  0.00  0.00    -0.372 OA
ATOM      8  C   UNL     1      -8.381   2.150  -3.323  0.00  0.00    +0.253 C 
ATOM      9  O   UNL     1      -9.127   1.505  -2.617  0.00  0.00    -0.272 OA
BRANCH   8  10
ATOM     10  C   UNL     1      -8.924   2.873  -4.529  0.00  0.00    +0.324 C 
BRANCH  10  11
ATOM     11  O   UNL     1     -10.331   2.648  -4.626  0.00  0.00    -0.483 OA
BRANCH  11  12
ATOM     12  C   UNL     1     -10.980   3.235  -5.666  0.00  0.00    +0.121 A 
ATOM     13  C   UNL     1     -10.274   4.007  -6.578  0.00  0.00    +0.047 A 
ATOM     14  C   UNL     1     -10.935   4.603  -7.635  0.00  0.00    +0.023 A 
ATOM     15  C   UNL     1     -12.300   4.430  -7.784  0.00  0.00    +0.041 A 
ATOM     16  C   UNL     1     -13.005   3.661  -6.876  0.00  0.00    +0.023 A 
ATOM     17  C   UNL     1     -12.347   3.058  -5.821  0.00  0.00    +0.047 A 
ATOM     18 CL   UNL     1     -13.129   5.180  -9.112  0.00  0.00    -0.084 Cl
ENDBRANCH  11  12
ENDBRANCH  10  11
ENDBRANCH   8  10
ENDBRANCH   1   2
BRANCH   1  19
ATOM     19  N   UNL     1      -3.430  -0.660  -1.522  0.00  0.00    -0.297 N 
ATOM     20  C   UNL     1      -3.564  -1.975  -1.788  0.00  0.00    +0.247 C 
ATOM     21  O   UNL     1      -4.661  -2.497  -1.735  0.00  0.00    -0.270 OA
BRANCH  20  22
ATOM     22  C   UNL     1      -2.379  -2.780  -2.143  0.00  0.00    +0.037 A 
ATOM     23  C   UNL     1      -1.144  -2.508  -1.550  0.00  0.00    +0.016 A 
ATOM     24  C   UNL     1      -0.041  -3.262  -1.883  0.00  0.00    +0.046 A 
ATOM     25  C   UNL     1      -0.155  -4.293  -2.809  0.00  0.00    +0.120 A 
ATOM     26  C   UNL     1      -1.383  -4.567  -3.401  0.00  0.00    +0.046 A 
ATOM     27  C   UNL     1      -2.491  -3.821  -3.068  0.00  0.00    +0.016 A 
BRANCH  25  28
ATOM     28  O   UNL     1       0.934  -5.033  -3.136  0.00  0.00    -0.495 OA
ATOM     29  C   UNL     1       0.746  -6.077  -4.094  0.00  0.00    +0.277 C 
ENDBRANCH  25  28
ENDBRANCH  20  22
BRANCH  19  30
ATOM     30  C   UNL     1      -2.124  -0.013  -1.668  0.00  0.00    +0.089 C 
BRANCH  30  31
ATOM     31  C   UNL     1      -1.535   0.265  -0.283  0.00  0.00    -0.060 C 
BRANCH  31  33
ATOM     32  C   UNL     1      -0.199   2.080  -1.104  0.00  0.00    -0.097 C 
ATOM     33  N   UNL     1      -0.166   0.777  -0.427  0.00  0.00    +0.377 N 
ATOM     34  C   UNL     1       0.442   0.930   0.901  0.00  0.00    -0.097 C 
ATOM     35  H   UNL     1       0.380   0.128  -0.974  0.00  0.00    -0.083 HD
ENDBRANCH  31  33
ENDBRANCH  30  31
ENDBRANCH  19  30
ENDBRANCH   1  19
TORSDOF 10
