REMARK  Name = ZINC36484951
REMARK  12 active torsions:
REMARK  status: ('A' for Active; 'I' for Inactive)
REMARK    1  A    between atoms: C_1  and  C_2
REMARK    2  A    between atoms: C_2  and  C_3
REMARK    3  A    between atoms: C_3  and  C_4
REMARK    4  A    between atoms: C_4  and  N_5
REMARK    5  A    between atoms: C_6  and  C_8
REMARK    6  A    between atoms: C_8  and  C_10
REMARK    7  A    between atoms: C_8  and  N_19
REMARK    8  A    between atoms: C_13  and  N_16
REMARK    9  A    between atoms: N_19  and  C_20
REMARK   10  A    between atoms: C_27  and  C_29
REMARK   11  A    between atoms: C_30  and  O_36
REMARK   12  A    between atoms: C_34  and  O_35
REMARK                            x       y       z     vdW  Elec       q    Type
REMARK                         _______ _______ _______ _____ _____    ______ ____
ROOT
ATOM      1  N   UNL     1       2.560  -5.776   4.662  0.00  0.00    -0.251 N 
ATOM      2  C   UNL     1       1.307  -6.207   4.909  0.00  0.00    +0.259 C 
ATOM      3  O   UNL     1       0.356  -5.615   4.435  0.00  0.00    -0.269 OA
ENDROOT
BRANCH   1   4
ATOM      4  C   UNL     1       3.648  -6.398   5.282  0.00  0.00    +0.039 A 
ATOM      5  C   UNL     1       4.217  -5.835   6.418  0.00  0.00    +0.023 A 
ATOM      6  C   UNL     1       5.291  -6.452   7.029  0.00  0.00    +0.003 A 
ATOM      7  C   UNL     1       5.801  -7.628   6.511  0.00  0.00    +0.020 A 
ATOM      8  C   UNL     1       5.238  -8.191   5.379  0.00  0.00    +0.043 A 
ATOM      9  C   UNL     1       4.158  -7.582   4.767  0.00  0.00    +0.043 A 
ATOM     10 CL   UNL     1       5.882  -9.668   4.732  0.00  0.00    -0.083 Cl
ENDBRANCH   1   4
BRANCH   2  11
ATOM     11  C   UNL     1       1.089  -7.393   5.752  0.00  0.00    +0.120 A 
ATOM     12  C   UNL     1       0.885  -7.251   7.132  0.00  0.00    +0.133 A 
ATOM     13  C   UNL     1       0.681  -8.375   7.917  0.00  0.00    +0.046 A 
ATOM     14  C   UNL     1       0.678  -9.633   7.343  0.00  0.00    +0.007 A 
ATOM     15  C   UNL     1       0.878  -9.784   5.984  0.00  0.00    +0.046 A 
ATOM     16  C   UNL     1       1.079  -8.674   5.180  0.00  0.00    +0.133 A 
BRANCH  16  17
ATOM     17  O   UNL     1       1.270  -8.825   3.845  0.00  0.00    -0.506 OA
ATOM     18  H   UNL     1       2.196  -8.932   3.590  0.00  0.00    +0.292 HD
ENDBRANCH  16  17
BRANCH  12  19
ATOM     19  O   UNL     1       0.888  -6.018   7.698  0.00  0.00    -0.506 OA
ATOM     20  H   UNL     1       0.018  -5.596   7.726  0.00  0.00    +0.292 HD
ENDBRANCH  12  19
ENDBRANCH   2  11
BRANCH   1  21
ATOM     21  C   UNL     1       2.782  -4.655   3.744  0.00  0.00    +0.197 C 
BRANCH  21  22
ATOM     22  C   UNL     1       4.245  -4.295   3.737  0.00  0.00    -0.018 A 
ATOM     23  C   UNL     1       5.187  -5.236   3.365  0.00  0.00    +0.008 A 
ATOM     24  C   UNL     1       6.529  -4.905   3.358  0.00  0.00    +0.033 A 
ATOM     25  C   UNL     1       6.929  -3.633   3.722  0.00  0.00    +0.126 A 
ATOM     26  C   UNL     1       5.987  -2.692   4.093  0.00  0.00    +0.033 A 
ATOM     27  C   UNL     1       4.645  -3.021   4.096  0.00  0.00    +0.008 A 
BRANCH  25  28
ATOM     28  N   UNL     1       8.367  -3.279   3.715  0.00  0.00    +0.056 N 
ATOM     29  O   UNL     1       9.190  -4.103   3.391  0.00  0.00    -0.126 OA
ATOM     30  O   UNL     1       8.717  -2.167   4.034  0.00  0.00    -0.126 OA
ENDBRANCH  25  28
ENDBRANCH  21  22
BRANCH  21  32
ATOM     31  N   UNL     1       2.468  -4.174   1.339  0.00  0.00    -0.313 N 
ATOM     32  C   UNL     1       2.355  -5.052   2.355  0.00  0.00    +0.238 C 
ATOM     33  O   UNL     1       1.909  -6.162   2.151  0.00  0.00    -0.273 OA
ATOM     34  H   UNL     1       2.825  -3.287   1.502  0.00  0.00    +0.149 HD
BRANCH  31  35
ATOM     35  C   UNL     1       2.053  -4.560  -0.013  0.00  0.00    +0.104 C 
BRANCH  35  36
ATOM     36  C   UNL     1       2.285  -3.390  -0.971  0.00  0.00    +0.018 C 
BRANCH  36  38
ATOM     37  C   UNL     1       2.083  -2.623  -3.340  0.00  0.00    +0.004 C 
ATOM     38  C   UNL     1       1.851  -3.793  -2.382  0.00  0.00    -0.002 C 
ENDBRANCH  36  38
ENDBRANCH  35  36
ENDBRANCH  31  35
ENDBRANCH  21  32
ENDBRANCH   1  21
TORSDOF 11
