REMARK  Name = ZINC20457905
REMARK  7 active torsions:
REMARK  status: ('A' for Active; 'I' for Inactive)
REMARK    1  A    between atoms: C_3  and  S_31
REMARK    2  A    between atoms: C_6  and  C_7
REMARK    3  A    between atoms: C_7  and  N_8
REMARK    4  A    between atoms: N_8  and  C_9
REMARK    5  A    between atoms: N_13  and  C_25
REMARK    6  A    between atoms: N_16  and  C_19
REMARK    7  A    between atoms: S_31  and  N_34
REMARK                            x       y       z     vdW  Elec       q    Type
REMARK                         _______ _______ _______ _____ _____    ______ ____
ROOT
ATOM      1  C   UNL     1      -0.070   5.344   0.030  0.00  0.00    +0.086 C 
ATOM      2  C   UNL     1      -0.059   3.978   0.242  0.00  0.00    +0.113 C 
ATOM      3  C   UNL     1       1.190   3.198   0.167  0.00  0.00    +0.261 C 
ATOM      4  O   UNL     1       2.250   3.740  -0.084  0.00  0.00    -0.269 OA
ATOM      5  N   UNL     1       1.125   1.869   0.385  0.00  0.00    -0.218 N 
ATOM      6  C   UNL     1      -0.036   1.260   0.663  0.00  0.00    +0.318 C 
ATOM      7  O   UNL     1      -0.026   0.059   0.849  0.00  0.00    -0.252 OA
ATOM      8  N   UNL     1      -1.209   1.904   0.742  0.00  0.00    -0.218 N 
ATOM      9  C   UNL     1      -1.295   3.237   0.552  0.00  0.00    +0.261 C 
ATOM     10  O   UNL     1      -2.364   3.812   0.631  0.00  0.00    -0.269 OA
ENDROOT
BRANCH   8  11
ATOM     11  C   UNL     1      -2.424   1.145   1.047  0.00  0.00    +0.086 C 
ATOM     12  C   UNL     1      -3.422   1.296  -0.103  0.00  0.00    +0.023 C 
ATOM     13  C   UNL     1      -4.691   0.503   0.215  0.00  0.00    +0.002 C 
ATOM     14  C   UNL     1      -5.315   1.036   1.506  0.00  0.00    +0.000 C 
ATOM     15  C   UNL     1      -4.317   0.885   2.656  0.00  0.00    +0.002 C 
ATOM     16  C   UNL     1      -3.048   1.678   2.338  0.00  0.00    +0.023 C 
ENDBRANCH   8  11
BRANCH   5  17
ATOM     17  C   UNL     1       2.353   1.072   0.316  0.00  0.00    +0.086 C 
ATOM     18  C   UNL     1       3.350   1.580   1.359  0.00  0.00    +0.023 C 
ATOM     19  C   UNL     1       4.632   0.748   1.287  0.00  0.00    +0.002 C 
ATOM     20  C   UNL     1       5.245   0.875  -0.109  0.00  0.00    +0.000 C 
ATOM     21  C   UNL     1       4.247   0.367  -1.152  0.00  0.00    +0.002 C 
ATOM     22  C   UNL     1       2.966   1.199  -1.080  0.00  0.00    +0.023 C 
ENDBRANCH   5  17
BRANCH   1  23
ATOM     23  N   UNL     1      -1.243   6.002  -0.058  0.00  0.00    -0.345 N 
ATOM     24  H   UNL     1      -2.190   5.443  -0.052  0.00  0.00    +0.146 HD
BRANCH  23  25
ATOM     25  C   UNL     1      -1.257   7.464  -0.161  0.00  0.00    +0.136 C 
BRANCH  25  31
ATOM     26  C   UNL     1      -3.291   8.092  -1.478  0.00  0.00    +0.007 A 
ATOM     27  C   UNL     1      -4.599   8.532  -1.554  0.00  0.00    +0.029 A 
ATOM     28  C   UNL     1      -5.295   8.837  -0.399  0.00  0.00    +0.105 A 
ATOM     29  C   UNL     1      -4.684   8.698   0.833  0.00  0.00    +0.029 A 
ATOM     30  C   UNL     1      -3.377   8.254   0.910  0.00  0.00    +0.007 A 
ATOM     31  C   UNL     1      -2.682   7.948  -0.245  0.00  0.00    -0.030 A 
BRANCH  28  32
ATOM     32  S   UNL     1      -6.961   9.402  -0.497  0.00  0.00    +0.056 S 
ATOM     33  O   UNL     1      -7.479   8.926  -1.732  0.00  0.00    -0.153 OA
ATOM     34  O   UNL     1      -7.567   9.099   0.751  0.00  0.00    -0.153 OA
BRANCH  32  35
ATOM     35  N   UNL     1      -6.912  11.054  -0.611  0.00  0.00    -0.204 NA
ATOM     36  H   UNL     1      -7.937  11.447  -0.674  0.00  0.00    +0.144 HD
ATOM     37  H   UNL     1      -6.351  11.343  -1.512  0.00  0.00    +0.144 HD
ENDBRANCH  32  35
ENDBRANCH  28  32
ENDBRANCH  25  31
ENDBRANCH  23  25
ENDBRANCH   1  23
TORSDOF 7
