REMARK  Name = ZINC38596012
REMARK  8 active torsions:
REMARK  status: ('A' for Active; 'I' for Inactive)
REMARK    1  A    between atoms: C_1  and  C_2
REMARK    2  A    between atoms: C_2  and  C_4
REMARK    3  A    between atoms: C_2  and  N_24
REMARK    4  A    between atoms: C_4  and  C_6
REMARK    5  A    between atoms: C_4  and  N_11
REMARK    6  A    between atoms: N_14  and  C_17
REMARK    7  A    between atoms: C_17  and  C_18
REMARK    8  A    between atoms: C_25  and  C_27
REMARK                            x       y       z     vdW  Elec       q    Type
REMARK                         _______ _______ _______ _____ _____    ______ ____
ROOT
ATOM      1  C   UNL     1       0.415   0.929  -0.816  0.00  0.00    +0.030 C 
ATOM      2  C   UNL     1      -0.009  -0.516  -0.547  0.00  0.00    +0.092 C 
ENDROOT
BRANCH   2   3
ATOM      3  N   UNL     1       0.905  -1.121   0.425  0.00  0.00    -0.310 N 
ATOM      4  C   UNL     1       2.061  -1.674   0.009  0.00  0.00    +0.225 C 
ATOM      5  O   UNL     1       2.345  -1.672  -1.171  0.00  0.00    -0.275 OA
ATOM      6  H   UNL     1       0.678  -1.123   1.368  0.00  0.00    +0.149 HD
BRANCH   4   7
ATOM      7  C   UNL     1       3.002  -2.296   1.008  0.00  0.00    +0.142 C 
ATOM      8  C   UNL     1       3.412  -1.258   2.017  0.00  0.00    +0.011 A 
ATOM      9  C   UNL     1       2.538  -0.915   3.033  0.00  0.00    +0.008 A 
ATOM     10  C   UNL     1       2.897   0.035   3.969  0.00  0.00    +0.001 A 
ATOM     11  C   UNL     1       4.134   0.648   3.893  0.00  0.00    +0.004 A 
ATOM     12  C   UNL     1       5.011   0.310   2.882  0.00  0.00    +0.046 A 
ATOM     13  C   UNL     1       4.653  -0.647   1.939  0.00  0.00    +0.133 A 
ATOM     14  O   UNL     1       5.527  -0.966   0.955  0.00  0.00    -0.455 OA
ATOM     15  C   UNL     1       5.407  -2.145   0.298  0.00  0.00    +0.133 A 
ATOM     16  C   UNL     1       4.207  -2.837   0.288  0.00  0.00    +0.011 A 
ATOM     17  C   UNL     1       4.110  -4.038  -0.391  0.00  0.00    +0.008 A 
ATOM     18  C   UNL     1       5.206  -4.551  -1.058  0.00  0.00    +0.001 A 
ATOM     19  C   UNL     1       6.405  -3.863  -1.050  0.00  0.00    +0.004 A 
ATOM     20  C   UNL     1       6.508  -2.663  -0.375  0.00  0.00    +0.046 A 
ENDBRANCH   4   7
ENDBRANCH   2   3
BRANCH   2  21
ATOM     21  C   UNL     1      -1.433  -0.534   0.013  0.00  0.00    +0.113 C 
BRANCH  21  22
ATOM     22  N   UNL     1      -2.350   0.073  -0.962  0.00  0.00    -0.297 NA
ATOM     23  C   UNL     1      -2.189  -0.539  -2.288  0.00  0.00    +0.066 C 
ATOM     24  C   UNL     1      -3.116   0.159  -3.285  0.00  0.00    -0.063 C 
ATOM     25  N   UNL     1      -4.508   0.029  -2.833  0.00  0.00    +0.384 N 
ATOM     26  C   UNL     1      -4.659   0.666  -1.518  0.00  0.00    -0.063 C 
ATOM     27  C   UNL     1      -3.744  -0.028  -0.507  0.00  0.00    +0.066 C 
ATOM     28  H   UNL     1      -4.748  -0.949  -2.763  0.00  0.00    -0.081 HD
BRANCH  25  29
ATOM     29  C   UNL     1      -5.399   0.684  -3.800  0.00  0.00    -0.043 C 
BRANCH  29  30
ATOM     30  C   UNL     1      -6.833   0.445  -3.402  0.00  0.00    -0.064 A 
ATOM     31  C   UNL     1      -7.506  -0.665  -3.875  0.00  0.00    +0.002 A 
ATOM     32  C   UNL     1      -8.822  -0.884  -3.510  0.00  0.00    +0.000 A 
ATOM     33  C   UNL     1      -9.464   0.008  -2.671  0.00  0.00    +0.000 A 
ATOM     34  C   UNL     1      -8.790   1.118  -2.197  0.00  0.00    +0.000 A 
ATOM     35  C   UNL     1      -7.474   1.334  -2.559  0.00  0.00    +0.002 A 
ENDBRANCH  29  30
ENDBRANCH  25  29
ENDBRANCH  21  22
BRANCH  21  36
ATOM     36  C   UNL     1      -1.851  -1.957   0.278  0.00  0.00    +0.009 A 
ATOM     37  C   UNL     1      -2.037  -2.585   1.465  0.00  0.00    +0.013 A 
ATOM     38  C   UNL     1      -2.427  -3.911   1.467  0.00  0.00    +0.008 A 
ATOM     39  C   UNL     1      -2.613  -4.544   0.283  0.00  0.00    +0.045 A 
ATOM     40  S   UNL     1      -2.238  -3.251  -0.889  0.00  0.00    -0.100 S 
ENDBRANCH  21  36
ENDBRANCH   2  21
TORSDOF 7
