REMARK  Name = ZINC16688255
REMARK  13 active torsions:
REMARK  status: ('A' for Active; 'I' for Inactive)
REMARK    1  A    between atoms: C_1  and  C_2
REMARK    2  A    between atoms: C_2  and  O_3
REMARK    3  A    between atoms: O_3  and  C_4
REMARK    4  A    between atoms: C_5  and  O_32
REMARK    5  A    between atoms: C_8  and  C_10
REMARK    6  A    between atoms: N_11  and  N_12
REMARK    7  A    between atoms: C_13  and  C_15
REMARK    8  A    between atoms: N_17  and  N_18
REMARK    9  A    between atoms: C_19  and  C_20
REMARK   10  A    between atoms: C_23  and  O_29
REMARK   11  A    between atoms: C_24  and  O_26
REMARK   12  A    between atoms: O_26  and  C_27
REMARK   13  A    between atoms: C_27  and  C_28
REMARK                            x       y       z     vdW  Elec       q    Type
REMARK                         _______ _______ _______ _____ _____    ______ ____
ROOT
ATOM      1  N   UNL     1       1.581  -7.082  -0.034  0.00  0.00    -0.199 N 
ATOM      2  C   UNL     1       1.417  -8.419  -0.039  0.00  0.00    +0.320 C 
ATOM      3  O   UNL     1       0.300  -8.895  -0.035  0.00  0.00    -0.263 OA
ATOM      4  H   UNL     1       2.474  -6.702  -0.036  0.00  0.00    +0.178 HD
ENDROOT
BRANCH   2   5
ATOM      5  C   UNL     1       2.607  -9.315  -0.049  0.00  0.00    +0.320 C 
ATOM      6  O   UNL     1       3.725  -8.839  -0.052  0.00  0.00    -0.263 OA
ATOM      7  N   UNL     1       2.444 -10.653  -0.054  0.00  0.00    -0.199 N 
ATOM      8  H   UNL     1       1.552 -11.032  -0.051  0.00  0.00    +0.178 HD
BRANCH   7   9
ATOM      9  N   UNL     1       3.563 -11.495  -0.063  0.00  0.00    -0.187 NA
ATOM     10  C   UNL     1       3.406 -12.785  -0.068  0.00  0.00    +0.138 C 
BRANCH  10  11
ATOM     11  C   UNL     1       4.583 -13.671  -0.078  0.00  0.00    -0.000 A 
ATOM     12  C   UNL     1       5.870 -13.126  -0.076  0.00  0.00    +0.033 A 
ATOM     13  C   UNL     1       6.971 -13.957  -0.086  0.00  0.00    +0.087 A 
ATOM     14  C   UNL     1       6.804 -15.335  -0.097  0.00  0.00    +0.177 A 
ATOM     15  C   UNL     1       5.523 -15.885  -0.099  0.00  0.00    +0.164 A 
ATOM     16  C   UNL     1       4.416 -15.058  -0.083  0.00  0.00    +0.059 A 
ATOM     17 CL   UNL     1       8.569 -13.279  -0.083  0.00  0.00    -0.080 Cl
BRANCH  14  18
ATOM     18  O   UNL     1       7.891 -16.151  -0.107  0.00  0.00    -0.502 OA
ATOM     19  H   UNL     1       8.209 -16.394   0.773  0.00  0.00    +0.292 HD
ENDBRANCH  14  18
BRANCH  15  20
ATOM     20  O   UNL     1       5.364 -17.235  -0.111  0.00  0.00    -0.489 OA
BRANCH  20  21
ATOM     21  C   UNL     1       4.023 -17.730  -0.112  0.00  0.00    +0.226 C 
ATOM     22  C   UNL     1       4.043 -19.260  -0.126  0.00  0.00    +0.048 C 
ENDBRANCH  20  21
ENDBRANCH  15  20
ENDBRANCH  10  11
ENDBRANCH   7   9
ENDBRANCH   2   5
BRANCH   1  24
ATOM     23  C   UNL     1       0.619  -4.950  -0.019  0.00  0.00    +0.138 C 
ATOM     24  N   UNL     1       0.461  -6.239  -0.024  0.00  0.00    -0.187 NA
BRANCH  23  29
ATOM     25  C   UNL     1      -1.498  -1.849   0.006  0.00  0.00    +0.164 A 
ATOM     26  C   UNL     1      -2.779  -2.399   0.010  0.00  0.00    +0.177 A 
ATOM     27  C   UNL     1      -2.946  -3.777   0.004  0.00  0.00    +0.087 A 
ATOM     28  C   UNL     1      -1.845  -4.609  -0.006  0.00  0.00    +0.033 A 
ATOM     29  C   UNL     1      -0.558  -4.064  -0.010  0.00  0.00    -0.000 A 
ATOM     30  C   UNL     1      -0.391  -2.676  -0.009  0.00  0.00    +0.059 A 
ATOM     31 CL   UNL     1      -4.544  -4.455   0.010  0.00  0.00    -0.080 Cl
BRANCH  26  32
ATOM     32  O   UNL     1      -3.866  -1.584   0.019  0.00  0.00    -0.502 OA
ATOM     33  H   UNL     1      -4.186  -1.343  -0.861  0.00  0.00    +0.292 HD
ENDBRANCH  26  32
BRANCH  25  34
ATOM     34  O   UNL     1      -1.339  -0.499   0.012  0.00  0.00    -0.489 OA
BRANCH  34  36
ATOM     35  C   UNL     1      -0.019   1.526   0.010  0.00  0.00    +0.048 C 
ATOM     36  C   UNL     1       0.002  -0.004   0.002  0.00  0.00    +0.226 C 
ENDBRANCH  34  36
ENDBRANCH  25  34
ENDBRANCH  23  29
ENDBRANCH   1  24
TORSDOF 11
