REMARK  Name = ZINC62168076
REMARK  4 active torsions:
REMARK  status: ('A' for Active; 'I' for Inactive)
REMARK    1  A    between atoms: C_1  and  C_2
REMARK    2  A    between atoms: C_2  and  C_3
REMARK    3  A    between atoms: C_8  and  N_9
REMARK    4  A    between atoms: C_10  and  C_12
REMARK                            x       y       z     vdW  Elec       q    Type
REMARK                         _______ _______ _______ _____ _____    ______ ____
ROOT
ATOM      1  C   UNL     1      -1.451  -0.272  -4.864  0.00  0.00    +0.110 C 
ATOM      2  C   UNL     1      -1.515   1.200  -5.310  0.00  0.00    +0.121 C 
ATOM      3  N   UNL     1      -1.779   0.674  -6.663  0.00  0.00    -0.308 N 
ATOM      4  C   UNL     1      -2.315  -0.580  -6.100  0.00  0.00    +0.121 C 
ATOM      5  C   UNL     1      -1.596   1.160  -7.942  0.00  0.00    +0.162 A 
ATOM      6  N   UNL     1      -1.093   2.313  -8.322  0.00  0.00    -0.222 NA
ATOM      7  C   UNL     1      -0.973   2.659  -9.623  0.00  0.00    +0.115 A 
ATOM      8  C   UNL     1      -0.454   3.860 -10.163  0.00  0.00    +0.150 A 
ATOM      9  C   UNL     1      -0.404   4.053 -11.521  0.00  0.00    +0.040 A 
ATOM     10  C   UNL     1      -0.858   3.087 -12.407  0.00  0.00    +0.004 A 
ATOM     11  C   UNL     1      -1.371   1.902 -11.913  0.00  0.00    +0.017 A 
ATOM     12  C   UNL     1      -1.425   1.699 -10.556  0.00  0.00    +0.044 A 
ATOM     13  S   UNL     1      -1.977   0.378  -9.504  0.00  0.00    -0.052 S 
ATOM     14  F   UNL     1      -0.003   4.826  -9.334  0.00  0.00    -0.203 F 
ENDROOT
BRANCH   1  16
ATOM     15  N   UNL     1      -1.505  -0.315  -2.391  0.00  0.00    -0.285 N 
ATOM     16  C   UNL     1      -2.147  -0.541  -3.555  0.00  0.00    +0.223 C 
ATOM     17  O   UNL     1      -3.285  -0.961  -3.548  0.00  0.00    -0.275 OA
ATOM     18  H   UNL     1      -0.620   0.082  -2.395  0.00  0.00    +0.155 HD
BRANCH  15  24
ATOM     19  C   UNL     1      -1.349  -1.119  -0.119  0.00  0.00    -0.026 A 
ATOM     20  C   UNL     1      -1.954  -1.445   1.079  0.00  0.00    +0.005 A 
ATOM     21  C   UNL     1      -3.322  -1.313   1.222  0.00  0.00    +0.000 A 
ATOM     22  C   UNL     1      -4.090  -0.853   0.168  0.00  0.00    +0.002 A 
ATOM     23  C   UNL     1      -3.491  -0.525  -1.033  0.00  0.00    +0.023 A 
ATOM     24  C   UNL     1      -2.116  -0.652  -1.178  0.00  0.00    +0.037 A 
BRANCH  19  26
ATOM     25  C   UNL     1       0.819   0.078   0.019  0.00  0.00    +0.009 C 
ATOM     26  C   UNL     1       0.143  -1.263  -0.275  0.00  0.00    +0.033 C 
ENDBRANCH  19  26
ENDBRANCH  15  24
ENDBRANCH   1  16
TORSDOF 3
