REMARK  Name = ZINC57842349
REMARK  8 active torsions:
REMARK  status: ('A' for Active; 'I' for Inactive)
REMARK    1  A    between atoms: C_1  and  C_2
REMARK    2  A    between atoms: C_2  and  C_4
REMARK    3  A    between atoms: C_2  and  N_14
REMARK    4  A    between atoms: C_8  and  S_10
REMARK    5  A    between atoms: S_10  and  N_13
REMARK    6  A    between atoms: N_14  and  C_15
REMARK    7  A    between atoms: N_14  and  C_16
REMARK    8  A    between atoms: C_16  and  C_17
REMARK                            x       y       z     vdW  Elec       q    Type
REMARK                         _______ _______ _______ _____ _____    ______ ____
ROOT
ATOM      1  C   UNL     1       0.147   1.480  -0.216  0.00  0.00    +0.029 C 
ATOM      2  C   UNL     1       0.012  -0.027   0.012  0.00  0.00    +0.084 C 
ENDROOT
BRANCH   2   3
ATOM      3  C   UNL     1      -1.446  -0.409  -0.012  0.00  0.00    -0.029 A 
ATOM      4  C   UNL     1      -2.270  -0.058   1.041  0.00  0.00    +0.005 A 
ATOM      5  C   UNL     1      -3.607  -0.408   1.019  0.00  0.00    +0.002 A 
ATOM      6  C   UNL     1      -4.120  -1.110  -0.056  0.00  0.00    +0.028 A 
ATOM      7  C   UNL     1      -3.296  -1.460  -1.109  0.00  0.00    +0.105 A 
ATOM      8  C   UNL     1      -1.960  -1.106  -1.089  0.00  0.00    +0.033 A 
BRANCH   7   9
ATOM      9  S   UNL     1      -3.950  -2.355  -2.479  0.00  0.00    +0.056 S 
ATOM     10  O   UNL     1      -2.856  -3.035  -3.079  0.00  0.00    -0.153 OA
ATOM     11  O   UNL     1      -5.103  -3.036  -2.006  0.00  0.00    -0.153 OA
BRANCH   9  12
ATOM     12  N   UNL     1      -4.478  -1.241  -3.584  0.00  0.00    -0.204 NA
ATOM     13  H   UNL     1      -4.389  -0.293  -3.398  0.00  0.00    +0.144 HD
ATOM     14  H   UNL     1      -4.876  -1.536  -4.418  0.00  0.00    +0.144 HD
ENDBRANCH   9  12
ENDBRANCH   7   9
ENDBRANCH   2   3
BRANCH   2  15
ATOM     15  N   UNL     1       0.589  -0.378   1.317  0.00  0.00    -0.294 NA
ATOM     16  C   UNL     1       1.933   0.193   1.469  0.00  0.00    +0.105 C 
BRANCH  15  17
ATOM     17  C   UNL     1       0.611  -1.834   1.508  0.00  0.00    +0.121 C 
BRANCH  17  18
ATOM     18  C   UNL     1       0.974  -2.148   2.937  0.00  0.00    -0.015 A 
ATOM     19  C   UNL     1       2.269  -2.511   3.256  0.00  0.00    +0.008 A 
ATOM     20  C   UNL     1       2.603  -2.799   4.566  0.00  0.00    +0.020 A 
ATOM     21  C   UNL     1       1.642  -2.724   5.558  0.00  0.00    +0.042 A 
ATOM     22  C   UNL     1       0.346  -2.360   5.239  0.00  0.00    +0.040 A 
ATOM     23  C   UNL     1       0.013  -2.067   3.928  0.00  0.00    +0.047 A 
ATOM     24 CL   UNL     1      -1.611  -1.604   3.528  0.00  0.00    -0.083 Cl
ATOM     25 CL   UNL     1       2.062  -3.086   7.203  0.00  0.00    -0.083 Cl
ENDBRANCH  17  18
ENDBRANCH  15  17
ENDBRANCH   2  15
TORSDOF 6
