REMARK  Name = ZINC33193680
REMARK  6 active torsions:
REMARK  status: ('A' for Active; 'I' for Inactive)
REMARK    1  A    between atoms: C_1  and  C_2
REMARK    2  A    between atoms: C_2  and  C_4
REMARK    3  A    between atoms: C_2  and  N_10
REMARK    4  A    between atoms: C_11  and  C_13
REMARK    5  A    between atoms: C_16  and  S_19
REMARK    6  A    between atoms: S_19  and  N_22
REMARK                            x       y       z     vdW  Elec       q    Type
REMARK                         _______ _______ _______ _____ _____    ______ ____
ROOT
ATOM      1  C   UNL     1      -0.017   1.391   0.010  0.00  0.00    +0.037 A 
ATOM      2  C   UNL     1       1.186   2.100   0.002  0.00  0.00    +0.015 A 
ATOM      3  C   UNL     1       2.385   1.417  -0.013  0.00  0.00    +0.029 A 
ATOM      4  C   UNL     1       2.396   0.034  -0.021  0.00  0.00    +0.106 A 
ATOM      5  C   UNL     1       1.208  -0.674  -0.013  0.00  0.00    +0.029 A 
ATOM      6  C   UNL     1       0.002  -0.004   0.002  0.00  0.00    +0.015 A 
ENDROOT
BRANCH   1   8
ATOM      7  N   UNL     1      -1.320   3.464   0.027  0.00  0.00    -0.304 N 
ATOM      8  C   UNL     1      -1.305   2.116   0.020  0.00  0.00    +0.245 C 
ATOM      9  O   UNL     1      -2.351   1.497   0.021  0.00  0.00    -0.270 OA
ATOM     10  H   UNL     1      -0.374   4.025   0.026  0.00  0.00    +0.150 HD
BRANCH   7  12
ATOM     11  C   UNL     1      -3.110   4.331  -1.397  0.00  0.00    +0.033 C 
ATOM     12  C   UNL     1      -2.597   4.183   0.037  0.00  0.00    +0.107 C 
BRANCH  12  13
ATOM     13  C   UNL     1      -2.400   5.548   0.644  0.00  0.00    +0.011 A 
ATOM     14  C   UNL     1      -3.212   6.232   1.487  0.00  0.00    +0.014 A 
ATOM     15  C   UNL     1      -2.822   7.484   1.925  0.00  0.00    +0.028 A 
ATOM     16  C   UNL     1      -1.643   7.995   1.489  0.00  0.00    +0.078 A 
ATOM     17  S   UNL     1      -1.042   6.687   0.433  0.00  0.00    -0.080 S 
ATOM     18 CL   UNL     1      -0.910   9.524   1.860  0.00  0.00    -0.076 Cl
ENDBRANCH  12  13
ENDBRANCH   7  12
ENDBRANCH   1   8
BRANCH   4  19
ATOM     19  S   UNL     1       3.932  -0.830  -0.041  0.00  0.00    +0.061 S 
ATOM     20  O   UNL     1       4.902   0.053   0.506  0.00  0.00    -0.153 OA
ATOM     21  O   UNL     1       3.680  -2.118   0.505  0.00  0.00    -0.153 OA
BRANCH  19  22
ATOM     22  N   UNL     1       4.343  -1.061  -1.628  0.00  0.00    -0.166 NA
ATOM     23  C   UNL     1       3.922  -2.267  -2.361  0.00  0.00    +0.128 C 
ATOM     24  C   UNL     1       3.036  -1.823  -3.533  0.00  0.00    +0.121 C 
ATOM     25  N   UNL     1       3.649  -0.713  -4.250  0.00  0.00    -0.313 N 
ATOM     26  C   UNL     1       4.564   0.108  -3.735  0.00  0.00    +0.229 C 
ATOM     27  O   UNL     1       4.943   1.046  -4.405  0.00  0.00    -0.274 OA
ATOM     28  C   UNL     1       5.149  -0.074  -2.361  0.00  0.00    +0.205 C 
ATOM     29  H   UNL     1       3.362  -0.507  -5.292  0.00  0.00    +0.149 HD
ENDBRANCH  19  22
ENDBRANCH   4  19
TORSDOF 5
