REMARK  Name = ZINC31796369
REMARK  10 active torsions:
REMARK  status: ('A' for Active; 'I' for Inactive)
REMARK    1  A    between atoms: C_1  and  C_2
REMARK    2  A    between atoms: C_7  and  C_8
REMARK    3  A    between atoms: C_8  and  C_9
REMARK    4  A    between atoms: N_11  and  C_12
REMARK    5  A    between atoms: C_12  and  C_13
REMARK    6  A    between atoms: C_13  and  C_14
REMARK    7  A    between atoms: C_14  and  C_15
REMARK    8  A    between atoms: C_16  and  C_28
REMARK    9  A    between atoms: C_17  and  N_27
REMARK   10  A    between atoms: N_18  and  C_20
REMARK                            x       y       z     vdW  Elec       q    Type
REMARK                         _______ _______ _______ _____ _____    ______ ____
ROOT
ATOM      1  C   UNL     1      -3.420   2.129   0.030  0.00  0.00    +0.083 A 
ATOM      2  C   UNL     1      -2.486   1.067   0.020  0.00  0.00    +0.114 A 
ATOM      3  C   UNL     1      -1.217   1.640   0.017  0.00  0.00    +0.138 A 
ATOM      4  N   UNL     1      -1.387   2.982   0.030  0.00  0.00    -0.217 N 
ATOM      5  N   UNL     1      -2.760   3.253   0.033  0.00  0.00    -0.168 NA
ENDROOT
BRANCH   4   6
ATOM      6  C   UNL     1      -0.362   3.938   0.037  0.00  0.00    +0.068 A 
ATOM      7  C   UNL     1       0.817   3.688   0.726  0.00  0.00    +0.030 A 
ATOM      8  C   UNL     1       1.827   4.630   0.728  0.00  0.00    +0.040 A 
ATOM      9  C   UNL     1       1.661   5.827   0.052  0.00  0.00    +0.124 A 
ATOM     10  C   UNL     1       0.484   6.080  -0.631  0.00  0.00    +0.040 A 
ATOM     11  C   UNL     1      -0.527   5.139  -0.640  0.00  0.00    +0.030 A 
ATOM     12  F   UNL     1       2.649   6.748   0.059  0.00  0.00    -0.205 F 
ENDBRANCH   4   6
BRANCH   3  13
ATOM     13  N   UNL     1      -0.011   0.966   0.007  0.00  0.00    -0.342 N 
ATOM     14  H   UNL     1       0.934   1.529   0.005  0.00  0.00    +0.144 HD
ATOM     15  H   UNL     1       0.004  -0.134   0.002  0.00  0.00    +0.144 HD
ENDBRANCH   3  13
BRANCH   2  16
ATOM     16  C   UNL     1      -2.788  -0.333   0.015  0.00  0.00    +0.104 C 
ATOM     17  N   UNL     1      -3.027  -1.443   0.011  0.00  0.00    -0.191 NA
ENDBRANCH   2  16
BRANCH   1  18
ATOM     18  C   UNL     1      -4.920   1.986   0.038  0.00  0.00    +0.060 C 
BRANCH  18  19
ATOM     19  C   UNL     1      -5.420   1.931   1.482  0.00  0.00    +0.025 C 
BRANCH  19  20
ATOM     20  C   UNL     1      -6.943   1.785   1.490  0.00  0.00    +0.104 C 
BRANCH  20  23
ATOM     21  C   UNL     1      -8.739   1.605   3.127  0.00  0.00    +0.217 C 
ATOM     22  O   UNL     1      -9.529   1.534   2.209  0.00  0.00    -0.275 OA
ATOM     23  N   UNL     1      -7.421   1.732   2.874  0.00  0.00    -0.315 N 
ATOM     24  H   UNL     1      -6.705   1.796   3.706  0.00  0.00    +0.149 HD
BRANCH  21  25
ATOM     25  C   UNL     1      -9.232   1.550   4.550  0.00  0.00    +0.131 C 
BRANCH  25  32
ATOM     26  C   UNL     1     -10.434  -1.067   4.326  0.00  0.00    +0.044 C 
ATOM     27  C   UNL     1     -11.307   0.155   4.450  0.00  0.00    -0.047 A 
ATOM     28  C   UNL     1     -12.683   0.023   4.457  0.00  0.00    +0.003 A 
ATOM     29  C   UNL     1     -13.484   1.144   4.572  0.00  0.00    +0.000 A 
ATOM     30  C   UNL     1     -12.909   2.397   4.679  0.00  0.00    +0.000 A 
ATOM     31  C   UNL     1     -11.533   2.528   4.677  0.00  0.00    +0.004 A 
ATOM     32  C   UNL     1     -10.732   1.407   4.557  0.00  0.00    -0.036 A 
ENDBRANCH  25  32
ENDBRANCH  21  25
ENDBRANCH  20  23
ENDBRANCH  19  20
ENDBRANCH  18  19
ENDBRANCH   1  18
TORSDOF 9
