REMARK  Name = ZINC59170656
REMARK  11 active torsions:
REMARK  status: ('A' for Active; 'I' for Inactive)
REMARK    1  A    between atoms: C_1  and  C_2
REMARK    2  A    between atoms: C_2  and  C_3
REMARK    3  A    between atoms: C_8  and  N_9
REMARK    4  A    between atoms: C_10  and  C_12
REMARK    5  A    between atoms: C_18  and  O_34
REMARK    6  A    between atoms: N_22  and  N_23
REMARK    7  A    between atoms: N_23  and  S_24
REMARK    8  A    between atoms: S_24  and  C_27
REMARK    9  A    between atoms: C_30  and  C_33
REMARK   10  A    between atoms: O_34  and  C_35
REMARK   11  A    between atoms: C_35  and  C_36
REMARK                            x       y       z     vdW  Elec       q    Type
REMARK                         _______ _______ _______ _____ _____    ______ ____
ROOT
ATOM      1  C   UNL     1       4.423  -0.479   1.087  0.00  0.00    +0.099 A 
ATOM      2  C   UNL     1       5.797  -0.451   1.082  0.00  0.00    +0.030 A 
ATOM      3  C   UNL     1       6.470   0.160   2.235  0.00  0.00    +0.022 A 
ATOM      4  C   UNL     1       7.834   0.467   2.185  0.00  0.00    +0.012 A 
ATOM      5  C   UNL     1       8.445   1.043   3.277  0.00  0.00    +0.004 A 
ATOM      6  C   UNL     1       7.718   1.321   4.423  0.00  0.00    +0.049 A 
ATOM      7  C   UNL     1       6.366   1.021   4.489  0.00  0.00    +0.163 A 
ATOM      8  C   UNL     1       5.733   0.438   3.397  0.00  0.00    +0.179 A 
ATOM      9  O   UNL     1       4.410   0.133   3.448  0.00  0.00    -0.434 OA
ATOM     10  C   UNL     1       3.738   0.117   2.257  0.00  0.00    +0.225 A 
ATOM     11  N   UNL     1       2.534   0.604   2.155  0.00  0.00    -0.260 N 
ATOM     12  H   UNL     1       2.056   0.543   1.313  0.00  0.00    +0.189 HD
ENDROOT
BRANCH   1  14
ATOM     13  N   UNL     1       4.316  -1.649  -1.055  0.00  0.00    -0.281 N 
ATOM     14  C   UNL     1       3.664  -1.072  -0.027  0.00  0.00    +0.253 C 
ATOM     15  O   UNL     1       2.448  -1.040  -0.018  0.00  0.00    -0.270 OA
ATOM     16  H   UNL     1       5.284  -1.603  -1.103  0.00  0.00    +0.155 HD
BRANCH  13  22
ATOM     17  C   UNL     1       4.180  -3.368  -2.746  0.00  0.00    -0.026 A 
ATOM     18  C   UNL     1       3.466  -4.026  -3.728  0.00  0.00    +0.005 A 
ATOM     19  C   UNL     1       2.174  -3.633  -4.026  0.00  0.00    +0.000 A 
ATOM     20  C   UNL     1       1.593  -2.580  -3.343  0.00  0.00    +0.002 A 
ATOM     21  C   UNL     1       2.302  -1.917  -2.361  0.00  0.00    +0.023 A 
ATOM     22  C   UNL     1       3.598  -2.314  -2.054  0.00  0.00    +0.037 A 
BRANCH  17  24
ATOM     23  C   UNL     1       5.586  -4.619  -1.131  0.00  0.00    +0.009 C 
ATOM     24  C   UNL     1       5.588  -3.796  -2.421  0.00  0.00    +0.033 C 
ENDBRANCH  17  24
ENDBRANCH  13  22
ENDBRANCH   1  14
BRANCH  11  25
ATOM     25  N   UNL     1       1.929   1.217   3.261  0.00  0.00    -0.157 N 
ATOM     26  H   UNL     1       2.434   1.346   4.079  0.00  0.00    +0.194 HD
BRANCH  25  27
ATOM     27  S   UNL     1       0.355   1.721   3.170  0.00  0.00    +0.085 S 
ATOM     28  O   UNL     1      -0.048   2.034   4.496  0.00  0.00    -0.149 OA
ATOM     29  O   UNL     1       0.291   2.667   2.111  0.00  0.00    -0.149 OA
BRANCH  27  30
ATOM     30  C   UNL     1      -0.608   0.334   2.665  0.00  0.00    +0.110 A 
ATOM     31  C   UNL     1      -0.742   0.038   1.322  0.00  0.00    +0.029 A 
ATOM     32  C   UNL     1      -1.498  -1.050   0.926  0.00  0.00    +0.005 A 
ATOM     33  C   UNL     1      -2.118  -1.842   1.873  0.00  0.00    -0.050 A 
ATOM     34  C   UNL     1      -1.983  -1.546   3.217  0.00  0.00    +0.005 A 
ATOM     35  C   UNL     1      -1.225  -0.461   3.613  0.00  0.00    +0.029 A 
ATOM     36  C   UNL     1      -2.942  -3.027   1.441  0.00  0.00    +0.044 C 
ENDBRANCH  27  30
ENDBRANCH  25  27
ENDBRANCH  11  25
BRANCH   7  37
ATOM     37  O   UNL     1       5.661   1.296   5.619  0.00  0.00    -0.489 OA
BRANCH  37  38
ATOM     38  C   UNL     1       6.377   1.895   6.700  0.00  0.00    +0.226 C 
ATOM     39  C   UNL     1       5.425   2.129   7.875  0.00  0.00    +0.048 C 
ENDBRANCH  37  38
ENDBRANCH   7  37
TORSDOF 8
