REMARK  Name = ZINC19454691
REMARK  11 active torsions:
REMARK  status: ('A' for Active; 'I' for Inactive)
REMARK    1  A    between atoms: C_1  and  C_2
REMARK    2  A    between atoms: C_2  and  C_3
REMARK    3  A    between atoms: C_2  and  N_4
REMARK    4  A    between atoms: C_7  and  C_16
REMARK    5  A    between atoms: C_9  and  C_11
REMARK    6  A    between atoms: N_19  and  C_22
REMARK    7  A    between atoms: C_22  and  C_23
REMARK    8  A    between atoms: N_25  and  C_26
REMARK    9  A    between atoms: C_26  and  C_27
REMARK   10  A    between atoms: C_26  and  C_28
REMARK   11  A    between atoms: C_26  and  C_29
REMARK                            x       y       z     vdW  Elec       q    Type
REMARK                         _______ _______ _______ _____ _____    ______ ____
ROOT
ATOM      1  N   UNL     1      -5.907   1.651   0.318  0.00  0.00    -0.274 N 
ATOM      2  C   UNL     1      -4.870   0.771   0.073  0.00  0.00    +0.166 A 
ATOM      3  C   UNL     1      -3.690   1.537   0.041  0.00  0.00    +0.120 A 
ATOM      4  C   UNL     1      -2.478   0.889  -0.199  0.00  0.00    +0.155 A 
ATOM      5  N   UNL     1      -2.485  -0.432  -0.378  0.00  0.00    -0.220 NA
ATOM      6  C   UNL     1      -3.618  -1.119  -0.335  0.00  0.00    +0.169 A 
ATOM      7  N   UNL     1      -4.793  -0.535  -0.114  0.00  0.00    -0.207 NA
ATOM      8  N   UNL     1      -4.061   2.853   0.258  0.00  0.00    -0.280 N 
ATOM      9  C   UNL     1      -5.397   2.893   0.425  0.00  0.00    +0.332 A 
ATOM     10  O   UNL     1      -6.046   3.899   0.640  0.00  0.00    -0.246 OA
ENDROOT
BRANCH   6  11
ATOM     11  C   UNL     1      -3.575  -2.581  -0.539  0.00  0.00    +0.056 A 
ATOM     12  C   UNL     1      -2.494  -3.387  -0.785  0.00  0.00    +0.019 A 
ATOM     13  C   UNL     1      -2.698  -4.739  -0.939  0.00  0.00    +0.008 A 
ATOM     14  C   UNL     1      -3.962  -5.231  -0.854  0.00  0.00    +0.046 A 
ATOM     15  S   UNL     1      -4.918  -3.757  -0.538  0.00  0.00    -0.094 S 
ENDBRANCH   6  11
BRANCH   4  16
ATOM     16  C   UNL     1      -1.210   1.652  -0.247  0.00  0.00    +0.262 C 
ATOM     17  O   UNL     1      -1.184   2.757  -0.752  0.00  0.00    -0.269 OA
ATOM     18  N   UNL     1      -0.084   1.121   0.268  0.00  0.00    -0.324 N 
ATOM     19  H   UNL     1       0.859   1.687   0.232  0.00  0.00    +0.145 HD
ATOM     20  H   UNL     1      -0.107   0.120   0.725  0.00  0.00    +0.145 HD
ENDBRANCH   4  16
BRANCH   1  22
ATOM     21  C   UNL     1      -7.833   1.694   1.825  0.00  0.00    +0.031 C 
ATOM     22  C   UNL     1      -7.323   1.294   0.439  0.00  0.00    +0.088 C 
ATOM     23  C   UNL     1      -8.129   2.029  -0.633  0.00  0.00    +0.031 C 
ENDBRANCH   1  22
BRANCH   8  24
ATOM     24  C   UNL     1      -3.155   4.003   0.305  0.00  0.00    +0.222 C 
BRANCH  24  25
ATOM     25  C   UNL     1      -3.013   4.587  -1.077  0.00  0.00    +0.233 C 
ATOM     26  O   UNL     1      -3.609   4.091  -2.009  0.00  0.00    -0.274 OA
ATOM     27  N   UNL     1      -2.222   5.660  -1.276  0.00  0.00    -0.309 N 
ATOM     28  H   UNL     1      -1.681   6.110  -0.431  0.00  0.00    +0.149 HD
BRANCH  27  29
ATOM     29  C   UNL     1      -2.084   6.228  -2.620  0.00  0.00    +0.026 C 
ATOM     30  C   UNL     1      -3.455   6.679  -3.127  0.00  0.00    +0.031 C 
ATOM     31  C   UNL     1      -1.138   7.429  -2.571  0.00  0.00    +0.031 C 
ATOM     32  C   UNL     1      -1.513   5.168  -3.565  0.00  0.00    +0.031 C 
ENDBRANCH  27  29
ENDBRANCH  24  25
ENDBRANCH   8  24
TORSDOF 6
