REMARK  Name = ZINC38918129
REMARK  10 active torsions:
REMARK  status: ('A' for Active; 'I' for Inactive)
REMARK    1  A    between atoms: C_1  and  C_2
REMARK    2  A    between atoms: C_2  and  N_3
REMARK    3  A    between atoms: N_3  and  C_4
REMARK    4  A    between atoms: N_3  and  C_6
REMARK    5  A    between atoms: C_4  and  C_5
REMARK    6  A    between atoms: C_9  and  C_13
REMARK    7  A    between atoms: C_10  and  O_12
REMARK    8  A    between atoms: N_14  and  N_15
REMARK    9  A    between atoms: C_16  and  C_22
REMARK   10  A    between atoms: C_27  and  C_28
REMARK                            x       y       z     vdW  Elec       q    Type
REMARK                         _______ _______ _______ _____ _____    ______ ____
ROOT
ATOM      1  C   UNL     1      -3.957  -1.525   4.923  0.00  0.00    +0.142 C 
ATOM      2  N   UNL     1      -5.180  -1.965   4.938  0.00  0.00    -0.183 NA
ENDROOT
BRANCH   2   3
ATOM      3  N   UNL     1      -5.785  -2.312   6.152  0.00  0.00    -0.172 N 
ATOM      4  C   UNL     1      -7.104  -2.939   6.357  0.00  0.00    +0.264 C 
ATOM      5  N   UNL     1      -7.210  -3.066   7.819  0.00  0.00    -0.189 NA
ATOM      6  N   UNL     1      -6.178  -2.611   8.320  0.00  0.00    -0.219 N 
ATOM      7  C   UNL     1      -5.288  -2.152   7.399  0.00  0.00    +0.174 C 
ATOM      8  S   UNL     1      -3.762  -1.469   7.766  0.00  0.00    -0.015 S 
ATOM      9  H   UNL     1      -6.016  -2.586   9.276  0.00  0.00    +0.176 HD
BRANCH   4  10
ATOM     10  C   UNL     1      -8.199  -2.055   5.819  0.00  0.00    +0.001 A 
ATOM     11  C   UNL     1      -7.924  -1.150   4.811  0.00  0.00    +0.008 A 
ATOM     12  C   UNL     1      -8.929  -0.339   4.318  0.00  0.00    +0.000 A 
ATOM     13  C   UNL     1     -10.209  -0.434   4.831  0.00  0.00    +0.000 A 
ATOM     14  C   UNL     1     -10.484  -1.341   5.838  0.00  0.00    +0.004 A 
ATOM     15  C   UNL     1      -9.480  -2.154   6.329  0.00  0.00    -0.044 A 
ATOM     16  C   UNL     1      -9.781  -3.146   7.423  0.00  0.00    +0.044 C 
ENDBRANCH   4  10
ENDBRANCH   2   3
BRANCH   1  20
ATOM     17  C   UNL     1      -2.011  -0.781   1.221  0.00  0.00    +0.033 A 
ATOM     18  C   UNL     1      -1.340  -0.554   2.419  0.00  0.00    +0.024 A 
ATOM     19  C   UNL     1      -1.967  -0.794   3.621  0.00  0.00    +0.015 A 
ATOM     20  C   UNL     1      -3.283  -1.267   3.640  0.00  0.00    +0.036 A 
ATOM     21  C   UNL     1      -3.958  -1.495   2.431  0.00  0.00    +0.127 A 
ATOM     22  C   UNL     1      -3.320  -1.246   1.230  0.00  0.00    +0.069 A 
BRANCH  21  23
ATOM     23  O   UNL     1      -5.236  -1.954   2.442  0.00  0.00    -0.506 OA
ATOM     24  H   UNL     1      -5.905  -1.256   2.454  0.00  0.00    +0.292 HD
ENDBRANCH  21  23
BRANCH  17  25
ATOM     25  N   UNL     1      -1.369  -0.536   0.008  0.00  0.00    -0.330 N 
BRANCH  25  27
ATOM     26  C   UNL     1       0.010   1.484   0.011  0.00  0.00    +0.024 C 
ATOM     27  C   UNL     1       0.012  -0.046  -0.004  0.00  0.00    +0.102 C 
ENDBRANCH  25  27
BRANCH  25  28
ATOM     28  C   UNL     1      -2.075  -0.769  -1.255  0.00  0.00    +0.102 C 
ATOM     29  C   UNL     1      -1.838  -2.209  -1.714  0.00  0.00    +0.024 C 
ENDBRANCH  25  28
ENDBRANCH  17  25
ENDBRANCH   1  20
TORSDOF 7
