REMARK  Name = ZINC28535901
REMARK  10 active torsions:
REMARK  status: ('A' for Active; 'I' for Inactive)
REMARK    1  A    between atoms: C_1  and  C_2
REMARK    2  A    between atoms: C_7  and  N_8
REMARK    3  A    between atoms: N_12  and  N_28
REMARK    4  A    between atoms: C_13  and  S_16
REMARK    5  A    between atoms: S_16  and  C_17
REMARK    6  A    between atoms: C_17  and  C_18
REMARK    7  A    between atoms: C_21  and  O_26
REMARK    8  A    between atoms: C_22  and  O_24
REMARK    9  A    between atoms: O_24  and  C_25
REMARK   10  A    between atoms: O_26  and  C_27
REMARK                            x       y       z     vdW  Elec       q    Type
REMARK                         _______ _______ _______ _____ _____    ______ ____
ROOT
ATOM      1  N   UNL     1      -6.731  -3.997  -0.513  0.00  0.00    -0.293 N 
ATOM      2  C   UNL     1      -5.560  -3.307  -0.835  0.00  0.00    +0.212 A 
ATOM      3  C   UNL     1      -5.199  -3.100  -2.193  0.00  0.00    +0.312 A 
ATOM      4  O   UNL     1      -5.899  -3.518  -3.099  0.00  0.00    -0.262 OA
ATOM      5  N   UNL     1      -4.055  -2.426  -2.450  0.00  0.00    -0.205 N 
ATOM      6  C   UNL     1      -3.309  -1.981  -1.397  0.00  0.00    +0.210 A 
ATOM      7  N   UNL     1      -3.695  -2.209  -0.157  0.00  0.00    -0.121 NA
ATOM      8  N   UNL     1      -4.780  -2.842   0.116  0.00  0.00    -0.126 NA
ATOM      9  H   UNL     1      -7.427  -4.299  -1.309  0.00  0.00    +0.154 HD
ENDROOT
BRANCH   1  16
ATOM     10  C   UNL     1      -9.450  -4.408   0.215  0.00  0.00    +0.045 C 
ATOM     11  C   UNL     1      -8.330  -4.512   1.219  0.00  0.00    -0.029 A 
ATOM     12  C   UNL     1      -8.610  -4.815   2.537  0.00  0.00    +0.005 A 
ATOM     13  C   UNL     1      -7.583  -4.912   3.458  0.00  0.00    +0.000 A 
ATOM     14  C   UNL     1      -6.273  -4.706   3.063  0.00  0.00    +0.002 A 
ATOM     15  C   UNL     1      -5.987  -4.407   1.746  0.00  0.00    +0.023 A 
ATOM     16  C   UNL     1      -7.016  -4.304   0.819  0.00  0.00    +0.035 A 
ENDBRANCH   1  16
BRANCH   5  17
ATOM     17  N   UNL     1      -3.654  -2.196  -3.736  0.00  0.00    -0.293 N 
ATOM     18  H   UNL     1      -2.721  -1.646  -3.931  0.00  0.00    +0.163 HD
ATOM     19  H   UNL     1      -4.264  -2.560  -4.575  0.00  0.00    +0.163 HD
ENDBRANCH   5  17
BRANCH   6  20
ATOM     20  S   UNL     1      -1.813  -1.099  -1.697  0.00  0.00    -0.080 S 
BRANCH  20  21
ATOM     21  C   UNL     1      -1.289  -0.781   0.006  0.00  0.00    +0.112 C 
BRANCH  21  22
ATOM     22  C   UNL     1       0.009  -0.015  -0.002  0.00  0.00    -0.033 A 
ATOM     23  C   UNL     1       1.212  -0.696  -0.002  0.00  0.00    +0.008 A 
ATOM     24  C   UNL     1       2.405   0.002  -0.009  0.00  0.00    +0.050 A 
ATOM     25  C   UNL     1       2.397   1.387  -0.018  0.00  0.00    +0.162 A 
ATOM     26  C   UNL     1       1.186   2.073  -0.019  0.00  0.00    +0.162 A 
ATOM     27  C   UNL     1      -0.006   1.367  -0.011  0.00  0.00    +0.053 A 
BRANCH  26  28
ATOM     28  O   UNL     1       1.173   3.433  -0.027  0.00  0.00    -0.491 OA
ATOM     29  C   UNL     1      -0.107   4.069  -0.027  0.00  0.00    +0.277 C 
ENDBRANCH  26  28
BRANCH  25  30
ATOM     30  O   UNL     1       3.570   2.076  -0.026  0.00  0.00    -0.491 OA
ATOM     31  C   UNL     1       4.774   1.306  -0.025  0.00  0.00    +0.277 C 
ENDBRANCH  25  30
ENDBRANCH  21  22
ENDBRANCH  20  21
ENDBRANCH   6  20
TORSDOF 7
