REMARK  Name = ZINC39711320
REMARK  10 active torsions:
REMARK  status: ('A' for Active; 'I' for Inactive)
REMARK    1  A    between atoms: C_1  and  O_2
REMARK    2  A    between atoms: O_2  and  C_3
REMARK    3  A    between atoms: C_3  and  C_4
REMARK    4  A    between atoms: C_4  and  N_5
REMARK    5  A    between atoms: C_6  and  C_10
REMARK    6  A    between atoms: C_10  and  C_12
REMARK    7  A    between atoms: C_10  and  N_26
REMARK    8  A    between atoms: C_17  and  O_24
REMARK    9  A    between atoms: O_24  and  C_25
REMARK   10  A    between atoms: N_29  and  C_32
REMARK                            x       y       z     vdW  Elec       q    Type
REMARK                         _______ _______ _______ _____ _____    ______ ____
ROOT
ATOM      1  C   UNL     1      -2.793  -2.895   2.538  0.00  0.00    +0.142 C 
ENDROOT
BRANCH   1   2
ATOM      2  C   UNL     1      -2.468  -4.181   3.300  0.00  0.00    +0.123 C 
ATOM      3  C   UNL     1      -2.170  -3.806   4.739  0.00  0.00    -0.003 C 
ATOM      4  C   UNL     1      -0.951  -4.157   5.237  0.00  0.00    -0.003 A 
ATOM      5  C   UNL     1      -0.582  -3.834   6.615  0.00  0.00    +0.055 A 
ATOM      6  C   UNL     1       0.647  -4.204   7.070  0.00  0.00    +0.121 A 
ATOM      7  C   UNL     1       1.553  -4.883   6.246  0.00  0.00    +0.047 A 
ATOM      8  C   UNL     1       1.268  -5.210   4.960  0.00  0.00    +0.027 A 
ATOM      9  C   UNL     1       0.024  -4.872   4.394  0.00  0.00    +0.041 A 
ATOM     10  N   UNL     1      -0.243  -5.200   3.130  0.00  0.00    -0.284 N 
ATOM     11  C   UNL     1      -1.388  -4.913   2.536  0.00  0.00    +0.226 C 
ATOM     12  O   UNL     1      -1.573  -5.238   1.378  0.00  0.00    -0.275 OA
ATOM     13  H   UNL     1       0.436  -5.671   2.622  0.00  0.00    +0.155 HD
BRANCH   6  14
ATOM     14  O   UNL     1       1.001  -3.909   8.349  0.00  0.00    -0.495 OA
ATOM     15  C   UNL     1       2.302  -4.321   8.773  0.00  0.00    +0.277 C 
ENDBRANCH   6  14
ENDBRANCH   1   2
BRANCH   1  16
ATOM     16  N   UNL     1      -3.744  -2.091   3.317  0.00  0.00    -0.289 NA
ATOM     17  C   UNL     1      -4.984  -2.839   3.568  0.00  0.00    +0.104 C 
ATOM     18  C   UNL     1      -5.871  -2.042   4.530  0.00  0.00    +0.120 C 
ATOM     19  N   UNL     1      -6.061  -0.691   3.980  0.00  0.00    -0.325 N 
ATOM     20  C   UNL     1      -4.869   0.069   3.576  0.00  0.00    +0.120 C 
ATOM     21  C   UNL     1      -4.020  -0.811   2.652  0.00  0.00    +0.104 C 
BRANCH  19  22
ATOM     22  C   UNL     1      -7.341  -0.144   3.846  0.00  0.00    +0.065 A 
ATOM     23  C   UNL     1      -7.894   0.594   4.883  0.00  0.00    +0.026 A 
ATOM     24  C   UNL     1      -9.159   1.134   4.748  0.00  0.00    +0.002 A 
ATOM     25  C   UNL     1      -9.874   0.940   3.581  0.00  0.00    +0.003 A 
ATOM     26  C   UNL     1      -9.328   0.205   2.545  0.00  0.00    +0.040 A 
ATOM     27  C   UNL     1      -8.060  -0.334   2.671  0.00  0.00    +0.144 A 
ATOM     28  F   UNL     1      -7.524  -1.047   1.657  0.00  0.00    -0.204 F 
ENDBRANCH  19  22
ENDBRANCH   1  16
BRANCH   1  30
ATOM     29  N   UNL     1      -2.800  -3.170   0.003  0.00  0.00    -0.225 N 
ATOM     30  C   UNL     1      -3.402  -3.242   1.204  0.00  0.00    +0.170 A 
ATOM     31  N   UNL     1      -4.621  -3.673   0.989  0.00  0.00    -0.112 NA
ATOM     32  N   UNL     1      -4.761  -3.857  -0.278  0.00  0.00    -0.023 NA
ATOM     33  N   UNL     1      -3.664  -3.548  -0.878  0.00  0.00    -0.044 NA
BRANCH  29  34
ATOM     34  C   UNL     1      -1.425  -2.737  -0.257  0.00  0.00    +0.175 C 
BRANCH  34  35
ATOM     35  C   UNL     1      -1.401  -1.225  -0.488  0.00  0.00    +0.183 C 
BRANCH  35  37
ATOM     36  C   UNL     1       0.075   0.601  -0.971  0.00  0.00    +0.194 C 
ATOM     37  O   UNL     1      -0.059  -0.803  -0.741  0.00  0.00    -0.381 OA
ENDBRANCH  35  37
ENDBRANCH  34  35
ENDBRANCH  29  34
ENDBRANCH   1  30
TORSDOF 8
