REMARK  Name = ZINC10067257
REMARK  13 active torsions:
REMARK  status: ('A' for Active; 'I' for Inactive)
REMARK    1  A    between atoms: C_1  and  C_2
REMARK    2  A    between atoms: C_2  and  N_61
REMARK    3  A    between atoms: C_3  and  C_4
REMARK    4  A    between atoms: C_3  and  N_61
REMARK    5  A    between atoms: C_5  and  C_6
REMARK    6  A    between atoms: C_5  and  N_61
REMARK    7  A    between atoms: C_6  and  N_7
REMARK    8  A    between atoms: C_11  and  O_18
REMARK    9  A    between atoms: C_14  and  C_17
REMARK   10  A    between atoms: O_18  and  C_19
REMARK   11  A    between atoms: C_20  and  C_22
REMARK   12  A    between atoms: C_23  and  C_24
REMARK   13  A    between atoms: C_27  and  N_30
REMARK                            x       y       z     vdW  Elec       q    Type
REMARK                         _______ _______ _______ _____ _____    ______ ____
ROOT
ATOM      1  N   UNL     1      -1.946   3.688   0.661  0.00  0.00    -0.249 N 
ATOM      2  C   UNL     1      -1.830   5.061   0.807  0.00  0.00    +0.168 A 
ATOM      3  N   UNL     1      -2.750   5.933   1.147  0.00  0.00    -0.221 NA
ATOM      4  C   UNL     1      -2.493   7.255   1.256  0.00  0.00    +0.122 A 
ATOM      5  C   UNL     1      -3.388   8.294   1.616  0.00  0.00    +0.147 A 
ATOM      6  C   UNL     1      -2.959   9.599   1.673  0.00  0.00    +0.048 A 
ATOM      7  C   UNL     1      -1.646   9.943   1.383  0.00  0.00    +0.008 A 
ATOM      8  C   UNL     1      -0.749   8.953   1.028  0.00  0.00    -0.034 A 
ATOM      9  C   UNL     1      -1.167   7.646   0.968  0.00  0.00    +0.047 A 
ATOM     10  S   UNL     1      -0.393   6.096   0.573  0.00  0.00    -0.051 S 
ATOM     11  C   UNL     1       0.681   9.306   0.710  0.00  0.00    +0.045 C 
ATOM     12  C   UNL     1      -0.874   2.957   0.295  0.00  0.00    +0.245 C 
ATOM     13  O   UNL     1       0.194   3.503   0.093  0.00  0.00    -0.270 OA
ENDROOT
BRANCH   5  14
ATOM     14  O   UNL     1      -4.682   7.998   1.907  0.00  0.00    -0.493 OA
ATOM     15  C   UNL     1      -5.533   9.089   2.262  0.00  0.00    +0.277 C 
ENDBRANCH   5  14
BRANCH  12  16
ATOM     16  C   UNL     1      -0.996   1.507   0.141  0.00  0.00    +0.068 C 
ATOM     17  C   UNL     1       0.034   0.793  -0.355  0.00  0.00    +0.013 C 
BRANCH  17  18
ATOM     18  C   UNL     1       1.178   1.483  -0.974  0.00  0.00    -0.025 A 
ATOM     19  C   UNL     1       0.963   2.490  -1.920  0.00  0.00    +0.010 A 
ATOM     20  C   UNL     1       2.039   3.135  -2.491  0.00  0.00    +0.033 A 
ATOM     21  C   UNL     1       3.330   2.781  -2.138  0.00  0.00    +0.126 A 
ATOM     22  C   UNL     1       3.551   1.782  -1.207  0.00  0.00    +0.033 A 
ATOM     23  C   UNL     1       2.485   1.131  -0.622  0.00  0.00    +0.010 A 
BRANCH  21  24
ATOM     24  N   UNL     1       4.480   3.475  -2.761  0.00  0.00    +0.056 N 
ATOM     25  O   UNL     1       5.617   3.166  -2.453  0.00  0.00    -0.126 OA
ATOM     26  O   UNL     1       4.289   4.355  -3.581  0.00  0.00    -0.126 OA
ENDBRANCH  21  24
ENDBRANCH  17  18
ENDBRANCH  12  16
BRANCH   1  27
ATOM     27  C   UNL     1      -3.232   3.031   0.905  0.00  0.00    +0.097 C 
BRANCH  27  28
ATOM     28  C   UNL     1      -3.327   2.626   2.378  0.00  0.00    -0.059 C 
BRANCH  28  29
ATOM     29  N   UNL     1      -4.682   2.096   2.637  0.00  0.00    +0.380 N 
ATOM     30  H   UNL     1      -5.369   2.690   2.158  0.00  0.00    -0.082 HD
BRANCH  29  32
ATOM     31  C   UNL     1      -6.257   0.277   2.194  0.00  0.00    -0.017 C 
ATOM     32  C   UNL     1      -4.793   0.717   2.117  0.00  0.00    -0.082 C 
ENDBRANCH  29  32
BRANCH  29  33
ATOM     33  C   UNL     1      -4.962   2.113   4.088  0.00  0.00    -0.082 C 
ATOM     34  C   UNL     1      -5.299   3.546   4.506  0.00  0.00    -0.017 C 
ENDBRANCH  29  33
ENDBRANCH  28  29
ENDBRANCH  27  28
ENDBRANCH   1  27
TORSDOF 9
