REMARK  Name = ZINC39695143
REMARK  7 active torsions:
REMARK  status: ('A' for Active; 'I' for Inactive)
REMARK    1  A    between atoms: C_1  and  C_2
REMARK    2  A    between atoms: C_3  and  C_9
REMARK    3  A    between atoms: C_9  and  N_10
REMARK    4  A    between atoms: C_11  and  C_13
REMARK    5  A    between atoms: C_24  and  C_26
REMARK    6  A    between atoms: C_27  and  C_37
REMARK    7  A    between atoms: C_30  and  C_31
REMARK                            x       y       z     vdW  Elec       q    Type
REMARK                         _______ _______ _______ _____ _____    ______ ____
ROOT
ATOM      1  C   UNL     1       2.959   1.739  -4.246  0.00  0.00    +0.100 C 
ATOM      2  C   UNL     1       3.941   0.548  -4.324  0.00  0.00    +0.121 C 
ATOM      3  N   UNL     1       4.002   0.207  -5.764  0.00  0.00    -0.296 N 
ATOM      4  C   UNL     1       3.993   1.518  -6.455  0.00  0.00    +0.115 C 
ATOM      5  C   UNL     1       2.999   2.376  -5.646  0.00  0.00    -0.004 C 
ATOM      6  C   UNL     1       3.494   3.816  -5.557  0.00  0.00    -0.010 C 
ATOM      7  C   UNL     1       3.470   4.446  -6.953  0.00  0.00    -0.082 C 
ATOM      8  N   UNL     1       2.102   4.409  -7.484  0.00  0.00    +0.379 N 
ATOM      9  C   UNL     1       1.668   3.017  -7.654  0.00  0.00    -0.082 C 
ATOM     10  C   UNL     1       1.617   2.327  -6.288  0.00  0.00    -0.010 C 
ATOM     11  C   UNL     1       4.054  -1.020  -6.321  0.00  0.00    +0.252 C 
ATOM     12  O   UNL     1       4.102  -1.137  -7.531  0.00  0.00    -0.270 OA
ATOM     13  H   UNL     1       1.480   4.878  -6.843  0.00  0.00    -0.086 HD
ATOM     14  H   UNL     1       2.077   4.879  -8.377  0.00  0.00    -0.086 HD
ENDROOT
BRANCH  11  15
ATOM     15  C   UNL     1       4.054  -2.218  -5.465  0.00  0.00    +0.106 A 
ATOM     16  C   UNL     1       2.961  -2.912  -5.037  0.00  0.00    +0.147 A 
ATOM     17  O   UNL     1       3.381  -3.931  -4.283  0.00  0.00    -0.359 OA
ATOM     18  N   UNL     1       4.792  -3.913  -4.209  0.00  0.00    -0.077 NA
ATOM     19  C   UNL     1       5.234  -2.901  -4.912  0.00  0.00    +0.126 A 
ATOM     20  C   UNL     1       1.526  -2.584  -5.359  0.00  0.00    +0.090 C 
BRANCH  19  21
ATOM     21  C   UNL     1       6.652  -2.514  -5.109  0.00  0.00    +0.004 A 
ATOM     22  C   UNL     1       7.065  -1.967  -6.322  0.00  0.00    +0.010 A 
ATOM     23  C   UNL     1       8.386  -1.609  -6.501  0.00  0.00    +0.001 A 
ATOM     24  C   UNL     1       9.299  -1.793  -5.478  0.00  0.00    +0.000 A 
ATOM     25  C   UNL     1       8.895  -2.336  -4.272  0.00  0.00    +0.001 A 
ATOM     26  C   UNL     1       7.575  -2.692  -4.081  0.00  0.00    +0.010 A 
ENDBRANCH  19  21
ENDBRANCH  11  15
BRANCH   1  28
ATOM     27  N   UNL     1       0.688   2.076  -3.327  0.00  0.00    -0.311 N 
ATOM     28  C   UNL     1       1.568   1.253  -3.930  0.00  0.00    +0.218 C 
ATOM     29  O   UNL     1       1.241   0.121  -4.219  0.00  0.00    -0.275 OA
ATOM     30  H   UNL     1       0.949   2.981  -3.097  0.00  0.00    +0.149 HD
BRANCH  27  31
ATOM     31  C   UNL     1      -0.664   1.604  -3.020  0.00  0.00    +0.139 C 
BRANCH  31  34
ATOM     32  C   UNL     1      -1.839   3.709  -4.612  0.00  0.00    +0.045 C 
ATOM     33  C   UNL     1      -2.005   3.715  -3.115  0.00  0.00    -0.027 A 
ATOM     34  C   UNL     1      -1.443   2.708  -2.353  0.00  0.00    -0.026 A 
ATOM     35  C   UNL     1      -1.595   2.713  -0.979  0.00  0.00    +0.005 A 
ATOM     36  C   UNL     1      -2.310   3.726  -0.366  0.00  0.00    +0.002 A 
ATOM     37  C   UNL     1      -2.872   4.734  -1.127  0.00  0.00    +0.020 A 
ATOM     38  C   UNL     1      -2.715   4.732  -2.502  0.00  0.00    +0.044 A 
ATOM     39 CL   UNL     1      -3.416   6.001  -3.457  0.00  0.00    -0.083 Cl
ENDBRANCH  31  34
ENDBRANCH  27  31
ENDBRANCH   1  28
TORSDOF 5
