REMARK  Name = ZINC33069007
REMARK  15 active torsions:
REMARK  status: ('A' for Active; 'I' for Inactive)
REMARK    1  A    between atoms: C_1  and  O_2
REMARK    2  A    between atoms: O_2  and  C_3
REMARK    3  A    between atoms: C_3  and  C_4
REMARK    4  A    between atoms: C_4  and  N_5
REMARK    5  A    between atoms: N_5  and  C_6
REMARK    6  A    between atoms: N_5  and  C_19
REMARK    7  A    between atoms: C_6  and  C_7
REMARK    8  A    between atoms: C_9  and  O_17
REMARK    9  A    between atoms: C_10  and  O_15
REMARK   10  A    between atoms: C_11  and  O_13
REMARK   11  A    between atoms: O_13  and  C_14
REMARK   12  A    between atoms: O_15  and  C_16
REMARK   13  A    between atoms: O_17  and  C_18
REMARK   14  A    between atoms: C_19  and  C_20
REMARK   15  A    between atoms: C_25  and  C_30
REMARK                            x       y       z     vdW  Elec       q    Type
REMARK                         _______ _______ _______ _____ _____    ______ ____
ROOT
ATOM      1  C   UNL     1      -0.625  -2.006  -1.780  0.00  0.00    +0.138 C 
ENDROOT
BRANCH   1   2
ATOM      2  C   UNL     1      -0.667  -0.584  -2.279  0.00  0.00    +0.037 A 
ATOM      3  C   UNL     1       0.296  -0.117  -3.146  0.00  0.00    +0.093 A 
ATOM      4  C   UNL     1       0.240   1.203  -3.597  0.00  0.00    +0.259 A 
ATOM      5  O   UNL     1       1.091   1.623  -4.365  0.00  0.00    -0.267 OA
ATOM      6  N   UNL     1      -0.768   2.024  -3.177  0.00  0.00    -0.256 N 
ATOM      7  C   UNL     1      -0.957   3.345  -3.533  0.00  0.00    +0.066 A 
ATOM      8  C   UNL     1      -2.000   4.043  -3.042  0.00  0.00    +0.075 A 
ATOM      9  S   UNL     1      -2.803   2.827  -2.011  0.00  0.00    -0.059 S 
ATOM     10  C   UNL     1      -1.682   1.479  -2.316  0.00  0.00    +0.159 A 
ATOM     11  N   UNL     1      -1.638   0.240  -1.893  0.00  0.00    -0.337 N 
ATOM     12  H   UNL     1      -2.323  -0.082  -1.286  0.00  0.00    +0.168 HD
BRANCH   7  13
ATOM     13  C   UNL     1      -0.007   3.998  -4.460  0.00  0.00    -0.000 A 
ATOM     14  C   UNL     1       0.203   3.470  -5.734  0.00  0.00    +0.013 A 
ATOM     15  C   UNL     1       1.090   4.083  -6.594  0.00  0.00    +0.039 A 
ATOM     16  C   UNL     1       1.772   5.221  -6.195  0.00  0.00    +0.123 A 
ATOM     17  C   UNL     1       1.567   5.750  -4.931  0.00  0.00    +0.039 A 
ATOM     18  C   UNL     1       0.677   5.148  -4.065  0.00  0.00    +0.013 A 
ATOM     19  F   UNL     1       2.640   5.817  -7.041  0.00  0.00    -0.205 F 
ENDBRANCH   7  13
ENDBRANCH   1   2
BRANCH   1  20
ATOM     20  N   UNL     1      -0.397  -2.009  -0.329  0.00  0.00    -0.290 NA
BRANCH  20  21
ATOM     21  C   UNL     1       0.917  -1.440  -0.001  0.00  0.00    +0.113 C 
BRANCH  21  22
ATOM     22  C   UNL     1       2.017  -2.401  -0.457  0.00  0.00    +0.174 C 
BRANCH  22  24
ATOM     23  C   UNL     1       3.021  -3.350  -2.416  0.00  0.00    +0.194 C 
ATOM     24  O   UNL     1       2.025  -2.474  -1.884  0.00  0.00    -0.382 OA
ENDBRANCH  22  24
ENDBRANCH  21  22
ENDBRANCH  20  21
BRANCH  20  25
ATOM     25  C   UNL     1      -0.537  -3.363   0.223  0.00  0.00    +0.120 C 
BRANCH  25  26
ATOM     26  C   UNL     1      -0.542  -3.294   1.728  0.00  0.00    -0.026 A 
ATOM     27  C   UNL     1       0.649  -3.377   2.426  0.00  0.00    +0.054 A 
ATOM     28  C   UNL     1       0.649  -3.314   3.811  0.00  0.00    +0.165 A 
ATOM     29  C   UNL     1      -0.550  -3.168   4.498  0.00  0.00    +0.204 A 
ATOM     30  C   UNL     1      -1.745  -3.085   3.793  0.00  0.00    +0.165 A 
ATOM     31  C   UNL     1      -1.736  -3.143   2.408  0.00  0.00    +0.054 A 
BRANCH  30  32
ATOM     32  O   UNL     1      -2.921  -2.942   4.461  0.00  0.00    -0.491 OA
ATOM     33  C   UNL     1      -4.110  -2.863   3.672  0.00  0.00    +0.277 C 
ENDBRANCH  30  32
BRANCH  29  34
ATOM     34  O   UNL     1      -0.554  -3.106   5.858  0.00  0.00    -0.488 OA
ATOM     35  C   UNL     1      -0.434  -1.811   6.449  0.00  0.00    +0.277 C 
ENDBRANCH  29  34
BRANCH  28  36
ATOM     36  O   UNL     1       1.821  -3.396   4.496  0.00  0.00    -0.491 OA
ATOM     37  C   UNL     1       3.014  -3.546   3.725  0.00  0.00    +0.277 C 
ENDBRANCH  28  36
ENDBRANCH  25  26
ENDBRANCH  20  25
ENDBRANCH   1  20
TORSDOF 11
