REMARK  Name = ZINC63385195
REMARK  5 active torsions:
REMARK  status: ('A' for Active; 'I' for Inactive)
REMARK    1  A    between atoms: C_10  and  C_15
REMARK    2  A    between atoms: C_15  and  C_16
REMARK    3  A    between atoms: N_18  and  C_19
REMARK    4  A    between atoms: C_19  and  C_20
REMARK    5  A    between atoms: C_20  and  C_21
REMARK                            x       y       z     vdW  Elec       q    Type
REMARK                         _______ _______ _______ _____ _____    ______ ____
ROOT
ATOM      1  C   UNL     1       1.486  -2.159  -3.542  0.00  0.00    +0.215 C 
ATOM      2  O   UNL     1       1.351  -3.358  -3.420  0.00  0.00    -0.276 OA
ATOM      3  N   UNL     1       0.825  -1.501  -4.514  0.00  0.00    -0.315 N 
ATOM      4  H   UNL     1       0.933  -0.542  -4.611  0.00  0.00    +0.149 HD
ENDROOT
BRANCH   1   5
ATOM      5  C   UNL     1       2.395  -1.405  -2.605  0.00  0.00    +0.127 C 
BRANCH   5  15
ATOM      6  C   UNL     1      -0.017   1.370   0.010  0.00  0.00    +0.001 A 
ATOM      7  C   UNL     1       1.173   2.080   0.002  0.00  0.00    +0.002 A 
ATOM      8  C   UNL     1       2.377   1.413  -0.011  0.00  0.00    +0.024 A 
ATOM      9  C   UNL     1       2.418   0.016  -0.018  0.00  0.00    +0.046 A 
ATOM     10  C   UNL     1       1.222  -0.701  -0.013  0.00  0.00    +0.058 A 
ATOM     11  C   UNL     1       0.002  -0.004   0.002  0.00  0.00    +0.015 A 
ATOM     12  C   UNL     1       1.166  -2.168  -0.030  0.00  0.00    +0.246 C 
ATOM     13  O   UNL     1       0.328  -2.710   0.664  0.00  0.00    -0.270 OA
ATOM     14  N   UNL     1       1.970  -2.945  -0.753  0.00  0.00    -0.300 N 
ATOM     15  C   UNL     1       3.018  -2.380  -1.604  0.00  0.00    +0.168 C 
ATOM     16  C   UNL     1       4.008  -1.651  -0.737  0.00  0.00    +0.238 C 
ATOM     17  O   UNL     1       5.152  -2.051  -0.686  0.00  0.00    -0.273 OA
ATOM     18  N   UNL     1       3.665  -0.582  -0.025  0.00  0.00    -0.283 N 
ATOM     19  H   UNL     1       1.858  -3.908  -0.715  0.00  0.00    +0.150 HD
ATOM     20  H   UNL     1       4.349  -0.188   0.539  0.00  0.00    +0.155 HD
ENDBRANCH   5  15
ENDBRANCH   1   5
BRANCH   3  21
ATOM     21  C   UNL     1      -0.058  -2.235  -5.425  0.00  0.00    +0.108 C 
BRANCH  21  22
ATOM     22  C   UNL     1      -0.681  -1.260  -6.426  0.00  0.00    +0.052 C 
BRANCH  22  23
ATOM     23  C   UNL     1      -1.589  -2.014  -7.363  0.00  0.00    -0.040 C 
ATOM     24  C   UNL     1      -2.927  -2.175  -7.244  0.00  0.00    +0.000 A 
ATOM     25  C   UNL     1      -3.899  -1.713  -6.246  0.00  0.00    +0.030 A 
ATOM     26  C   UNL     1      -5.203  -2.041  -6.400  0.00  0.00    +0.042 A 
ATOM     27  C   UNL     1      -5.647  -2.809  -7.486  0.00  0.00    +0.022 A 
ATOM     28  C   UNL     1      -4.814  -3.269  -8.443  0.00  0.00    +0.027 A 
ATOM     29  C   UNL     1      -3.421  -2.983  -8.382  0.00  0.00    +0.043 A 
ATOM     30  N   UNL     1      -2.428  -3.310  -9.172  0.00  0.00    -0.380 N 
ATOM     31  C   UNL     1      -1.190  -2.739  -8.629  0.00  0.00    +0.144 C 
ATOM     32 CL   UNL     1      -6.356  -1.498  -5.221  0.00  0.00    -0.084 Cl
ATOM     33  H   UNL     1      -2.500  -3.837  -9.983  0.00  0.00    +0.160 HD
ENDBRANCH  22  23
ENDBRANCH  21  22
ENDBRANCH   3  21
TORSDOF 5
