REMARK  Name = ZINC39335849
REMARK  6 active torsions:
REMARK  status: ('A' for Active; 'I' for Inactive)
REMARK    1  A    between atoms: C_7  and  C_10
REMARK    2  A    between atoms: C_10  and  C_11
REMARK    3  A    between atoms: C_11  and  C_12
REMARK    4  A    between atoms: C_12  and  C_13
REMARK    5  A    between atoms: N_15  and  C_16
REMARK    6  A    between atoms: C_18  and  C_26
REMARK                            x       y       z     vdW  Elec       q    Type
REMARK                         _______ _______ _______ _____ _____    ______ ____
ROOT
ATOM      1  C   UNL     1      -4.633   5.911  -2.695  0.00  0.00    +0.214 C 
ATOM      2  O   UNL     1      -3.899   5.461  -3.549  0.00  0.00    -0.276 OA
ATOM      3  N   UNL     1      -5.520   6.876  -3.009  0.00  0.00    -0.302 N 
ATOM      4  H   UNL     1      -6.107   7.236  -2.326  0.00  0.00    +0.150 HD
ENDROOT
BRANCH   3   5
ATOM      5  C   UNL     1      -5.596   7.383  -4.382  0.00  0.00    +0.151 C 
ATOM      6  C   UNL     1      -7.019   7.882  -4.724  0.00  0.00    +0.132 C 
ATOM      7  C   UNL     1      -7.396   7.551  -6.155  0.00  0.00    -0.046 C 
ATOM      8  C   UNL     1      -6.708   6.601  -6.764  0.00  0.00    -0.013 C 
ATOM      9  S   UNL     1      -5.475   6.019  -5.613  0.00  0.00    -0.106 S 
ATOM     10  C   UNL     1      -7.196   6.351  -8.171  0.00  0.00    +0.042 C 
ATOM     11  C   UNL     1      -8.589   7.014  -8.222  0.00  0.00    +0.009 C 
ATOM     12  C   UNL     1      -8.451   8.091  -7.128  0.00  0.00    +0.033 C 
BRANCH   6  13
ATOM     13  C   UNL     1      -8.007   7.229  -3.793  0.00  0.00    +0.220 C 
ATOM     14  O   UNL     1      -8.451   6.131  -4.053  0.00  0.00    -0.275 OA
ATOM     15  N   UNL     1      -8.398   7.866  -2.671  0.00  0.00    -0.329 N 
ATOM     16  H   UNL     1      -8.099   8.773  -2.499  0.00  0.00    +0.145 HD
ATOM     17  H   UNL     1      -8.978   7.418  -2.036  0.00  0.00    +0.145 HD
ENDBRANCH   6  13
ENDBRANCH   3   5
BRANCH   1  18
ATOM     18  C   UNL     1      -4.555   5.390  -1.284  0.00  0.00    +0.096 C 
BRANCH  18  19
ATOM     19  C   UNL     1      -3.476   4.309  -1.198  0.00  0.00    +0.014 C 
BRANCH  19  20
ATOM     20  C   UNL     1      -3.396   3.780   0.235  0.00  0.00    +0.038 C 
BRANCH  20  27
ATOM     21  C   UNL     1       1.246   3.924   0.870  0.00  0.00    +0.001 A 
ATOM     22  C   UNL     1       1.830   2.664   0.878  0.00  0.00    +0.002 A 
ATOM     23  C   UNL     1       1.062   1.532   0.711  0.00  0.00    +0.026 A 
ATOM     24  C   UNL     1      -0.312   1.650   0.532  0.00  0.00    +0.047 A 
ATOM     25  N   UNL     1      -1.325   0.737   0.344  0.00  0.00    -0.360 N 
ATOM     26  C   UNL     1      -2.522   1.389   0.219  0.00  0.00    +0.087 A 
ATOM     27  C   UNL     1      -2.333   2.715   0.319  0.00  0.00    -0.022 A 
ATOM     28  C   UNL     1      -0.899   2.929   0.525  0.00  0.00    +0.003 A 
ATOM     29  C   UNL     1      -0.103   4.062   0.702  0.00  0.00    +0.010 A 
ATOM     30  H   UNL     1      -1.208  -0.225   0.305  0.00  0.00    +0.165 HD
ENDBRANCH  20  27
ENDBRANCH  19  20
ENDBRANCH  18  19
ENDBRANCH   1  18
TORSDOF 6
