REMARK  Name = ZINC08687673
REMARK  8 active torsions:
REMARK  status: ('A' for Active; 'I' for Inactive)
REMARK    1  A    between atoms: C_1  and  C_2
REMARK    2  A    between atoms: C_6  and  C_24
REMARK    3  A    between atoms: C_7  and  N_8
REMARK    4  A    between atoms: N_8  and  C_9
REMARK    5  A    between atoms: C_9  and  N_11
REMARK    6  A    between atoms: N_11  and  N_12
REMARK    7  A    between atoms: C_13  and  C_14
REMARK    8  A    between atoms: C_13  and  C_15
REMARK                            x       y       z     vdW  Elec       q    Type
REMARK                         _______ _______ _______ _____ _____    ______ ____
ROOT
ATOM      1  N   UNL     1      -0.273  -1.339   4.945  0.00  0.00    -0.218 N 
ATOM      2  H   UNL     1      -0.449  -2.020   5.613  0.00  0.00    +0.176 HD
ENDROOT
BRANCH   1   3
ATOM      3  N   UNL     1      -0.108  -0.003   5.333  0.00  0.00    -0.182 NA
ATOM      4  C   UNL     1      -0.191   0.325   6.589  0.00  0.00    +0.098 C 
ATOM      5  C   UNL     1      -0.464  -0.734   7.627  0.00  0.00    +0.071 C 
BRANCH   4   6
ATOM      6  C   UNL     1      -0.018   1.723   6.996  0.00  0.00    +0.151 A 
ATOM      7  C   UNL     1       0.226   2.759   6.150  0.00  0.00    +0.059 A 
ATOM      8  C   UNL     1       0.323   3.953   6.990  0.00  0.00    +0.021 A 
ATOM      9  C   UNL     1       0.555   5.306   6.735  0.00  0.00    +0.011 A 
ATOM     10  C   UNL     1       0.586   6.196   7.773  0.00  0.00    +0.001 A 
ATOM     11  C   UNL     1       0.389   5.762   9.076  0.00  0.00    +0.004 A 
ATOM     12  C   UNL     1       0.158   4.430   9.348  0.00  0.00    +0.047 A 
ATOM     13  C   UNL     1       0.121   3.509   8.310  0.00  0.00    +0.136 A 
ATOM     14  O   UNL     1      -0.083   2.176   8.264  0.00  0.00    -0.454 OA
ENDBRANCH   4   6
ENDBRANCH   1   3
BRANCH   1  15
ATOM     15  C   UNL     1      -0.188  -1.677   3.643  0.00  0.00    +0.154 C 
ATOM     16  S   UNL     1      -0.389  -3.310   3.169  0.00  0.00    -0.017 S 
BRANCH  15  17
ATOM     17  N   UNL     1       0.057  -0.731   2.715  0.00  0.00    -0.295 N 
ATOM     18  H   UNL     1       0.237   0.182   2.989  0.00  0.00    +0.154 HD
BRANCH  17  25
ATOM     19  C   UNL     1       2.557  -0.983   1.380  0.00  0.00    +0.045 C 
ATOM     20  C   UNL     1       1.247  -1.198   0.666  0.00  0.00    -0.029 A 
ATOM     21  C   UNL     1       1.236  -1.533  -0.673  0.00  0.00    +0.005 A 
ATOM     22  C   UNL     1       0.035  -1.731  -1.329  0.00  0.00    +0.001 A 
ATOM     23  C   UNL     1      -1.160  -1.594  -0.645  0.00  0.00    +0.005 A 
ATOM     24  C   UNL     1      -1.156  -1.258   0.695  0.00  0.00    -0.029 A 
ATOM     25  C   UNL     1       0.049  -1.065   1.357  0.00  0.00    +0.039 A 
ATOM     26  C   UNL     1      -2.458  -1.108   1.438  0.00  0.00    +0.045 C 
ENDBRANCH  17  25
ENDBRANCH  15  17
ENDBRANCH   1  15
TORSDOF 5
