REMARK  Name = ZINC05371404
REMARK  6 active torsions:
REMARK  status: ('A' for Active; 'I' for Inactive)
REMARK    1  A    between atoms: C_1  and  C_2
REMARK    2  A    between atoms: C_5  and  O_19
REMARK    3  A    between atoms: C_7  and  C_18
REMARK    4  A    between atoms: C_9  and  O_17
REMARK    5  A    between atoms: C_11  and  C_15
REMARK    6  A    between atoms: C_11  and  C_16
REMARK                            x       y       z     vdW  Elec       q    Type
REMARK                         _______ _______ _______ _____ _____    ______ ____
ROOT
ATOM      1  C   UNL     1      -1.402   4.374  -1.210  0.00  0.00    +0.039 C 
ATOM      2  C   UNL     1      -0.137   3.880  -1.863  0.00  0.00    -0.076 C 
ATOM      3  C   UNL     1       0.119   2.596  -1.907  0.00  0.00    -0.025 C 
ATOM      4  C   UNL     1      -0.850   1.613  -1.302  0.00  0.00    +0.063 C 
ATOM      5  C   UNL     1      -0.180   0.893  -0.129  0.00  0.00    +0.144 C 
ATOM      6  C   UNL     1       1.244   1.368   0.004  0.00  0.00    -0.046 C 
ATOM      7  C   UNL     1       1.566   2.220   0.945  0.00  0.00    +0.006 C 
ATOM      8  C   UNL     1       2.990   2.694   1.078  0.00  0.00    +0.143 C 
ATOM      9  C   UNL     1       3.136   4.061   0.406  0.00  0.00    -0.005 C 
ATOM     10  C   UNL     1       2.688   3.962  -1.054  0.00  0.00    +0.009 C 
ATOM     11  C   UNL     1       1.904   5.221  -1.433  0.00  0.00    +0.005 C 
ATOM     12  C   UNL     1       0.833   4.863  -2.466  0.00  0.00    +0.030 C 
ATOM     13  C   UNL     1       2.268   5.085   1.138  0.00  0.00    +0.014 C 
ATOM     14  C   UNL     1       4.601   4.502   0.461  0.00  0.00    +0.014 C 
ATOM     15  C   UNL     1       2.299   0.863  -0.948  0.00  0.00    +0.041 C 
ENDROOT
BRANCH   8  16
ATOM     16  O   UNL     1       3.865   1.757   0.447  0.00  0.00    -0.387 OA
ATOM     17  H   UNL     1       3.902   0.897   0.887  0.00  0.00    +0.210 HD
ENDBRANCH   8  16
BRANCH   5  18
ATOM     18  O   UNL     1      -0.192  -0.516  -0.366  0.00  0.00    -0.387 OA
ATOM     19  H   UNL     1      -1.079  -0.891  -0.462  0.00  0.00    +0.210 HD
ENDBRANCH   5  18
TORSDOF 2
