REMARK  Name = ZINC14653498
REMARK  10 active torsions:
REMARK  status: ('A' for Active; 'I' for Inactive)
REMARK    1  A    between atoms: C_1  and  C_2
REMARK    2  A    between atoms: C_2  and  C_3
REMARK    3  A    between atoms: C_3  and  C_4
REMARK    4  A    between atoms: C_4  and  N_5
REMARK    5  A    between atoms: C_6  and  N_31
REMARK    6  A    between atoms: C_7  and  N_14
REMARK    7  A    between atoms: N_14  and  C_15
REMARK    8  A    between atoms: C_15  and  C_16
REMARK    9  A    between atoms: C_21  and  C_23
REMARK   10  A    between atoms: C_23  and  C_24
REMARK                            x       y       z     vdW  Elec       q    Type
REMARK                         _______ _______ _______ _____ _____    ______ ____
ROOT
ATOM      1  N   UNL     1      -1.637  -1.234  -1.366  0.00  0.00    -0.257 N 
ATOM      2  C   UNL     1      -1.216  -2.439  -1.805  0.00  0.00    +0.225 C 
ATOM      3  O   UNL     1      -1.610  -2.869  -2.869  0.00  0.00    -0.275 OA
ENDROOT
BRANCH   1   6
ATOM      4  N   UNL     1      -3.328   0.625  -4.046  0.00  0.00    -0.280 N 
ATOM      5  C   UNL     1      -2.353  -0.066  -3.365  0.00  0.00    +0.127 A 
ATOM      6  C   UNL     1      -2.616  -0.522  -2.090  0.00  0.00    +0.140 A 
ATOM      7  C   UNL     1      -3.881  -0.271  -1.526  0.00  0.00    +0.277 A 
ATOM      8  O   UNL     1      -4.142  -0.667  -0.403  0.00  0.00    -0.266 OA
ATOM      9  N   UNL     1      -4.799   0.416  -2.234  0.00  0.00    -0.273 N 
ATOM     10  H   UNL     1      -5.695   0.603  -1.831  0.00  0.00    +0.173 HD
ATOM     11  C   UNL     1      -4.525   0.853  -3.475  0.00  0.00    +0.331 A 
ATOM     12  O   UNL     1      -5.374   1.466  -4.094  0.00  0.00    -0.246 OA
BRANCH   5  13
ATOM     13  N   UNL     1      -1.130  -0.299  -3.948  0.00  0.00    -0.343 N 
ATOM     14  H   UNL     1      -0.417  -0.708  -3.433  0.00  0.00    +0.144 HD
ATOM     15  H   UNL     1      -0.980  -0.054  -4.875  0.00  0.00    +0.144 HD
ENDBRANCH   5  13
BRANCH   4  16
ATOM     16  C   UNL     1      -3.062   1.115  -5.401  0.00  0.00    +0.128 C 
BRANCH  16  17
ATOM     17  C   UNL     1      -3.466   0.047  -6.418  0.00  0.00    +0.021 C 
BRANCH  17  19
ATOM     18  C   UNL     1      -3.593  -0.510  -8.851  0.00  0.00    +0.004 C 
ATOM     19  C   UNL     1      -3.188   0.559  -7.833  0.00  0.00    -0.002 C 
ENDBRANCH  17  19
ENDBRANCH  16  17
ENDBRANCH   4  16
ENDBRANCH   1   6
BRANCH   1  20
ATOM     20  C   UNL     1      -1.076  -0.666  -0.138  0.00  0.00    +0.188 C 
BRANCH  20  21
ATOM     21  C   UNL     1       0.117   0.190  -0.479  0.00  0.00    +0.122 A 
ATOM     22  C   UNL     1       0.087   1.505  -0.761  0.00  0.00    +0.046 A 
ATOM     23  C   UNL     1       1.420   1.899  -1.019  0.00  0.00    +0.041 A 
ATOM     24  C   UNL     1       2.185   0.801  -0.879  0.00  0.00    +0.195 A 
ATOM     25  O   UNL     1       1.390  -0.231  -0.551  0.00  0.00    -0.466 OA
ENDBRANCH  20  21
ENDBRANCH   1  20
BRANCH   2  26
ATOM     26  C   UNL     1      -0.256  -3.250  -0.974  0.00  0.00    +0.131 C 
BRANCH  26  27
ATOM     27  C   UNL     1       0.053  -4.544  -1.683  0.00  0.00    -0.039 A 
ATOM     28  C   UNL     1      -0.724  -5.663  -1.450  0.00  0.00    +0.005 A 
ATOM     29  C   UNL     1      -0.444  -6.848  -2.103  0.00  0.00    +0.015 A 
ATOM     30  C   UNL     1       0.621  -6.917  -2.983  0.00  0.00    +0.018 A 
ATOM     31  C   UNL     1       1.402  -5.798  -3.212  0.00  0.00    +0.015 A 
ATOM     32  C   UNL     1       1.118  -4.612  -2.562  0.00  0.00    +0.005 A 
ATOM     33 BR   UNL     1       1.009  -8.540  -3.873  0.00  0.00    -0.050 Br
ENDBRANCH  26  27
ENDBRANCH   2  26
TORSDOF 9
