REMARK  Name = ZINC18219291
REMARK  6 active torsions:
REMARK  status: ('A' for Active; 'I' for Inactive)
REMARK    1  A    between atoms: C_1  and  C_2
REMARK    2  A    between atoms: C_2  and  C_4
REMARK    3  A    between atoms: C_2  and  S_17
REMARK    4  A    between atoms: N_6  and  C_7
REMARK    5  A    between atoms: S_17  and  C_18
REMARK    6  A    between atoms: C_24  and  N_26
REMARK                            x       y       z     vdW  Elec       q    Type
REMARK                         _______ _______ _______ _____ _____    ______ ____
ROOT
ATOM      1  C   UNL     1       0.621  -0.520   1.319  0.00  0.00    +0.029 C 
ATOM      2  C   UNL     1       0.003  -0.009   0.015  0.00  0.00    +0.137 C 
ENDROOT
BRANCH   2   3
ATOM      3  C   UNL     1      -1.407  -0.526  -0.109  0.00  0.00    +0.230 C 
ATOM      4  O   UNL     1      -2.343   0.191   0.177  0.00  0.00    -0.274 OA
ATOM      5  N   UNL     1      -1.628  -1.784  -0.537  0.00  0.00    -0.284 N 
ATOM      6  H   UNL     1      -0.887  -2.331  -0.841  0.00  0.00    +0.155 HD
BRANCH   5   7
ATOM      7  C   UNL     1      -2.925  -2.302  -0.543  0.00  0.00    +0.041 A 
ATOM      8  C   UNL     1      -3.879  -1.797   0.314  0.00  0.00    +0.024 A 
ATOM      9  C   UNL     1      -5.176  -2.303   0.313  0.00  0.00    +0.002 A 
ATOM     10  C   UNL     1      -5.535  -3.314  -0.525  0.00  0.00    +0.008 A 
ATOM     11  C   UNL     1      -4.591  -3.861  -1.411  0.00  0.00    -0.016 A 
ATOM     12  C   UNL     1      -3.269  -3.351  -1.422  0.00  0.00    +0.003 A 
ATOM     13  C   UNL     1      -2.326  -3.899  -2.306  0.00  0.00    +0.010 A 
ATOM     14  C   UNL     1      -2.693  -4.910  -3.140  0.00  0.00    +0.001 A 
ATOM     15  C   UNL     1      -3.993  -5.413  -3.130  0.00  0.00    +0.001 A 
ATOM     16  C   UNL     1      -4.933  -4.906  -2.286  0.00  0.00    +0.008 A 
ENDBRANCH   5   7
ENDBRANCH   2   3
BRANCH   2  17
ATOM     17  S   UNL     1      -0.017   1.801   0.026  0.00  0.00    -0.075 S 
BRANCH  17  18
ATOM     18  C   UNL     1       1.715   2.125   0.025  0.00  0.00    +0.171 A 
ATOM     19  N   UNL     1       2.152   3.416   0.026  0.00  0.00    -0.302 N 
ATOM     20  H   UNL     1       1.512   4.144   0.027  0.00  0.00    +0.171 HD
ATOM     21  C   UNL     1       3.475   3.683   0.031  0.00  0.00    +0.254 A 
ATOM     22  O   UNL     1       3.876   4.836   0.037  0.00  0.00    -0.268 OA
ATOM     23  C   UNL     1       4.380   2.616   0.023  0.00  0.00    +0.113 A 
ATOM     24  C   UNL     1       3.883   1.320   0.016  0.00  0.00    +0.124 A 
ATOM     25  N   UNL     1       2.561   1.116   0.017  0.00  0.00    -0.209 NA
BRANCH  24  26
ATOM     26  N   UNL     1       4.750   0.246   0.007  0.00  0.00    -0.343 N 
ATOM     27  H   UNL     1       4.402  -0.659   0.003  0.00  0.00    +0.144 HD
ATOM     28  H   UNL     1       5.709   0.397   0.007  0.00  0.00    +0.144 HD
ENDBRANCH  24  26
ENDBRANCH  17  18
ENDBRANCH   2  17
TORSDOF 5
