REMARK  Name = ZINC14473793
REMARK  3 active torsions:
REMARK  status: ('A' for Active; 'I' for Inactive)
REMARK    1  A    between atoms: C_4  and  O_26
REMARK    2  A    between atoms: C_5  and  C_7
REMARK    3  A    between atoms: C_18  and  C_23
REMARK                            x       y       z     vdW  Elec       q    Type
REMARK                         _______ _______ _______ _____ _____    ______ ____
ROOT
ATOM      1  C   UNL     1      -7.347  -0.634  -0.007  0.00  0.00    +0.108 C 
ATOM      2  C   UNL     1      -7.170   0.665  -0.773  0.00  0.00    +0.029 C 
ATOM      3  C   UNL     1      -8.343   1.654  -0.756  0.00  0.00    +0.033 C 
ATOM      4  C   UNL     1      -7.618   2.993  -0.904  0.00  0.00    -0.030 C 
ATOM      5  C   UNL     1      -6.377   2.891  -0.443  0.00  0.00    -0.023 C 
ATOM      6  C   UNL     1      -6.176   1.514   0.075  0.00  0.00    +0.049 C 
ATOM      7  C   UNL     1      -4.857   0.846   0.030  0.00  0.00    -0.019 A 
ATOM      8  C   UNL     1      -3.676   1.548   0.028  0.00  0.00    +0.019 A 
ATOM      9  C   UNL     1      -2.455   0.869   0.018  0.00  0.00    +0.037 A 
ATOM     10  C   UNL     1      -2.440  -0.529   0.005  0.00  0.00    +0.015 A 
ATOM     11  C   UNL     1      -3.623  -1.229   0.006  0.00  0.00    +0.024 A 
ATOM     12  C   UNL     1      -4.843  -0.557   0.008  0.00  0.00    +0.031 A 
ATOM     13  N   UNL     1      -6.025  -1.296  -0.032  0.00  0.00    -0.336 N 
ATOM     14  H   UNL     1      -5.979  -2.264  -0.076  0.00  0.00    +0.147 HD
ENDROOT
BRANCH   1  19
ATOM     15  C   UNL     1      -8.921  -3.295  -2.175  0.00  0.00    +0.001 A 
ATOM     16  C   UNL     1     -10.266  -3.100  -1.923  0.00  0.00    +0.004 A 
ATOM     17  C   UNL     1     -10.671  -2.108  -1.052  0.00  0.00    +0.046 A 
ATOM     18  C   UNL     1      -9.725  -1.310  -0.424  0.00  0.00    +0.122 A 
ATOM     19  C   UNL     1      -8.376  -1.503  -0.683  0.00  0.00    +0.014 A 
ATOM     20  C   UNL     1      -7.977  -2.497  -1.556  0.00  0.00    +0.009 A 
BRANCH  18  21
ATOM     21  O   UNL     1     -10.120  -0.337   0.438  0.00  0.00    -0.506 OA
ATOM     22  H   UNL     1     -10.281   0.520   0.019  0.00  0.00    +0.292 HD
ENDBRANCH  18  21
ENDBRANCH   1  19
BRANCH   9  23
ATOM     23  C   UNL     1      -1.187   1.624   0.017  0.00  0.00    +0.242 C 
ATOM     24  O   UNL     1      -1.204   2.840   0.023  0.00  0.00    -0.270 OA
ATOM     25  N   UNL     1      -0.011   0.966   0.007  0.00  0.00    -0.325 N 
ATOM     26  H   UNL     1       0.002  -0.004   0.002  0.00  0.00    +0.145 HD
ATOM     27  H   UNL     1       0.822   1.462   0.002  0.00  0.00    +0.145 HD
ENDBRANCH   9  23
TORSDOF 3
