REMARK  Name = ZINC11998815
REMARK  10 active torsions:
REMARK  status: ('A' for Active; 'I' for Inactive)
REMARK    1  A    between atoms: C_1  and  O_2
REMARK    2  A    between atoms: O_2  and  C_3
REMARK    3  A    between atoms: C_5  and  C_10
REMARK    4  A    between atoms: C_8  and  O_9
REMARK    5  A    between atoms: C_11  and  C_12
REMARK    6  A    between atoms: C_12  and  N_61
REMARK    7  A    between atoms: C_19  and  C_23
REMARK    8  A    between atoms: C_23  and  C_25
REMARK    9  A    between atoms: C_23  and  O_32
REMARK   10  A    between atoms: C_25  and  C_26
REMARK                            x       y       z     vdW  Elec       q    Type
REMARK                         _______ _______ _______ _____ _____    ______ ____
ROOT
ATOM      1  C   UNL     1       6.318   2.154   2.357  0.00  0.00    -0.036 C 
ATOM      2  C   UNL     1       6.949   1.446   3.536  0.00  0.00    +0.210 C 
ATOM      3  O   UNL     1       8.296   1.890   3.735  0.00  0.00    -0.494 OA
ATOM      4  C   UNL     1       9.238   1.243   2.994  0.00  0.00    +0.122 A 
ATOM      5  C   UNL     1      10.139   0.385   3.607  0.00  0.00    +0.046 A 
ATOM      6  C   UNL     1      11.057  -0.306   2.839  0.00  0.00    +0.010 A 
ATOM      7  C   UNL     1      11.080  -0.141   1.466  0.00  0.00    -0.018 A 
ATOM      8  C   UNL     1      10.187   0.722   0.856  0.00  0.00    +0.011 A 
ATOM      9  C   UNL     1       9.275   1.417   1.624  0.00  0.00    -0.022 A 
ATOM     10  C   UNL     1       8.306   2.382   0.969  0.00  0.00    -0.039 C 
ATOM     11  N   UNL     1       6.948   1.798   1.067  0.00  0.00    +0.387 N 
ATOM     12  H   UNL     1       7.024   0.776   1.008  0.00  0.00    -0.081 HD
ENDROOT
BRANCH  11  13
ATOM     13  C   UNL     1       6.112   2.278  -0.045  0.00  0.00    -0.050 C 
BRANCH  13  15
ATOM     14  C   UNL     1       3.660   2.163  -0.022  0.00  0.00    +0.002 C 
ATOM     15  C   UNL     1       4.815   1.511  -0.037  0.00  0.00    -0.045 C 
BRANCH  14  18
ATOM     16  C   UNL     1      -0.017   1.389   0.010  0.00  0.00    +0.162 A 
ATOM     17  C   UNL     1       1.171   2.096   0.002  0.00  0.00    +0.057 A 
ATOM     18  C   UNL     1       2.388   1.412  -0.013  0.00  0.00    -0.022 A 
ATOM     19  C   UNL     1       2.399   0.016  -0.021  0.00  0.00    +0.012 A 
ATOM     20  C   UNL     1       1.211  -0.684  -0.014  0.00  0.00    +0.050 A 
ATOM     21  C   UNL     1       0.002  -0.004   0.002  0.00  0.00    +0.158 A 
BRANCH  16  23
ATOM     22  C   UNL     1      -1.148   3.480   0.026  0.00  0.00    +0.277 C 
ATOM     23  O   UNL     1      -1.204   2.053   0.019  0.00  0.00    -0.491 OA
ENDBRANCH  16  23
BRANCH  21  24
ATOM     24  O   UNL     1      -1.167  -0.698   0.009  0.00  0.00    -0.503 OA
ATOM     25  H   UNL     1      -1.513  -0.894  -0.872  0.00  0.00    +0.292 HD
ENDBRANCH  21  24
ENDBRANCH  14  18
ENDBRANCH  13  15
ENDBRANCH  11  13
BRANCH   7  26
ATOM     26  C   UNL     1      12.077  -0.905   0.634  0.00  0.00    +0.149 C 
BRANCH  26  27
ATOM     27  O   UNL     1      13.300  -1.042   1.361  0.00  0.00    -0.387 OA
ATOM     28  H   UNL     1      13.207  -1.514   2.200  0.00  0.00    +0.210 HD
ENDBRANCH  26  27
BRANCH  26  29
ATOM     29  C   UNL     1      11.517  -2.292   0.312  0.00  0.00    +0.071 C 
BRANCH  29  30
ATOM     30  C   UNL     1      12.459  -3.009  -0.621  0.00  0.00    -0.045 A 
ATOM     31  C   UNL     1      12.301  -2.889  -1.989  0.00  0.00    +0.004 A 
ATOM     32  C   UNL     1      13.168  -3.543  -2.845  0.00  0.00    +0.000 A 
ATOM     33  C   UNL     1      14.185  -4.326  -2.333  0.00  0.00    +0.000 A 
ATOM     34  C   UNL     1      14.339  -4.452  -0.965  0.00  0.00    +0.000 A 
ATOM     35  C   UNL     1      13.476  -3.793  -0.109  0.00  0.00    +0.004 A 
ENDBRANCH  29  30
ENDBRANCH  26  29
ENDBRANCH   7  26
TORSDOF 9
