REMARK  Name = ZINC33271596
REMARK  5 active torsions:
REMARK  status: ('A' for Active; 'I' for Inactive)
REMARK    1  A    between atoms: C_1  and  C_2
REMARK    2  A    between atoms: C_12  and  O_16
REMARK    3  A    between atoms: O_16  and  C_17
REMARK    4  A    between atoms: C_22  and  C_24
REMARK    5  A    between atoms: C_27  and  O_30
REMARK                            x       y       z     vdW  Elec       q    Type
REMARK                         _______ _______ _______ _____ _____    ______ ____
ROOT
ATOM      1  C   UNL     1      -3.748  -9.029  -0.002  0.00  0.00    +0.068 C 
ATOM      2  C   UNL     1      -2.628  -8.021  -0.009  0.00  0.00    +0.066 A 
ATOM      3  C   UNL     1      -1.272  -8.312  -0.019  0.00  0.00    +0.023 A 
ATOM      4  C   UNL     1      -0.584  -7.128  -0.034  0.00  0.00    +0.135 A 
ATOM      5  N   UNL     1      -1.493  -6.129  -0.015  0.00  0.00    -0.193 N 
ATOM      6  N   UNL     1      -2.770  -6.716  -0.008  0.00  0.00    -0.168 NA
ATOM      7  C   UNL     1      -1.216  -4.767  -0.010  0.00  0.00    +0.196 A 
ATOM      8  N   UNL     1      -0.051  -4.165  -0.018  0.00  0.00    -0.221 NA
ATOM      9  C   UNL     1       0.072  -2.819  -0.012  0.00  0.00    +0.081 A 
ATOM     10  C   UNL     1       1.259  -2.051  -0.020  0.00  0.00    +0.032 A 
ATOM     11  C   UNL     1       1.212  -0.692  -0.013  0.00  0.00    +0.048 A 
ATOM     12  C   UNL     1       0.002  -0.004   0.002  0.00  0.00    +0.121 A 
ATOM     13  C   UNL     1      -1.185  -0.722   0.015  0.00  0.00    +0.063 A 
ATOM     14  C   UNL     1      -1.142  -2.095   0.003  0.00  0.00    +0.044 A 
ATOM     15  S   UNL     1      -2.357  -3.391   0.008  0.00  0.00    -0.048 S 
ATOM     16  N   UNL     1       0.809  -7.087  -0.033  0.00  0.00    -0.270 N 
ATOM     17  C   UNL     1       1.478  -8.236  -0.264  0.00  0.00    +0.219 C 
ATOM     18  O   UNL     1       2.680  -8.259  -0.103  0.00  0.00    -0.275 OA
ATOM     19  C   UNL     1       0.779  -9.488  -0.715  0.00  0.00    +0.109 C 
ATOM     20  C   UNL     1      -0.575  -9.649  -0.015  0.00  0.00    +0.063 C 
ATOM     21  H   UNL     1       1.331  -6.136   0.152  0.00  0.00    +0.156 HD
ENDROOT
BRANCH  20  22
ATOM     22  C   UNL     1      -1.411 -10.661  -0.756  0.00  0.00    -0.039 A 
ATOM     23  C   UNL     1      -1.731 -10.452  -2.085  0.00  0.00    +0.008 A 
ATOM     24  C   UNL     1      -2.493 -11.380  -2.768  0.00  0.00    +0.045 A 
ATOM     25  C   UNL     1      -2.947 -12.517  -2.116  0.00  0.00    +0.117 A 
ATOM     26  C   UNL     1      -2.630 -12.722  -0.780  0.00  0.00    +0.045 A 
ATOM     27  C   UNL     1      -1.863 -11.793  -0.104  0.00  0.00    +0.008 A 
BRANCH  25  28
ATOM     28  O   UNL     1      -3.702 -13.429  -2.783  0.00  0.00    -0.507 OA
ATOM     29  H   UNL     1      -4.061 -14.330  -2.265  0.00  0.00    +0.292 HD
ENDBRANCH  25  28
ENDBRANCH  20  22
BRANCH  12  30
ATOM     30  O   UNL     1      -0.016   1.355   0.009  0.00  0.00    -0.495 OA
ATOM     31  C   UNL     1       1.248   2.022   0.001  0.00  0.00    +0.277 C 
ENDBRANCH  12  30
TORSDOF 3
