REMARK  Name = ZINC10797553
REMARK  6 active torsions:
REMARK  status: ('A' for Active; 'I' for Inactive)
REMARK    1  A    between atoms: C_7  and  C_15
REMARK    2  A    between atoms: C_15  and  O_17
REMARK    3  A    between atoms: O_17  and  C_18
REMARK    4  A    between atoms: C_18  and  C_19
REMARK    5  A    between atoms: N_21  and  C_22
REMARK    6  A    between atoms: C_23  and  C_30
REMARK                            x       y       z     vdW  Elec       q    Type
REMARK                         _______ _______ _______ _____ _____    ______ ____
ROOT
ATOM      1  C   UNL     1      -1.854   5.976  -3.269  0.00  0.00    +0.328 C 
ENDROOT
BRANCH   1   2
ATOM      2  C   UNL     1      -3.179   5.449  -3.756  0.00  0.00    +0.255 C 
ATOM      3  O   UNL     1      -3.836   4.714  -3.049  0.00  0.00    -0.272 OA
ATOM      4  N   UNL     1      -3.634   5.795  -4.976  0.00  0.00    -0.277 N 
ATOM      5  H   UNL     1      -3.109   6.383  -5.542  0.00  0.00    +0.155 HD
BRANCH   4   6
ATOM      6  C   UNL     1      -4.854   5.310  -5.425  0.00  0.00    +0.084 A 
ATOM      7  C   UNL     1      -5.485   5.554  -6.632  0.00  0.00    +0.068 A 
ATOM      8  C   UNL     1      -6.778   4.910  -6.863  0.00  0.00    -0.023 A 
ATOM      9  C   UNL     1      -7.223   4.145  -5.850  0.00  0.00    -0.004 A 
ATOM     10  S   UNL     1      -5.960   4.260  -4.607  0.00  0.00    -0.077 S 
ATOM     11  C   UNL     1      -8.557   3.521  -6.159  0.00  0.00    +0.043 C 
ATOM     12  C   UNL     1      -8.702   3.651  -7.691  0.00  0.00    +0.010 C 
ATOM     13  C   UNL     1      -7.812   4.874  -7.989  0.00  0.00    +0.037 C 
BRANCH   7  14
ATOM     14  C   UNL     1      -4.877   6.422  -7.646  0.00  0.00    +0.244 C 
ATOM     15  O   UNL     1      -4.138   5.948  -8.489  0.00  0.00    -0.270 OA
ATOM     16  N   UNL     1      -5.136   7.745  -7.643  0.00  0.00    -0.325 N 
ATOM     17  H   UNL     1      -5.725   8.122  -6.971  0.00  0.00    +0.145 HD
ATOM     18  H   UNL     1      -4.734   8.319  -8.313  0.00  0.00    +0.145 HD
ENDBRANCH   7  14
ENDBRANCH   4   6
ENDBRANCH   1   2
BRANCH   1  19
ATOM     19  O   UNL     1      -1.590   5.464  -1.936  0.00  0.00    -0.455 OA
BRANCH  19  20
ATOM     20  C   UNL     1      -0.440   5.841  -1.355  0.00  0.00    +0.320 C 
ATOM     21  O   UNL     1       0.320   6.576  -1.940  0.00  0.00    -0.250 OA
BRANCH  20  28
ATOM     22  C   UNL     1      -1.219   1.751   0.017  0.00  0.00    +0.001 A 
ATOM     23  C   UNL     1      -0.013   1.076   0.008  0.00  0.00    +0.004 A 
ATOM     24  C   UNL     1       1.173   1.782   0.000  0.00  0.00    +0.046 A 
ATOM     25  C   UNL     1       1.157   3.173   0.007  0.00  0.00    +0.133 A 
ATOM     26  C   UNL     1      -0.053   3.846   0.021  0.00  0.00    +0.013 A 
ATOM     27  C   UNL     1      -1.238   3.132   0.028  0.00  0.00    +0.008 A 
ATOM     28  C   UNL     1      -0.098   5.349   0.028  0.00  0.00    +0.165 C 
ATOM     29  C   UNL     1       1.233   5.917   0.441  0.00  0.00    +0.013 A 
ATOM     30  C   UNL     1       1.308   7.233   0.860  0.00  0.00    +0.008 A 
ATOM     31  C   UNL     1       2.520   7.774   1.244  0.00  0.00    +0.001 A 
ATOM     32  C   UNL     1       3.665   6.998   1.210  0.00  0.00    +0.004 A 
ATOM     33  C   UNL     1       3.596   5.684   0.793  0.00  0.00    +0.046 A 
ATOM     34  C   UNL     1       2.378   5.138   0.406  0.00  0.00    +0.133 A 
ATOM     35  O   UNL     1       2.332   3.847  -0.001  0.00  0.00    -0.455 OA
ENDBRANCH  20  28
ENDBRANCH  19  20
ENDBRANCH   1  19
TORSDOF 6
