REMARK  Name = ZINC13015335
REMARK  8 active torsions:
REMARK  status: ('A' for Active; 'I' for Inactive)
REMARK    1  A    between atoms: C_1  and  C_2
REMARK    2  A    between atoms: C_6  and  N_9
REMARK    3  A    between atoms: C_7  and  C_8
REMARK    4  A    between atoms: C_10  and  C_12
REMARK    5  A    between atoms: C_12  and  N_13
REMARK    6  A    between atoms: C_14  and  C_16
REMARK    7  A    between atoms: C_16  and  C_17
REMARK    8  A    between atoms: C_17  and  C_18
REMARK                            x       y       z     vdW  Elec       q    Type
REMARK                         _______ _______ _______ _____ _____    ______ ____
ROOT
ATOM      1  N   UNL     1      -0.207  -6.335   3.410  0.00  0.00    -0.307 N 
ATOM      2  C   UNL     1      -0.301  -7.212   4.429  0.00  0.00    +0.214 C 
ATOM      3  O   UNL     1      -0.321  -6.812   5.574  0.00  0.00    -0.276 OA
ATOM      4  H   UNL     1      -0.192  -6.655   2.495  0.00  0.00    +0.149 HD
ENDROOT
BRANCH   1   5
ATOM      5  C   UNL     1      -0.129  -4.898   3.686  0.00  0.00    +0.200 C 
BRANCH   5   7
ATOM      6  N   UNL     1       0.052  -2.797   2.393  0.00  0.00    -0.284 N 
ATOM      7  C   UNL     1      -0.031  -4.143   2.385  0.00  0.00    +0.234 C 
ATOM      8  O   UNL     1      -0.028  -4.745   1.333  0.00  0.00    -0.274 OA
ATOM      9  H   UNL     1       0.130  -2.321   3.234  0.00  0.00    +0.155 HD
BRANCH   6  15
ATOM     10  C   UNL     1       1.206   1.236  -0.172  0.00  0.00    +0.044 C 
ATOM     11  C   UNL     1       0.577  -0.131  -0.084  0.00  0.00    -0.046 A 
ATOM     12  C   UNL     1      -0.027  -0.686  -1.198  0.00  0.00    +0.004 A 
ATOM     13  C   UNL     1      -0.605  -1.940  -1.122  0.00  0.00    +0.002 A 
ATOM     14  C   UNL     1      -0.580  -2.642   0.067  0.00  0.00    +0.023 A 
ATOM     15  C   UNL     1       0.026  -2.088   1.187  0.00  0.00    +0.037 A 
ATOM     16  C   UNL     1       0.610  -0.831   1.106  0.00  0.00    -0.026 A 
ATOM     17  C   UNL     1       1.274  -0.228   2.317  0.00  0.00    +0.046 C 
ENDBRANCH   6  15
ENDBRANCH   5   7
ENDBRANCH   1   5
BRANCH   2  18
ATOM     18  C   UNL     1      -0.383  -8.690   4.146  0.00  0.00    +0.103 C 
BRANCH  18  19
ATOM     19  C   UNL     1      -0.481  -9.458   5.466  0.00  0.00    +0.083 C 
BRANCH  19  20
ATOM     20  C   UNL     1      -0.562 -10.936   5.183  0.00  0.00    +0.111 A 
ATOM     21  N   UNL     1      -0.662 -11.808   6.218  0.00  0.00    -0.310 N 
ATOM     22  C   UNL     1      -0.737 -13.136   6.011  0.00  0.00    +0.260 A 
ATOM     23  C   UNL     1      -0.709 -13.629   4.665  0.00  0.00    +0.075 A 
ATOM     24  C   UNL     1      -0.775 -15.015   4.203  0.00  0.00    -0.023 A 
ATOM     25  C   UNL     1      -0.730 -15.219   2.870  0.00  0.00    -0.004 A 
ATOM     26  S   UNL     1      -0.601 -13.600   2.161  0.00  0.00    -0.073 S 
ATOM     27  C   UNL     1      -0.606 -12.652   3.662  0.00  0.00    +0.116 A 
ATOM     28  N   UNL     1      -0.541 -11.354   3.946  0.00  0.00    -0.227 NA
ATOM     29  C   UNL     1      -0.779 -16.532   2.150  0.00  0.00    +0.043 C 
ATOM     30  C   UNL     1      -0.513 -17.652   3.167  0.00  0.00    +0.005 C 
ATOM     31  C   UNL     1      -1.392 -17.414   4.399  0.00  0.00    +0.005 C 
ATOM     32  C   UNL     1      -0.888 -16.192   5.168  0.00  0.00    +0.037 C 
ATOM     33  O   UNL     1      -0.825 -13.907   6.951  0.00  0.00    -0.267 OA
ATOM     34  H   UNL     1      -0.680 -11.468   7.127  0.00  0.00    +0.170 HD
ENDBRANCH  19  20
ENDBRANCH  18  19
ENDBRANCH   2  18
TORSDOF 6
