REMARK  Name = ZINC38827772
REMARK  14 active torsions:
REMARK  status: ('A' for Active; 'I' for Inactive)
REMARK    1  A    between atoms: C_1  and  C_2
REMARK    2  A    between atoms: C_2  and  O_3
REMARK    3  A    between atoms: O_3  and  C_4
REMARK    4  A    between atoms: N_13  and  C_14
REMARK    5  A    between atoms: C_14  and  C_15
REMARK    6  A    between atoms: C_15  and  C_16
REMARK    7  A    between atoms: C_16  and  N_17
REMARK    8  A    between atoms: N_17  and  C_18
REMARK    9  A    between atoms: N_17  and  C_19
REMARK   10  A    between atoms: C_20  and  C_22
REMARK   11  A    between atoms: C_22  and  C_23
REMARK   12  A    between atoms: C_23  and  C_24
REMARK   13  A    between atoms: C_24  and  S_25
REMARK   14  A    between atoms: S_25  and  C_28
REMARK                            x       y       z     vdW  Elec       q    Type
REMARK                         _______ _______ _______ _____ _____    ______ ____
ROOT
ATOM      1  C   UNL     1      -1.498  -1.849   0.006  0.00  0.00    +0.147 A 
ATOM      2  C   UNL     1      -0.392  -2.665  -0.003  0.00  0.00    +0.048 A 
ATOM      3  C   UNL     1      -0.513  -4.047  -0.008  0.00  0.00    +0.005 A 
ATOM      4  C   UNL     1      -1.772  -4.618  -0.005  0.00  0.00    +0.017 A 
ATOM      5  C   UNL     1      -2.884  -3.811   0.005  0.00  0.00    +0.044 A 
ATOM      6  C   UNL     1      -2.804  -2.401   0.016  0.00  0.00    +0.122 A 
ATOM      7  N   UNL     1      -3.987  -1.747   0.030  0.00  0.00    -0.221 NA
ATOM      8  C   UNL     1      -5.139  -2.375   0.038  0.00  0.00    +0.168 A 
ATOM      9  S   UNL     1      -4.639  -4.090   0.012  0.00  0.00    -0.052 S 
ATOM     10  N   UNL     1      -6.419  -1.842   0.053  0.00  0.00    -0.250 N 
ATOM     11  C   UNL     1      -6.593  -0.506   0.061  0.00  0.00    +0.221 C 
ATOM     12  O   UNL     1      -5.629   0.231   0.056  0.00  0.00    -0.275 OA
ENDROOT
BRANCH   1  13
ATOM     13  O   UNL     1      -1.339  -0.499   0.012  0.00  0.00    -0.490 OA
BRANCH  13  15
ATOM     14  C   UNL     1      -0.019   1.526   0.010  0.00  0.00    +0.048 C 
ATOM     15  C   UNL     1       0.002  -0.004   0.002  0.00  0.00    +0.226 C 
ENDBRANCH  13  15
ENDBRANCH   1  13
BRANCH  10  16
ATOM     16  C   UNL     1      -7.582  -2.732   0.059  0.00  0.00    +0.114 C 
BRANCH  16  17
ATOM     17  C   UNL     1      -7.974  -3.049   1.504  0.00  0.00    +0.001 C 
BRANCH  17  18
ATOM     18  C   UNL     1      -9.189  -3.979   1.510  0.00  0.00    -0.078 C 
BRANCH  18  19
ATOM     19  N   UNL     1      -9.565  -4.283   2.898  0.00  0.00    +0.376 N 
ATOM     20  C   UNL     1     -10.013  -3.053   3.565  0.00  0.00    -0.097 C 
ATOM     21  C   UNL     1     -10.655  -5.268   2.905  0.00  0.00    -0.097 C 
ATOM     22  H   UNL     1      -8.768  -4.660   3.387  0.00  0.00    -0.083 HD
ENDBRANCH  18  19
ENDBRANCH  17  18
ENDBRANCH  16  17
ENDBRANCH  10  16
BRANCH  11  23
ATOM     23  C   UNL     1      -7.984   0.073   0.077  0.00  0.00    +0.098 C 
BRANCH  23  24
ATOM     24  C   UNL     1      -7.901   1.601   0.084  0.00  0.00    +0.032 C 
BRANCH  24  25
ATOM     25  C   UNL     1      -9.313   2.189   0.100  0.00  0.00    +0.172 C 
BRANCH  25  26
ATOM     26  S   UNL     1      -9.214   4.000   0.108  0.00  0.00    -0.003 S 
ATOM     27  O   UNL     1      -8.671   4.455   1.340  0.00  0.00    -0.169 OA
ATOM     28  O   UNL     1      -8.695   4.467  -1.129  0.00  0.00    -0.169 OA
BRANCH  26  29
ATOM     29  C   UNL     1     -10.890   4.545   0.127  0.00  0.00    +0.088 A 
ATOM     30  C   UNL     1     -11.560   4.759  -1.064  0.00  0.00    +0.028 A 
ATOM     31  C   UNL     1     -12.874   5.186  -1.050  0.00  0.00    +0.022 A 
ATOM     32  C   UNL     1     -13.519   5.400   0.155  0.00  0.00    +0.041 A 
ATOM     33  C   UNL     1     -12.848   5.185   1.346  0.00  0.00    +0.022 A 
ATOM     34  C   UNL     1     -11.536   4.752   1.331  0.00  0.00    +0.028 A 
ATOM     35 CL   UNL     1     -15.170   5.937   0.174  0.00  0.00    -0.084 Cl
ENDBRANCH  26  29
ENDBRANCH  25  26
ENDBRANCH  24  25
ENDBRANCH  23  24
ENDBRANCH  11  23
TORSDOF 11
