REMARK  Name = ZINC06177917
REMARK  9 active torsions:
REMARK  status: ('A' for Active; 'I' for Inactive)
REMARK    1  A    between atoms: C_1  and  C_2
REMARK    2  A    between atoms: C_4  and  C_39
REMARK    3  A    between atoms: C_9  and  C_14
REMARK    4  A    between atoms: C_14  and  C_16
REMARK    5  A    between atoms: C_14  and  N_73
REMARK    6  A    between atoms: N_20  and  C_21
REMARK    7  A    between atoms: N_28  and  C_31
REMARK    8  A    between atoms: C_36  and  O_37
REMARK    9  A    between atoms: O_37  and  C_38
REMARK                            x       y       z     vdW  Elec       q    Type
REMARK                         _______ _______ _______ _____ _____    ______ ____
ROOT
ATOM      1  C   UNL     1      -1.339   7.448   0.035  0.00  0.00    +0.039 C 
ENDROOT
BRANCH   1  10
ATOM      2  C   UNL     1       2.486   1.048   0.194  0.00  0.00    +0.044 C 
ATOM      3  C   UNL     1       1.180   1.797   0.131  0.00  0.00    -0.050 A 
ATOM      4  C   UNL     1      -0.015   1.093   0.063  0.00  0.00    +0.008 A 
ATOM      5  C   UNL     1      -1.221   1.758  -0.001  0.00  0.00    -0.026 A 
ATOM      6  C   UNL     1      -1.243   3.149   0.014  0.00  0.00    +0.052 A 
ATOM      7  C   UNL     1      -0.030   3.859   0.082  0.00  0.00    -0.001 A 
ATOM      8  C   UNL     1       1.182   3.163   0.141  0.00  0.00    +0.013 A 
ATOM      9  C   UNL     1      -0.064   5.323   0.090  0.00  0.00    +0.017 A 
ATOM     10  C   UNL     1      -1.268   5.943   0.030  0.00  0.00    +0.011 A 
ATOM     11  C   UNL     1      -2.456   5.184  -0.037  0.00  0.00    +0.251 A 
ATOM     12  O   UNL     1      -3.528   5.761  -0.090  0.00  0.00    -0.268 OA
ATOM     13  N   UNL     1      -2.435   3.840  -0.045  0.00  0.00    -0.322 N 
ATOM     14  H   UNL     1      -3.270   3.349  -0.092  0.00  0.00    +0.169 HD
ATOM     15  C   UNL     1      -2.510   0.981  -0.079  0.00  0.00    +0.046 C 
ENDBRANCH   1  10
BRANCH   1  21
ATOM     16  C   UNL     1      -2.478   9.341   1.028  0.00  0.00    -0.058 C 
ATOM     17  C   UNL     1      -3.482   9.750   2.108  0.00  0.00    +0.086 C 
ATOM     18  N   UNL     1      -2.957   9.376   3.428  0.00  0.00    -0.331 N 
ATOM     19  C   UNL     1      -2.720   7.928   3.506  0.00  0.00    +0.086 C 
ATOM     20  C   UNL     1      -1.716   7.518   2.426  0.00  0.00    -0.058 C 
ATOM     21  N   UNL     1      -2.266   7.880   1.103  0.00  0.00    +0.391 N 
ATOM     22  H   UNL     1      -3.167   7.405   0.975  0.00  0.00    -0.080 HD
BRANCH  18  23
ATOM     23  C   UNL     1      -3.816   9.799   4.449  0.00  0.00    +0.072 A 
ATOM     24  C   UNL     1      -5.076  10.291   4.137  0.00  0.00    +0.027 A 
ATOM     25  C   UNL     1      -5.925  10.704   5.147  0.00  0.00    +0.002 A 
ATOM     26  C   UNL     1      -5.518  10.638   6.467  0.00  0.00    +0.004 A 
ATOM     27  C   UNL     1      -4.262  10.154   6.784  0.00  0.00    +0.047 A 
ATOM     28  C   UNL     1      -3.408   9.733   5.779  0.00  0.00    +0.141 A 
BRANCH  28  29
ATOM     29  O   UNL     1      -2.172   9.258   6.089  0.00  0.00    -0.493 OA
ATOM     30  C   UNL     1      -1.820   9.219   7.474  0.00  0.00    +0.277 C 
ENDBRANCH  28  29
ENDBRANCH  18  23
ENDBRANCH   1  21
BRANCH   1  31
ATOM     31  C   UNL     1      -1.860   7.931  -1.294  0.00  0.00    +0.143 A 
ATOM     32  N   UNL     1      -3.101   7.880  -1.714  0.00  0.00    -0.115 NA
ATOM     33  N   UNL     1      -3.142   8.390  -2.896  0.00  0.00    -0.023 NA
ATOM     34  N   UNL     1      -1.961   8.766  -3.241  0.00  0.00    -0.044 NA
ATOM     35  N   UNL     1      -1.143   8.505  -2.278  0.00  0.00    -0.227 N 
BRANCH  35  36
ATOM     36  C   UNL     1       0.296   8.779  -2.260  0.00  0.00    +0.111 C 
ATOM     37  C   UNL     1       0.550  10.285  -2.473  0.00  0.00    +0.027 C 
ATOM     38  C   UNL     1       1.830  10.334  -3.346  0.00  0.00    +0.002 C 
ATOM     39  C   UNL     1       1.636   9.133  -4.305  0.00  0.00    +0.002 C 
ATOM     40  C   UNL     1       0.987   8.046  -3.424  0.00  0.00    +0.027 C 
ENDBRANCH  35  36
ENDBRANCH   1  31
TORSDOF 6
