REMARK  Name = ZINC12710359
REMARK  8 active torsions:
REMARK  status: ('A' for Active; 'I' for Inactive)
REMARK    1  A    between atoms: C_1  and  C_2
REMARK    2  A    between atoms: C_3  and  C_15
REMARK    3  A    between atoms: N_6  and  C_7
REMARK    4  A    between atoms: C_15  and  C_17
REMARK    5  A    between atoms: C_15  and  N_52
REMARK    6  A    between atoms: C_18  and  C_19
REMARK    7  A    between atoms: C_18  and  N_52
REMARK    8  A    between atoms: C_22  and  N_25
REMARK                            x       y       z     vdW  Elec       q    Type
REMARK                         _______ _______ _______ _____ _____    ______ ____
ROOT
ATOM      1  N   UNL     1       0.985  -1.133   3.436  0.00  0.00    +0.386 N 
ATOM      2  H   UNL     1       1.628  -1.554   2.755  0.00  0.00    -0.085 HD
ATOM      3  H   UNL     1       0.316  -1.843   3.759  0.00  0.00    -0.085 HD
ENDROOT
BRANCH   1   4
ATOM      4  C   UNL     1       0.249  -0.028   2.793  0.00  0.00    -0.040 C 
ATOM      5  C   UNL     1      -1.083   0.186   3.514  0.00  0.00    -0.009 C 
BRANCH   4   8
ATOM      6  C   UNL     1      -0.221   2.002   0.460  0.00  0.00    +0.066 C 
ATOM      7  C   UNL     1      -0.213   0.500   0.342  0.00  0.00    +0.044 A 
ATOM      8  C   UNL     1      -0.010  -0.379   1.351  0.00  0.00    -0.021 A 
ATOM      9  C   UNL     1      -0.082  -1.670   0.818  0.00  0.00    +0.137 A 
ATOM     10  N   UNL     1      -0.320  -1.571  -0.465  0.00  0.00    -0.174 NA
ATOM     11  N   UNL     1      -0.412  -0.212  -0.790  0.00  0.00    -0.234 N 
BRANCH  11  12
ATOM     12  C   UNL     1      -0.664   0.317  -2.065  0.00  0.00    +0.101 A 
ATOM     13  C   UNL     1       0.142   1.329  -2.569  0.00  0.00    +0.033 A 
ATOM     14  C   UNL     1      -0.103   1.845  -3.826  0.00  0.00    +0.040 A 
ATOM     15  C   UNL     1      -1.160   1.363  -4.581  0.00  0.00    +0.126 A 
ATOM     16  C   UNL     1      -1.970   0.358  -4.079  0.00  0.00    +0.078 A 
ATOM     17  C   UNL     1      -1.724  -0.166  -2.823  0.00  0.00    +0.151 A 
ATOM     18  F   UNL     1      -2.514  -1.146  -2.333  0.00  0.00    -0.203 F 
ATOM     19  F   UNL     1      -1.401   1.873  -5.808  0.00  0.00    -0.205 F 
ENDBRANCH  11  12
ENDBRANCH   4   8
ENDBRANCH   1   4
BRANCH   1  20
ATOM     20  C   UNL     1       1.757  -0.633   4.589  0.00  0.00    -0.046 C 
BRANCH  20  21
ATOM     21  C   UNL     1       2.496  -1.782   5.224  0.00  0.00    -0.064 A 
ATOM     22  C   UNL     1       1.899  -2.511   6.237  0.00  0.00    +0.003 A 
ATOM     23  C   UNL     1       2.573  -3.568   6.818  0.00  0.00    +0.024 A 
ATOM     24  C   UNL     1       3.854  -3.892   6.391  0.00  0.00    +0.038 A 
ATOM     25  C   UNL     1       4.452  -3.155   5.378  0.00  0.00    +0.024 A 
ATOM     26  C   UNL     1       3.772  -2.102   4.798  0.00  0.00    +0.003 A 
BRANCH  24  27
ATOM     27  N   UNL     1       4.540  -4.959   6.981  0.00  0.00    -0.254 N 
ATOM     28  C   UNL     1       5.938  -5.327   6.710  0.00  0.00    +0.134 C 
ATOM     29  C   UNL     1       6.178  -6.554   7.612  0.00  0.00    +0.125 C 
ATOM     30  N   UNL     1       4.891  -6.747   8.295  0.00  0.00    -0.297 N 
ATOM     31  C   UNL     1       4.030  -5.804   7.886  0.00  0.00    +0.307 C 
ATOM     32  O   UNL     1       2.889  -5.726   8.297  0.00  0.00    -0.252 OA
ATOM     33  H   UNL     1       4.696  -7.443   8.942  0.00  0.00    +0.150 HD
ENDBRANCH  24  27
ENDBRANCH  20  21
ENDBRANCH   1  20
TORSDOF 6
