REMARK  Name = ZINC21883992
REMARK  8 active torsions:
REMARK  status: ('A' for Active; 'I' for Inactive)
REMARK    1  A    between atoms: C_1  and  C_2
REMARK    2  A    between atoms: C_13  and  S_17
REMARK    3  A    between atoms: C_14  and  C_16
REMARK    4  A    between atoms: S_17  and  N_20
REMARK    5  A    between atoms: N_20  and  C_21
REMARK    6  A    between atoms: C_24  and  C_27
REMARK    7  A    between atoms: C_27  and  C_28
REMARK    8  A    between atoms: C_27  and  C_29
REMARK                            x       y       z     vdW  Elec       q    Type
REMARK                         _______ _______ _______ _____ _____    ______ ____
ROOT
ATOM      1  C   UNL     1      -5.183  -0.926   0.907  0.00  0.00    +0.044 C 
ATOM      2  C   UNL     1      -3.944  -0.078   0.774  0.00  0.00    -0.049 A 
ATOM      3  C   UNL     1      -4.042   1.303   0.716  0.00  0.00    +0.005 A 
ATOM      4  C   UNL     1      -2.924   2.092   0.595  0.00  0.00    +0.028 A 
ATOM      5  C   UNL     1      -1.643   1.519   0.525  0.00  0.00    +0.066 A 
ATOM      6  C   UNL     1      -1.577   0.123   0.585  0.00  0.00    +0.040 A 
ATOM      7  C   UNL     1      -2.695  -0.669   0.707  0.00  0.00    +0.020 A 
ATOM      8  S   UNL     1       0.164  -0.209   0.469  0.00  0.00    -0.049 S 
ATOM      9  C   UNL     1       0.722   1.477   0.349  0.00  0.00    +0.181 A 
ATOM     10  N   UNL     1      -0.430   2.207   0.402  0.00  0.00    -0.253 N 
ATOM     11  C   UNL     1      -0.297   3.566   0.328  0.00  0.00    +0.286 A 
ATOM     12  O   UNL     1      -1.286   4.280   0.370  0.00  0.00    -0.265 OA
ATOM     13  C   UNL     1       0.973   4.134   0.206  0.00  0.00    +0.194 A 
ATOM     14  C   UNL     1       2.076   3.328   0.160  0.00  0.00    +0.073 A 
ATOM     15  N   UNL     1       1.915   2.009   0.238  0.00  0.00    -0.226 NA
ATOM     16  C   UNL     1       3.454   3.925   0.028  0.00  0.00    +0.068 C 
ENDROOT
BRANCH  13  17
ATOM     17  S   UNL     1       1.152   5.885   0.111  0.00  0.00    +0.079 S 
ATOM     18  O   UNL     1       2.198   6.136  -0.818  0.00  0.00    -0.150 OA
ATOM     19  O   UNL     1      -0.155   6.419  -0.050  0.00  0.00    -0.150 OA
BRANCH  17  20
ATOM     20  N   UNL     1       1.697   6.402   1.587  0.00  0.00    -0.216 N 
ATOM     21  H   UNL     1       2.689   6.868   1.675  0.00  0.00    +0.174 HD
BRANCH  20  22
ATOM     22  C   UNL     1       0.896   6.245   2.721  0.00  0.00    +0.048 A 
ATOM     23  C   UNL     1      -0.446   6.602   2.680  0.00  0.00    +0.025 A 
ATOM     24  C   UNL     1      -1.236   6.442   3.801  0.00  0.00    +0.006 A 
ATOM     25  C   UNL     1      -0.690   5.936   4.967  0.00  0.00    -0.045 A 
ATOM     26  C   UNL     1       0.647   5.584   5.012  0.00  0.00    +0.006 A 
ATOM     27  C   UNL     1       1.441   5.737   3.893  0.00  0.00    +0.025 A 
BRANCH  25  28
ATOM     28  C   UNL     1      -1.554   5.767   6.190  0.00  0.00    +0.013 C 
ATOM     29  C   UNL     1      -2.120   7.126   6.606  0.00  0.00    +0.012 C 
ATOM     30  C   UNL     1      -2.705   4.810   5.873  0.00  0.00    +0.012 C 
ENDBRANCH  25  28
ENDBRANCH  20  22
ENDBRANCH  17  20
ENDBRANCH  13  17
TORSDOF 4
