REMARK  Name = ZINC11265008
REMARK  7 active torsions:
REMARK  status: ('A' for Active; 'I' for Inactive)
REMARK    1  A    between atoms: C_1  and  C_2
REMARK    2  A    between atoms: N_13  and  C_29
REMARK    3  A    between atoms: C_14  and  S_16
REMARK    4  A    between atoms: S_16  and  C_17
REMARK    5  A    between atoms: C_17  and  C_19
REMARK    6  A    between atoms: C_17  and  C_20
REMARK    7  A    between atoms: N_25  and  C_26
REMARK                            x       y       z     vdW  Elec       q    Type
REMARK                         _______ _______ _______ _____ _____    ______ ____
ROOT
ATOM      1  C   UNL     1     -13.265  -4.887   1.821  0.00  0.00    +0.008 C 
ATOM      2  C   UNL     1     -12.397  -3.941   0.989  0.00  0.00    -0.009 C 
ATOM      3  C   UNL     1     -12.687  -2.492   1.390  0.00  0.00    +0.008 C 
ATOM      4  C   UNL     1     -12.015  -1.536   0.404  0.00  0.00    +0.037 C 
ATOM      5  C   UNL     1     -10.539  -1.905   0.289  0.00  0.00    -0.023 A 
ATOM      6  C   UNL     1     -10.099  -3.118   0.679  0.00  0.00    -0.004 A 
ATOM      7  S   UNL     1      -8.354  -3.098   0.367  0.00  0.00    -0.073 S 
ATOM      8  C   UNL     1      -8.220  -1.454  -0.288  0.00  0.00    +0.117 A 
ATOM      9  C   UNL     1      -9.540  -0.975  -0.243  0.00  0.00    +0.076 A 
ATOM     10  C   UNL     1      -9.737   0.358  -0.721  0.00  0.00    +0.268 A 
ATOM     11  O   UNL     1     -10.850   0.857  -0.720  0.00  0.00    -0.267 OA
ATOM     12  N   UNL     1      -8.677   1.057  -1.168  0.00  0.00    -0.255 N 
ATOM     13  C   UNL     1      -7.424   0.511  -1.181  0.00  0.00    +0.178 A 
ATOM     14  N   UNL     1      -7.216  -0.715  -0.747  0.00  0.00    -0.215 NA
ATOM     15  C   UNL     1     -10.914  -4.238   1.251  0.00  0.00    +0.046 C 
ENDROOT
BRANCH  12  16
ATOM     16  C   UNL     1      -8.862   2.366  -1.632  0.00  0.00    +0.052 A 
ATOM     17  C   UNL     1      -9.145   2.595  -2.972  0.00  0.00    +0.026 A 
ATOM     18  C   UNL     1      -9.332   3.886  -3.425  0.00  0.00    +0.002 A 
ATOM     19  C   UNL     1      -9.228   4.951  -2.549  0.00  0.00    +0.000 A 
ATOM     20  C   UNL     1      -8.941   4.726  -1.215  0.00  0.00    +0.002 A 
ATOM     21  C   UNL     1      -8.758   3.437  -0.754  0.00  0.00    +0.026 A 
ENDBRANCH  12  16
BRANCH  13  22
ATOM     22  S   UNL     1      -6.068   1.463  -1.782  0.00  0.00    -0.075 S 
BRANCH  22  23
ATOM     23  C   UNL     1      -4.724   0.271  -1.557  0.00  0.00    +0.137 C 
ATOM     24  C   UNL     1      -4.533  -0.007  -0.064  0.00  0.00    +0.029 C 
BRANCH  23  25
ATOM     25  C   UNL     1      -3.450   0.837  -2.129  0.00  0.00    +0.233 C 
ATOM     26  O   UNL     1      -3.307   2.038  -2.219  0.00  0.00    -0.274 OA
ATOM     27  N   UNL     1      -2.470   0.009  -2.541  0.00  0.00    -0.239 N 
ATOM     28  C   UNL     1      -1.330   0.515  -3.053  0.00  0.00    +0.306 C 
ATOM     29  O   UNL     1      -1.187   1.718  -3.143  0.00  0.00    -0.252 OA
ATOM     30  N   UNL     1      -0.350  -0.314  -3.464  0.00  0.00    -0.296 N 
ATOM     31  H   UNL     1      -2.584  -0.952  -2.469  0.00  0.00    +0.159 HD
ATOM     32  H   UNL     1      -0.465  -1.274  -3.392  0.00  0.00    +0.151 HD
BRANCH  30  33
ATOM     33  C   UNL     1       0.886   0.236  -4.026  0.00  0.00    +0.075 C 
ATOM     34  C   UNL     1       1.444  -0.426  -5.287  0.00  0.00    +0.024 C 
ATOM     35  C   UNL     1       2.146  -0.627  -3.942  0.00  0.00    +0.024 C 
ENDBRANCH  30  33
ENDBRANCH  23  25
ENDBRANCH  22  23
ENDBRANCH  13  22
TORSDOF 5
