REMARK  Name = ZINC08789882
REMARK  5 active torsions:
REMARK  status: ('A' for Active; 'I' for Inactive)
REMARK    1  A    between atoms: C_1  and  C_2
REMARK    2  A    between atoms: C_16  and  C_18
REMARK    3  A    between atoms: C_18  and  C_19
REMARK    4  A    between atoms: N_27  and  C_30
REMARK    5  A    between atoms: C_33  and  C_36
REMARK                            x       y       z     vdW  Elec       q    Type
REMARK                         _______ _______ _______ _____ _____    ______ ____
ROOT
ATOM      1  C   UNL     1       9.944   2.556   1.666  0.00  0.00    +0.047 C 
ATOM      2  C   UNL     1       9.078   1.377   1.302  0.00  0.00    -0.011 A 
ATOM      3  C   UNL     1       9.663   0.192   0.901  0.00  0.00    +0.046 A 
ATOM      4  C   UNL     1       8.876  -0.896   0.565  0.00  0.00    +0.020 A 
ATOM      5  C   UNL     1       7.498  -0.795   0.631  0.00  0.00    +0.006 A 
ATOM      6  C   UNL     1       6.911   0.385   1.029  0.00  0.00    -0.027 A 
ATOM      7  C   UNL     1       7.692   1.486   1.370  0.00  0.00    +0.040 A 
ATOM      8  N   UNL     1       6.878   2.559   1.739  0.00  0.00    -0.286 N 
ATOM      9  C   UNL     1       5.569   2.252   1.669  0.00  0.00    +0.211 C 
ATOM     10  O   UNL     1       4.637   2.984   1.929  0.00  0.00    -0.277 OA
ATOM     11  C   UNL     1       5.485   0.823   1.206  0.00  0.00    +0.050 C 
ATOM     12  C   UNL     1       4.694   0.702  -0.103  0.00  0.00    +0.088 C 
ATOM     13  C   UNL     1       3.935  -0.649   0.024  0.00  0.00    +0.074 C 
ATOM     14  C   UNL     1       4.353  -1.211   1.399  0.00  0.00    -0.053 C 
ATOM     15  C   UNL     1       2.483  -0.231   0.076  0.00  0.00    +0.228 C 
ATOM     16  O   UNL     1       1.540  -0.985   0.181  0.00  0.00    -0.275 OA
ATOM     17  N   UNL     1       2.401   1.102  -0.015  0.00  0.00    -0.210 N 
ATOM     18  C   UNL     1       3.580   1.725  -0.126  0.00  0.00    +0.229 C 
ATOM     19  O   UNL     1       3.732   2.923  -0.226  0.00  0.00    -0.275 OA
ATOM     20 CL   UNL     1      11.392   0.065   0.820  0.00  0.00    -0.083 Cl
ATOM     21  H   UNL     1       7.216   3.426   2.014  0.00  0.00    +0.155 HD
ATOM     22  N   UNL     1       4.784  -0.029   2.149  0.00  0.00    +0.394 N 
ATOM     23  H   UNL     1       3.969   0.463   2.535  0.00  0.00    -0.083 HD
ATOM     24  H   UNL     1       5.411  -0.303   2.915  0.00  0.00    -0.083 HD
ENDROOT
BRANCH  17  25
ATOM     25  C   UNL     1       1.183   1.787   0.000  0.00  0.00    +0.044 A 
ATOM     26  C   UNL     1       0.412   1.806   1.157  0.00  0.00    +0.025 A 
ATOM     27  C   UNL     1      -0.792   2.475   1.174  0.00  0.00    +0.015 A 
ATOM     28  C   UNL     1      -1.233   3.144   0.030  0.00  0.00    +0.037 A 
ATOM     29  C   UNL     1      -0.456   3.122  -1.131  0.00  0.00    +0.015 A 
ATOM     30  C   UNL     1       0.744   2.447  -1.142  0.00  0.00    +0.025 A 
BRANCH  28  31
ATOM     31  C   UNL     1      -2.520   3.867   0.045  0.00  0.00    +0.242 C 
ATOM     32  O   UNL     1      -2.905   4.445  -0.953  0.00  0.00    -0.270 OA
ATOM     33  N   UNL     1      -3.268   3.887   1.166  0.00  0.00    -0.325 N 
ATOM     34  H   UNL     1      -2.961   3.426   1.962  0.00  0.00    +0.145 HD
ATOM     35  H   UNL     1      -4.114   4.362   1.176  0.00  0.00    +0.145 HD
ENDBRANCH  28  31
ENDBRANCH  17  25
BRANCH  14  36
ATOM     36  C   UNL     1       3.166  -1.900   2.076  0.00  0.00    +0.020 C 
BRANCH  36  37
ATOM     37  C   UNL     1       3.625  -2.547   3.357  0.00  0.00    -0.049 A 
ATOM     38  C   UNL     1       4.075  -3.854   3.350  0.00  0.00    +0.003 A 
ATOM     39  C   UNL     1       4.500  -4.446   4.524  0.00  0.00    +0.000 A 
ATOM     40  C   UNL     1       4.466  -3.734   5.709  0.00  0.00    +0.000 A 
ATOM     41  C   UNL     1       4.010  -2.429   5.718  0.00  0.00    +0.000 A 
ATOM     42  C   UNL     1       3.590  -1.835   4.542  0.00  0.00    +0.003 A 
ENDBRANCH  36  37
ENDBRANCH  14  36
TORSDOF 4
