REMARK  Name = ZINC41585851
REMARK  7 active torsions:
REMARK  status: ('A' for Active; 'I' for Inactive)
REMARK    1  A    between atoms: C_1  and  C_2
REMARK    2  A    between atoms: C_2  and  C_3
REMARK    3  A    between atoms: C_6  and  C_9
REMARK    4  A    between atoms: C_14  and  C_34
REMARK    5  A    between atoms: C_16  and  O_33
REMARK    6  A    between atoms: C_17  and  C_20
REMARK    7  A    between atoms: C_20  and  N_21
REMARK                            x       y       z     vdW  Elec       q    Type
REMARK                         _______ _______ _______ _____ _____    ______ ____
ROOT
ATOM      1  C   UNL     1       2.712  -1.783  -4.831  0.00  0.00    +0.058 C 
ATOM      2  C   UNL     1       4.062  -1.911  -4.822  0.00  0.00    +0.176 C 
ATOM      3  C   UNL     1       4.911  -2.261  -5.973  0.00  0.00    +0.232 C 
ATOM      4  O   UNL     1       4.559  -2.493  -7.116  0.00  0.00    -0.283 OA
ATOM      5  C   UNL     1       6.282  -2.267  -5.432  0.00  0.00    +0.071 A 
ATOM      6  C   UNL     1       7.531  -2.520  -6.000  0.00  0.00    -0.033 A 
ATOM      7  C   UNL     1       8.657  -2.449  -5.230  0.00  0.00    +0.050 A 
ATOM      8  C   UNL     1       8.561  -2.126  -3.879  0.00  0.00    +0.125 A 
ATOM      9  C   UNL     1       7.328  -1.872  -3.301  0.00  0.00    +0.051 A 
ATOM     10  C   UNL     1       6.173  -1.940  -4.071  0.00  0.00    +0.148 A 
ATOM     11  O   UNL     1       4.875  -1.736  -3.754  0.00  0.00    -0.451 OA
ATOM     12  C   UNL     1       7.638  -2.871  -7.462  0.00  0.00    +0.045 C 
ENDROOT
BRANCH   1  16
ATOM     13  C   UNL     1       0.688  -0.427  -1.361  0.00  0.00    -0.048 A 
ATOM     14  C   UNL     1       2.048  -0.679  -1.310  0.00  0.00    +0.004 A 
ATOM     15  C   UNL     1       2.714  -1.120  -2.433  0.00  0.00    +0.008 A 
ATOM     16  C   UNL     1       2.011  -1.313  -3.628  0.00  0.00    -0.021 A 
ATOM     17  C   UNL     1       0.636  -1.056  -3.671  0.00  0.00    +0.008 A 
ATOM     18  C   UNL     1      -0.016  -0.620  -2.537  0.00  0.00    +0.004 A 
BRANCH  13  20
ATOM     19  C   UNL     1      -0.536  -1.148   0.672  0.00  0.00    +0.009 C 
ATOM     20  C   UNL     1      -0.031   0.056  -0.127  0.00  0.00    +0.032 C 
ENDBRANCH  13  20
ENDBRANCH   1  16
BRANCH   8  21
ATOM     21  O   UNL     1       9.685  -2.058  -3.122  0.00  0.00    -0.506 OA
ATOM     22  H   UNL     1      10.094  -1.182  -3.102  0.00  0.00    +0.292 HD
ENDBRANCH   8  21
BRANCH   9  23
ATOM     23  C   UNL     1       7.239  -1.523  -1.838  0.00  0.00    +0.127 C 
BRANCH  23  24
ATOM     24  N   UNL     1       7.340  -0.067  -1.675  0.00  0.00    -0.295 NA
ATOM     25  C   UNL     1       6.183   0.612  -2.274  0.00  0.00    +0.103 C 
ATOM     26  C   UNL     1       6.411   2.127  -2.244  0.00  0.00    +0.122 C 
ATOM     27  N   UNL     1       6.719   2.526  -0.863  0.00  0.00    -0.314 N 
ATOM     28  C   UNL     1       7.777   1.797  -0.147  0.00  0.00    +0.122 C 
ATOM     29  C   UNL     1       7.495   0.295  -0.259  0.00  0.00    +0.103 C 
ATOM     30  C   UNL     1       6.028   3.564  -0.249  0.00  0.00    +0.099 A 
ATOM     31  C   UNL     1       6.428   4.011   1.007  0.00  0.00    +0.042 A 
ATOM     32  C   UNL     1       5.731   5.045   1.605  0.00  0.00    +0.005 A 
ATOM     33  C   UNL     1       4.655   5.600   0.926  0.00  0.00    +0.018 A 
ATOM     34  C   UNL     1       4.314   5.108  -0.318  0.00  0.00    +0.084 A 
ATOM     35  N   UNL     1       5.000   4.123  -0.867  0.00  0.00    -0.350 N 
ATOM     36  H   UNL     1       4.741   3.799  -1.744  0.00  0.00    +0.166 HD
ENDBRANCH  23  24
ENDBRANCH   9  23
TORSDOF 5
