REMARK  Name = ZINC08834653
REMARK  12 active torsions:
REMARK  status: ('A' for Active; 'I' for Inactive)
REMARK    1  A    between atoms: C_1  and  C_2
REMARK    2  A    between atoms: C_4  and  C_31
REMARK    3  A    between atoms: C_6  and  S_9
REMARK    4  A    between atoms: C_7  and  C_8
REMARK    5  A    between atoms: S_9  and  N_12
REMARK    6  A    between atoms: C_16  and  O_30
REMARK    7  A    between atoms: N_26  and  C_27
REMARK    8  A    between atoms: C_27  and  C_28
REMARK    9  A    between atoms: C_28  and  O_29
REMARK   10  A    between atoms: C_31  and  C_32
REMARK   11  A    between atoms: C_31  and  C_33
REMARK   12  A    between atoms: C_31  and  C_34
REMARK                            x       y       z     vdW  Elec       q    Type
REMARK                         _______ _______ _______ _____ _____    ______ ____
ROOT
ATOM      1  N   UNL     1       1.490  -2.625   3.461  0.00  0.00    -0.128 NA
ATOM      2  C   UNL     1       1.724  -3.080   4.666  0.00  0.00    +0.095 C 
ATOM      3  C   UNL     1       2.935  -2.713   5.443  0.00  0.00    +0.054 C 
ATOM      4  C   UNL     1       3.489  -3.700   6.194  0.00  0.00    +0.073 C 
ATOM      5  C   UNL     1       2.896  -5.075   6.161  0.00  0.00    +0.235 C 
ATOM      6  C   UNL     1       1.398  -5.018   6.146  0.00  0.00    +0.026 A 
ATOM      7  C   UNL     1       0.794  -4.007   5.375  0.00  0.00    +0.011 A 
ATOM      8  C   UNL     1      -0.582  -3.901   5.298  0.00  0.00    +0.010 A 
ATOM      9  C   UNL     1      -1.369  -4.795   6.003  0.00  0.00    +0.001 A 
ATOM     10  C   UNL     1      -0.780  -5.780   6.775  0.00  0.00    +0.000 A 
ATOM     11  C   UNL     1       0.608  -5.898   6.845  0.00  0.00    +0.010 A 
ATOM     12  O   UNL     1       3.418  -5.971   7.100  0.00  0.00    -0.339 OA
ATOM     13  C   UNL     1       4.174  -5.489   8.192  0.00  0.00    +0.183 C 
ATOM     14  C   UNL     1       5.218  -4.469   7.753  0.00  0.00    +0.133 C 
ATOM     15  N   UNL     1       4.577  -3.411   6.974  0.00  0.00    -0.324 N 
ENDROOT
BRANCH   1  16
ATOM     16  S   UNL     1       0.205  -3.205   2.592  0.00  0.00    +0.100 S 
ATOM     17  O   UNL     1      -0.892  -2.344   2.865  0.00  0.00    -0.146 OA
ATOM     18  O   UNL     1       0.153  -4.605   2.830  0.00  0.00    -0.146 OA
BRANCH  16  24
ATOM     19  C   UNL     1       1.196  -0.182  -1.555  0.00  0.00    +0.044 C 
ATOM     20  C   UNL     1       1.042  -1.566  -0.980  0.00  0.00    -0.045 A 
ATOM     21  C   UNL     1       1.205  -2.674  -1.791  0.00  0.00    +0.008 A 
ATOM     22  C   UNL     1       1.063  -3.943  -1.263  0.00  0.00    -0.040 A 
ATOM     23  C   UNL     1       0.758  -4.106   0.075  0.00  0.00    +0.033 A 
ATOM     24  C   UNL     1       0.595  -2.998   0.886  0.00  0.00    +0.116 A 
ATOM     25  C   UNL     1       0.741  -1.728   0.359  0.00  0.00    -0.021 A 
ATOM     26  C   UNL     1       0.569  -0.521   1.244  0.00  0.00    +0.046 C 
BRANCH  22  27
ATOM     27  C   UNL     1       1.240  -5.151  -2.147  0.00  0.00    -0.013 C 
ATOM     28  C   UNL     1       1.570  -4.697  -3.571  0.00  0.00    +0.015 C 
ATOM     29  C   UNL     1       2.384  -6.013  -1.610  0.00  0.00    +0.015 C 
ATOM     30  C   UNL     1      -0.052  -5.969  -2.159  0.00  0.00    +0.015 C 
ENDBRANCH  22  27
ENDBRANCH  16  24
ENDBRANCH   1  16
BRANCH   5  31
ATOM     31  O   UNL     1       3.266  -5.618   4.893  0.00  0.00    -0.356 OA
ATOM     32  H   UNL     1       2.942  -6.516   4.740  0.00  0.00    +0.213 HD
ENDBRANCH   5  31
BRANCH  15  33
ATOM     33  C   UNL     1       5.098  -2.042   7.029  0.00  0.00    +0.133 C 
BRANCH  33  34
ATOM     34  C   UNL     1       4.405  -1.278   8.159  0.00  0.00    +0.174 C 
BRANCH  34  35
ATOM     35  O   UNL     1       4.753  -1.865   9.414  0.00  0.00    -0.393 OA
ATOM     36  H   UNL     1       4.348  -1.430  10.177  0.00  0.00    +0.209 HD
ENDBRANCH  34  35
ENDBRANCH  33  34
ENDBRANCH  15  33
TORSDOF 7
