REMARK  Name = ZINC39685734
REMARK  11 active torsions:
REMARK  status: ('A' for Active; 'I' for Inactive)
REMARK    1  A    between atoms: C_1  and  C_2
REMARK    2  A    between atoms: C_2  and  C_3
REMARK    3  A    between atoms: C_2  and  C_4
REMARK    4  A    between atoms: C_4  and  C_6
REMARK    5  A    between atoms: C_4  and  N_13
REMARK    6  A    between atoms: N_8  and  C_9
REMARK    7  A    between atoms: C_9  and  C_10
REMARK    8  A    between atoms: C_9  and  C_11
REMARK    9  A    between atoms: C_9  and  C_12
REMARK   10  A    between atoms: C_14  and  C_16
REMARK   11  A    between atoms: C_27  and  C_29
REMARK                            x       y       z     vdW  Elec       q    Type
REMARK                         _______ _______ _______ _____ _____    ______ ____
ROOT
ATOM      1  C   UNL     1      -2.893  -1.575  -2.680  0.00  0.00    +0.100 C 
ATOM      2  C   UNL     1      -4.322  -1.001  -2.554  0.00  0.00    +0.121 C 
ATOM      3  N   UNL     1      -5.094  -1.682  -3.619  0.00  0.00    -0.296 N 
ATOM      4  C   UNL     1      -4.591  -3.077  -3.605  0.00  0.00    +0.115 C 
ATOM      5  C   UNL     1      -3.074  -2.937  -3.370  0.00  0.00    -0.004 C 
ATOM      6  C   UNL     1      -2.329  -2.958  -4.701  0.00  0.00    -0.010 C 
ATOM      7  C   UNL     1      -2.477  -4.342  -5.341  0.00  0.00    -0.082 C 
ATOM      8  N   UNL     1      -1.933  -5.362  -4.437  0.00  0.00    +0.379 N 
ATOM      9  C   UNL     1      -2.714  -5.398  -3.194  0.00  0.00    -0.082 C 
ATOM     10  C   UNL     1      -2.576  -4.059  -2.464  0.00  0.00    -0.010 C 
ATOM     11  C   UNL     1      -6.041  -1.154  -4.420  0.00  0.00    +0.247 C 
ATOM     12  O   UNL     1      -6.270   0.040  -4.384  0.00  0.00    -0.270 OA
ATOM     13  H   UNL     1      -1.976  -6.265  -4.886  0.00  0.00    -0.086 HD
ATOM     14  H   UNL     1      -0.972  -5.141  -4.222  0.00  0.00    -0.086 HD
ENDROOT
BRANCH  11  15
ATOM     15  C   UNL     1      -6.800  -2.025  -5.342  0.00  0.00    +0.038 A 
ATOM     16  C   UNL     1      -6.870  -3.400  -5.109  0.00  0.00    +0.013 A 
ATOM     17  C   UNL     1      -7.580  -4.207  -5.973  0.00  0.00    +0.002 A 
ATOM     18  C   UNL     1      -8.222  -3.659  -7.069  0.00  0.00    +0.015 A 
ATOM     19  C   UNL     1      -8.155  -2.296  -7.307  0.00  0.00    +0.019 A 
ATOM     20  C   UNL     1      -7.454  -1.476  -6.446  0.00  0.00    +0.028 A 
ATOM     21 BR   UNL     1      -9.035  -1.557  -8.809  0.00  0.00    -0.050 Br
ENDBRANCH  11  15
BRANCH   1  23
ATOM     22  N   UNL     1      -0.943  -1.652  -1.159  0.00  0.00    -0.303 N 
ATOM     23  C   UNL     1      -2.278  -1.755  -1.316  0.00  0.00    +0.219 C 
ATOM     24  O   UNL     1      -2.984  -1.993  -0.359  0.00  0.00    -0.275 OA
ATOM     25  H   UNL     1      -0.382  -1.426  -1.918  0.00  0.00    +0.149 HD
BRANCH  22  26
ATOM     26  C   UNL     1      -0.340  -1.882   0.155  0.00  0.00    +0.161 C 
BRANCH  26  27
ATOM     27  C   UNL     1       0.865  -0.991   0.318  0.00  0.00    +0.234 C 
ATOM     28  O   UNL     1       1.304  -0.385  -0.637  0.00  0.00    -0.274 OA
ATOM     29  N   UNL     1       1.455  -0.868   1.523  0.00  0.00    -0.309 N 
ATOM     30  H   UNL     1       1.148  -1.405   2.270  0.00  0.00    +0.149 HD
BRANCH  29  31
ATOM     31  C   UNL     1       2.559   0.078   1.706  0.00  0.00    +0.026 C 
ATOM     32  C   UNL     1       2.076   1.494   1.384  0.00  0.00    +0.031 C 
ATOM     33  C   UNL     1       3.044   0.022   3.156  0.00  0.00    +0.031 C 
ATOM     34  C   UNL     1       3.709  -0.294   0.768  0.00  0.00    +0.031 C 
ENDBRANCH  29  31
ENDBRANCH  26  27
BRANCH  26  36
ATOM     35  C   UNL     1      -1.152  -4.238   0.321  0.00  0.00    +0.009 C 
ATOM     36  C   UNL     1       0.089  -3.346   0.271  0.00  0.00    +0.012 C 
ATOM     37  C   UNL     1       0.941  -3.725  -0.942  0.00  0.00    +0.009 C 
ENDBRANCH  26  36
ENDBRANCH  22  26
ENDBRANCH   1  23
TORSDOF 6
