REMARK  Name = ZINC39404931
REMARK  8 active torsions:
REMARK  status: ('A' for Active; 'I' for Inactive)
REMARK    1  A    between atoms: C_1  and  C_2
REMARK    2  A    between atoms: C_5  and  C_9
REMARK    3  A    between atoms: C_7  and  C_8
REMARK    4  A    between atoms: C_11  and  C_15
REMARK    5  A    between atoms: C_15  and  N_16
REMARK    6  A    between atoms: N_16  and  C_17
REMARK    7  A    between atoms: C_17  and  C_18
REMARK    8  A    between atoms: C_23  and  N_24
REMARK                            x       y       z     vdW  Elec       q    Type
REMARK                         _______ _______ _______ _____ _____    ______ ____
ROOT
ATOM      1  C   UNL     1      -2.588  -4.650   0.476  0.00  0.00    -0.047 C 
ENDROOT
BRANCH   1   3
ATOM      2  C   UNL     1       0.059  -4.275  -0.021  0.00  0.00    +0.154 C 
ATOM      3  C   UNL     1      -1.322  -4.829  -0.322  0.00  0.00    -0.039 C 
ATOM      4  C   UNL     1      -1.155  -5.510  -1.458  0.00  0.00    +0.132 C 
ATOM      5  N   UNL     1       0.128  -5.440  -1.875  0.00  0.00    -0.186 NA
ATOM      6  N   UNL     1       0.873  -4.780  -1.141  0.00  0.00    -0.298 N 
ATOM      7  H   UNL     1       1.820  -4.620  -1.276  0.00  0.00    +0.183 HD
BRANCH   2  12
ATOM      8  C   UNL     1      -0.018   1.503   0.010  0.00  0.00    +0.044 C 
ATOM      9  C   UNL     1       0.002  -0.004   0.002  0.00  0.00    -0.048 A 
ATOM     10  C   UNL     1       0.006  -0.689  -1.199  0.00  0.00    +0.004 A 
ATOM     11  C   UNL     1       0.025  -2.071  -1.207  0.00  0.00    +0.006 A 
ATOM     12  C   UNL     1       0.040  -2.768  -0.013  0.00  0.00    -0.019 A 
ATOM     13  C   UNL     1       0.037  -2.084   1.188  0.00  0.00    +0.009 A 
ATOM     14  C   UNL     1       0.023  -0.702   1.195  0.00  0.00    -0.047 A 
ATOM     15  C   UNL     1       0.025   0.045   2.504  0.00  0.00    +0.044 C 
ENDBRANCH   2  12
ENDBRANCH   1   3
BRANCH   1  16
ATOM     16  N   UNL     1      -2.642  -5.662   1.540  0.00  0.00    +0.384 N 
ATOM     17  H   UNL     1      -2.630  -6.583   1.130  0.00  0.00    -0.085 HD
ATOM     18  H   UNL     1      -1.843  -5.554   2.148  0.00  0.00    -0.085 HD
BRANCH  16  19
ATOM     19  C   UNL     1      -3.876  -5.488   2.319  0.00  0.00    -0.044 C 
BRANCH  19  20
ATOM     20  C   UNL     1      -3.931  -6.525   3.411  0.00  0.00    -0.039 A 
ATOM     21  C   UNL     1      -4.697  -7.663   3.245  0.00  0.00    +0.004 A 
ATOM     22  C   UNL     1      -4.748  -8.615   4.246  0.00  0.00    +0.000 A 
ATOM     23  C   UNL     1      -4.033  -8.432   5.416  0.00  0.00    +0.002 A 
ATOM     24  C   UNL     1      -3.265  -7.296   5.587  0.00  0.00    +0.028 A 
ATOM     25  C   UNL     1      -3.208  -6.341   4.581  0.00  0.00    +0.068 A 
BRANCH  25  26
ATOM     26  N   UNL     1      -2.425  -5.190   4.750  0.00  0.00    -0.220 N 
ATOM     27  C   UNL     1      -1.670  -4.876   5.820  0.00  0.00    +0.225 A 
ATOM     28  N   UNL     1      -1.098  -3.723   5.588  0.00  0.00    -0.222 NA
ATOM     29  C   UNL     1      -1.461  -3.271   4.388  0.00  0.00    +0.245 A 
ATOM     30  N   UNL     1      -2.268  -4.137   3.834  0.00  0.00    -0.154 NA
ENDBRANCH  25  26
ENDBRANCH  19  20
ENDBRANCH  16  19
ENDBRANCH   1  16
TORSDOF 6
