REMARK  Name = ZINC12974982
REMARK  4 active torsions:
REMARK  status: ('A' for Active; 'I' for Inactive)
REMARK    1  A    between atoms: C_5  and  C_7
REMARK    2  A    between atoms: C_9  and  C_12
REMARK    3  A    between atoms: C_12  and  C_13
REMARK    4  A    between atoms: N_15  and  N_16
REMARK                            x       y       z     vdW  Elec       q    Type
REMARK                         _______ _______ _______ _____ _____    ______ ____
ROOT
ATOM      1  C   UNL     1       3.994  -0.474   1.125  0.00  0.00    +0.235 C 
ATOM      2  O   UNL     1       3.123  -0.837   1.887  0.00  0.00    -0.274 OA
ATOM      3  N   UNL     1       5.265  -0.881   1.312  0.00  0.00    -0.223 N 
ATOM      4  H   UNL     1       5.962  -0.591   0.703  0.00  0.00    +0.174 HD
ENDROOT
BRANCH   3   5
ATOM      5  N   UNL     1       5.580  -1.723   2.386  0.00  0.00    -0.137 N 
ATOM      6  C   UNL     1       5.843  -3.041   2.265  0.00  0.00    +0.263 C 
ATOM      7  O   UNL     1       5.852  -3.697   1.246  0.00  0.00    -0.271 OA
ATOM      8  C   UNL     1       6.125  -3.527   3.669  0.00  0.00    +0.114 C 
ATOM      9  C   UNL     1       7.545  -4.073   3.767  0.00  0.00    +0.035 C 
ATOM     10  C   UNL     1       7.820  -4.533   5.200  0.00  0.00    +0.003 C 
ATOM     11  C   UNL     1       6.812  -5.616   5.589  0.00  0.00    +0.000 C 
ATOM     12  C   UNL     1       5.394  -5.046   5.510  0.00  0.00    +0.003 C 
ATOM     13  C   UNL     1       5.109  -4.588   4.077  0.00  0.00    +0.035 C 
ATOM     14  N   UNL     1       5.977  -2.325   4.499  0.00  0.00    -0.284 N 
ATOM     15  C   UNL     1       5.663  -1.319   3.660  0.00  0.00    +0.326 C 
ATOM     16  O   UNL     1       5.473  -0.173   4.019  0.00  0.00    -0.251 OA
ATOM     17  H   UNL     1       6.087  -2.266   5.461  0.00  0.00    +0.151 HD
ENDBRANCH   3   5
BRANCH   1  18
ATOM     18  C   UNL     1       3.655   0.431  -0.031  0.00  0.00    +0.153 C 
BRANCH  18  21
ATOM     19  C   UNL     1       0.002  -0.004   0.002  0.00  0.00    +0.110 A 
ATOM     20  N   UNL     1       1.306  -0.244  -0.012  0.00  0.00    -0.243 NA
ATOM     21  C   UNL     1       2.179   0.736  -0.015  0.00  0.00    +0.058 A 
ATOM     22  C   UNL     1       1.750   2.026  -0.004  0.00  0.00    +0.071 A 
ATOM     23  S   UNL     1      -0.022   1.784   0.012  0.00  0.00    -0.075 S 
BRANCH  19  28
ATOM     24  C   UNL     1      -3.491  -1.383   0.030  0.00  0.00    +0.001 A 
ATOM     25  C   UNL     1      -3.244  -2.745   0.020  0.00  0.00    +0.001 A 
ATOM     26  C   UNL     1      -1.945  -3.218   0.006  0.00  0.00    +0.020 A 
ATOM     27  C   UNL     1      -0.885  -2.333  -0.007  0.00  0.00    +0.051 A 
ATOM     28  C   UNL     1      -1.128  -0.958   0.008  0.00  0.00    +0.025 A 
ATOM     29  C   UNL     1      -2.442  -0.488   0.024  0.00  0.00    +0.012 A 
ATOM     30 CL   UNL     1       0.746  -2.928  -0.033  0.00  0.00    -0.083 Cl
ENDBRANCH  19  28
ENDBRANCH  18  21
ENDBRANCH   1  18
TORSDOF 4
