REMARK  Name = ZINC12895170
REMARK  5 active torsions:
REMARK  status: ('A' for Active; 'I' for Inactive)
REMARK    1  A    between atoms: C_5  and  N_7
REMARK    2  A    between atoms: C_11  and  C_12
REMARK    3  A    between atoms: C_21  and  S_22
REMARK    4  A    between atoms: S_22  and  C_23
REMARK    5  A    between atoms: C_23  and  C_24
REMARK                            x       y       z     vdW  Elec       q    Type
REMARK                         _______ _______ _______ _____ _____    ______ ____
ROOT
ATOM      1  N   UNL     1      -2.381   8.411   2.465  0.00  0.00    -0.211 N 
ATOM      2  C   UNL     1      -2.419   9.631   1.886  0.00  0.00    +0.275 C 
ATOM      3  O   UNL     1      -2.440  10.712   2.446  0.00  0.00    -0.268 OA
ATOM      4  C   UNL     1      -2.430   9.376   0.433  0.00  0.00    +0.129 C 
ATOM      5  C   UNL     1      -2.466  10.307  -0.565  0.00  0.00    +0.041 C 
ATOM      6  N   UNL     1      -2.391   8.018   0.290  0.00  0.00    -0.220 NA
ATOM      7  C   UNL     1      -2.369   7.461   1.472  0.00  0.00    +0.169 C 
ENDROOT
BRANCH   5   8
ATOM      8  C   UNL     1      -2.357   9.886  -1.966  0.00  0.00    -0.021 A 
ATOM      9  C   UNL     1      -2.336   8.524  -2.292  0.00  0.00    +0.009 A 
ATOM     10  C   UNL     1      -2.238   8.136  -3.611  0.00  0.00    +0.022 A 
ATOM     11  C   UNL     1      -2.150   9.088  -4.613  0.00  0.00    +0.059 A 
ATOM     12  C   UNL     1      -2.164  10.439  -4.299  0.00  0.00    +0.060 A 
ATOM     13  C   UNL     1      -2.267  10.844  -2.984  0.00  0.00    +0.029 A 
ATOM     14 CL   UNL     1      -2.053  11.623  -5.563  0.00  0.00    -0.082 Cl
ATOM     15 CL   UNL     1      -2.021   8.589  -6.270  0.00  0.00    -0.082 Cl
ENDBRANCH   5   8
BRANCH   1  20
ATOM     16  C   UNL     1      -1.129   7.810   5.873  0.00  0.00    +0.002 A 
ATOM     17  C   UNL     1      -2.315   7.655   6.567  0.00  0.00    +0.003 A 
ATOM     18  C   UNL     1      -3.525   7.750   5.904  0.00  0.00    +0.040 A 
ATOM     19  C   UNL     1      -3.551   8.001   4.544  0.00  0.00    +0.145 A 
ATOM     20  C   UNL     1      -2.359   8.157   3.845  0.00  0.00    +0.079 A 
ATOM     21  C   UNL     1      -1.148   8.055   4.514  0.00  0.00    +0.027 A 
ATOM     22  F   UNL     1      -4.732   8.094   3.896  0.00  0.00    -0.204 F 
ENDBRANCH   1  20
BRANCH   7  23
ATOM     23  S   UNL     1      -2.321   5.723   1.756  0.00  0.00    -0.082 S 
BRANCH  23  24
ATOM     24  C   UNL     1      -2.326   5.126   0.047  0.00  0.00    +0.153 C 
BRANCH  24  25
ATOM     25  C   UNL     1      -2.288   3.619   0.041  0.00  0.00    +0.146 A 
ATOM     26  N   UNL     1      -3.416   2.931   0.052  0.00  0.00    -0.199 NA
ATOM     27  C   UNL     1      -3.386   1.600   0.047  0.00  0.00    +0.217 A 
ATOM     28  N   UNL     1      -2.220   0.964   0.030  0.00  0.00    -0.181 NA
ATOM     29  C   UNL     1      -1.088   1.659   0.019  0.00  0.00    +0.217 A 
ATOM     30  N   UNL     1      -1.126   2.990   0.030  0.00  0.00    -0.199 NA
ATOM     31  N   UNL     1       0.126   1.002   0.002  0.00  0.00    -0.327 N 
ATOM     32  N   UNL     1      -4.565   0.883   0.059  0.00  0.00    -0.327 N 
ATOM     33  H   UNL     1       0.152   0.033  -0.003  0.00  0.00    +0.145 HD
ATOM     34  H   UNL     1       0.952   1.511  -0.011  0.00  0.00    +0.145 HD
ATOM     35  H   UNL     1      -4.542  -0.087   0.055  0.00  0.00    +0.145 HD
ATOM     36  H   UNL     1      -5.416   1.348   0.071  0.00  0.00    +0.145 HD
ENDBRANCH  24  25
ENDBRANCH  23  24
ENDBRANCH   7  23
TORSDOF 5
