REMARK  Name = ZINC40729794
REMARK  8 active torsions:
REMARK  status: ('A' for Active; 'I' for Inactive)
REMARK    1  A    between atoms: C_4  and  C_7
REMARK    2  A    between atoms: C_7  and  C_8
REMARK    3  A    between atoms: C_7  and  N_14
REMARK    4  A    between atoms: C_21  and  N_40
REMARK    5  A    between atoms: C_22  and  N_26
REMARK    6  A    between atoms: N_26  and  N_27
REMARK    7  A    between atoms: N_27  and  C_28
REMARK    8  A    between atoms: N_27  and  C_34
REMARK                            x       y       z     vdW  Elec       q    Type
REMARK                         _______ _______ _______ _____ _____    ______ ____
ROOT
ATOM      1  N   UNL     1       7.595  -0.314  -2.893  0.00  0.00    -0.289 NA
ATOM      2  C   UNL     1       6.648  -0.100  -3.996  0.00  0.00    +0.104 C 
ATOM      3  C   UNL     1       5.870  -1.395  -4.254  0.00  0.00    +0.122 C 
ATOM      4  N   UNL     1       6.833  -2.486  -4.464  0.00  0.00    -0.311 N 
ATOM      5  C   UNL     1       7.898  -2.675  -3.467  0.00  0.00    +0.122 C 
ATOM      6  C   UNL     1       8.597  -1.330  -3.240  0.00  0.00    +0.104 C 
ATOM      7  C   UNL     1       6.740  -3.316  -5.574  0.00  0.00    +0.147 A 
ATOM      8  C   UNL     1       5.939  -4.459  -5.539  0.00  0.00    +0.107 A 
ATOM      9  C   UNL     1       5.881  -5.258  -6.682  0.00  0.00    +0.161 A 
ATOM     10  N   UNL     1       6.586  -4.903  -7.754  0.00  0.00    -0.217 NA
ATOM     11  C   UNL     1       7.330  -3.816  -7.745  0.00  0.00    +0.225 A 
ATOM     12  N   UNL     1       7.408  -3.031  -6.689  0.00  0.00    -0.219 NA
ENDROOT
BRANCH   8  13
ATOM     13  N   UNL     1       5.212  -4.795  -4.386  0.00  0.00    -0.353 N 
ATOM     14  H   UNL     1       5.133  -4.158  -3.659  0.00  0.00    +0.143 HD
ATOM     15  H   UNL     1       4.788  -5.665  -4.316  0.00  0.00    +0.143 HD
ENDBRANCH   8  13
BRANCH   9  16
ATOM     16  N   UNL     1       5.099  -6.407  -6.701  0.00  0.00    -0.242 N 
ATOM     17  H   UNL     1       4.588  -6.659  -5.915  0.00  0.00    +0.172 HD
BRANCH  16  18
ATOM     18  N   UNL     1       5.048  -7.202  -7.854  0.00  0.00    -0.221 N 
BRANCH  18  19
ATOM     19  C   UNL     1       5.734  -8.418  -7.894  0.00  0.00    +0.053 A 
ATOM     20  C   UNL     1       6.607  -8.760  -6.869  0.00  0.00    +0.025 A 
ATOM     21  C   UNL     1       7.284  -9.963  -6.912  0.00  0.00    +0.002 A 
ATOM     22  C   UNL     1       7.093 -10.827  -7.975  0.00  0.00    +0.000 A 
ATOM     23  C   UNL     1       6.225 -10.490  -8.997  0.00  0.00    +0.002 A 
ATOM     24  C   UNL     1       5.541  -9.291  -8.957  0.00  0.00    +0.025 A 
ENDBRANCH  18  19
BRANCH  18  25
ATOM     25  C   UNL     1       4.312  -6.777  -8.963  0.00  0.00    +0.053 A 
ATOM     26  C   UNL     1       2.971  -6.442  -8.822  0.00  0.00    +0.025 A 
ATOM     27  C   UNL     1       2.247  -6.024  -9.920  0.00  0.00    +0.002 A 
ATOM     28  C   UNL     1       2.854  -5.937 -11.159  0.00  0.00    +0.000 A 
ATOM     29  C   UNL     1       4.189  -6.270 -11.303  0.00  0.00    +0.002 A 
ATOM     30  C   UNL     1       4.921  -6.684 -10.208  0.00  0.00    +0.025 A 
ENDBRANCH  18  25
ENDBRANCH  16  18
ENDBRANCH   9  16
BRANCH   1  31
ATOM     31  C   UNL     1       8.238   0.947  -2.500  0.00  0.00    +0.117 C 
BRANCH  31  35
ATOM     32  C   UNL     1       5.241   3.827  -1.515  0.00  0.00    +0.000 A 
ATOM     33  C   UNL     1       6.365   4.213  -2.221  0.00  0.00    +0.000 A 
ATOM     34  C   UNL     1       7.335   3.281  -2.539  0.00  0.00    +0.005 A 
ATOM     35  C   UNL     1       7.181   1.963  -2.152  0.00  0.00    -0.026 A 
ATOM     36  C   UNL     1       6.057   1.577  -1.446  0.00  0.00    +0.005 A 
ATOM     37  C   UNL     1       5.087   2.509  -1.128  0.00  0.00    +0.000 A 
ENDBRANCH  31  35
BRANCH  31  38
ATOM     38  C   UNL     1       9.120   0.709  -1.301  0.00  0.00    -0.026 A 
ATOM     39  C   UNL     1       8.699  -0.134  -0.290  0.00  0.00    +0.005 A 
ATOM     40  C   UNL     1       9.508  -0.353   0.809  0.00  0.00    +0.000 A 
ATOM     41  C   UNL     1      10.738   0.271   0.897  0.00  0.00    +0.000 A 
ATOM     42  C   UNL     1      11.160   1.114  -0.114  0.00  0.00    +0.000 A 
ATOM     43  C   UNL     1      10.352   1.329  -1.216  0.00  0.00    +0.005 A 
ENDBRANCH  31  38
ENDBRANCH   1  31
TORSDOF 8
