REMARK  Name = ZINC64083684
REMARK  8 active torsions:
REMARK  status: ('A' for Active; 'I' for Inactive)
REMARK    1  A    between atoms: C_1  and  O_2
REMARK    2  A    between atoms: O_2  and  C_3
REMARK    3  A    between atoms: C_6  and  C_10
REMARK    4  A    between atoms: C_10  and  C_11
REMARK    5  A    between atoms: C_11  and  C_17
REMARK    6  A    between atoms: C_17  and  C_18
REMARK    7  A    between atoms: C_18  and  C_19
REMARK    8  A    between atoms: C_25  and  C_27
REMARK                            x       y       z     vdW  Elec       q    Type
REMARK                         _______ _______ _______ _____ _____    ______ ____
ROOT
ATOM      1  C   UNL     1       3.063  -4.882   6.030  0.00  0.00    +0.098 C 
ENDROOT
BRANCH   1   2
ATOM      2  C   UNL     1       3.739  -5.538   7.205  0.00  0.00    +0.216 C 
ATOM      3  O   UNL     1       3.574  -5.097   8.323  0.00  0.00    -0.276 OA
ATOM      4  N   UNL     1       4.528  -6.614   7.015  0.00  0.00    -0.295 N 
ATOM      5  C   UNL     1       4.820  -7.246   5.715  0.00  0.00    +0.108 C 
ATOM      6  C   UNL     1       5.205  -8.706   6.062  0.00  0.00    +0.021 C 
ATOM      7  C   UNL     1       5.991  -8.514   7.386  0.00  0.00    +0.028 C 
ATOM      8  C   UNL     1       5.245  -7.348   8.068  0.00  0.00    +0.119 C 
BRANCH   8   9
ATOM      9  C   UNL     1       6.247  -6.420   8.759  0.00  0.00    +0.195 C 
ATOM     10  N   UNL     1       7.250  -5.954   7.795  0.00  0.00    -0.362 N 
ATOM     11  C   UNL     1       8.414  -6.360   8.213  0.00  0.00    +0.060 A 
ATOM     12  C   UNL     1       9.776  -6.207   7.682  0.00  0.00    +0.030 A 
ATOM     13  C   UNL     1      10.814  -6.749   8.346  0.00  0.00    +0.040 A 
ATOM     14  C   UNL     1      10.653  -7.470   9.547  0.00  0.00    +0.125 A 
ATOM     15  C   UNL     1       9.445  -7.668  10.120  0.00  0.00    +0.065 A 
ATOM     16  C   UNL     1       8.243  -7.121   9.482  0.00  0.00    +0.063 A 
ATOM     17  N   UNL     1       6.979  -7.154   9.799  0.00  0.00    -0.362 N 
ATOM     18  F   UNL     1      11.749  -7.981  10.149  0.00  0.00    -0.205 F 
ATOM     19  H   UNL     1       7.078  -5.437   6.992  0.00  0.00    +0.162 HD
ATOM     20  H   UNL     1       6.593  -7.584  10.578  0.00  0.00    +0.162 HD
ENDBRANCH   8   9
ENDBRANCH   1   2
BRANCH   1  21
ATOM     21  C   UNL     1       2.233  -3.692   6.517  0.00  0.00    +0.035 C 
BRANCH  21  22
ATOM     22  C   UNL     1       1.546  -3.026   5.324  0.00  0.00    +0.039 C 
ATOM     23  C   UNL     1       0.676  -1.841   5.798  0.00  0.00    +0.035 C 
ATOM     24  C   UNL     1      -0.707  -2.511   5.965  0.00  0.00    +0.098 C 
ATOM     25  C   UNL     1      -0.657  -3.702   5.032  0.00  0.00    +0.214 C 
ATOM     26  O   UNL     1      -1.624  -4.327   4.652  0.00  0.00    -0.276 OA
ATOM     27  N   UNL     1       0.615  -3.964   4.685  0.00  0.00    -0.309 N 
ATOM     28  H   UNL     1       0.883  -4.681   4.089  0.00  0.00    +0.149 HD
BRANCH  22  29
ATOM     29  C   UNL     1       2.590  -2.546   4.313  0.00  0.00    +0.063 C 
BRANCH  29  33
ATOM     30  C   UNL     1       0.626  -0.618   1.042  0.00  0.00    +0.123 A 
ATOM     31  C   UNL     1       1.202   0.139   2.051  0.00  0.00    +0.046 A 
ATOM     32  C   UNL     1       1.836  -0.486   3.107  0.00  0.00    +0.010 A 
ATOM     33  C   UNL     1       1.897  -1.867   3.160  0.00  0.00    -0.010 A 
ATOM     34  C   UNL     1       1.323  -2.626   2.154  0.00  0.00    +0.130 A 
ATOM     35  C   UNL     1       0.682  -2.003   1.097  0.00  0.00    +0.084 A 
ATOM     36  F   UNL     1       1.384  -3.974   2.207  0.00  0.00    -0.205 F 
BRANCH  30  38
ATOM     37  C   UNL     1      -0.017   1.425   0.010  0.00  0.00    +0.277 C 
ATOM     38  O   UNL     1       0.002  -0.004   0.002  0.00  0.00    -0.495 OA
ENDBRANCH  30  38
ENDBRANCH  29  33
ENDBRANCH  22  29
ENDBRANCH  21  22
ENDBRANCH   1  21
TORSDOF 7
