REMARK  Name = ZINC21040804
REMARK  8 active torsions:
REMARK  status: ('A' for Active; 'I' for Inactive)
REMARK    1  A    between atoms: C_4  and  O_28
REMARK    2  A    between atoms: C_5  and  C_7
REMARK    3  A    between atoms: N_8  and  N_9
REMARK    4  A    between atoms: C_12  and  S_15
REMARK    5  A    between atoms: S_15  and  C_16
REMARK    6  A    between atoms: C_16  and  C_17
REMARK    7  A    between atoms: C_17  and  C_18
REMARK    8  A    between atoms: N_20  and  C_21
REMARK                            x       y       z     vdW  Elec       q    Type
REMARK                         _______ _______ _______ _____ _____    ______ ____
ROOT
ATOM      1  N   UNL     1      -3.597  -0.849  -0.030  0.00  0.00    -0.205 N 
ATOM      2  C   UNL     1      -4.810  -0.176  -0.006  0.00  0.00    +0.232 A 
ATOM      3  N   UNL     1      -6.050  -0.754   0.002  0.00  0.00    -0.186 NA
ATOM      4  C   UNL     1      -6.981   0.245   0.026  0.00  0.00    +0.210 A 
ATOM      5  N   UNL     1      -6.345   1.393   0.032  0.00  0.00    -0.144 NA
ATOM      6  N   UNL     1      -4.970   1.125   0.017  0.00  0.00    -0.245 N 
ATOM      7  H   UNL     1      -3.579  -1.949  -0.044  0.00  0.00    +0.177 HD
ATOM      8  H   UNL     1      -4.091   1.787   0.022  0.00  0.00    +0.192 HD
ENDROOT
BRANCH   1  10
ATOM      9  C   UNL     1      -1.261  -0.757  -0.058  0.00  0.00    +0.142 C 
ATOM     10  N   UNL     1      -2.396  -0.128  -0.036  0.00  0.00    -0.187 NA
BRANCH   9  15
ATOM     11  C   UNL     1       2.405   0.044  -0.096  0.00  0.00    +0.001 A 
ATOM     12  C   UNL     1       2.381   1.428  -0.079  0.00  0.00    +0.004 A 
ATOM     13  C   UNL     1       1.176   2.106  -0.054  0.00  0.00    +0.046 A 
ATOM     14  C   UNL     1      -0.017   1.403  -0.048  0.00  0.00    +0.125 A 
ATOM     15  C   UNL     1       0.003   0.001  -0.065  0.00  0.00    +0.036 A 
ATOM     16  C   UNL     1       1.226  -0.672  -0.089  0.00  0.00    +0.013 A 
BRANCH  14  17
ATOM     17  O   UNL     1      -1.201   2.068  -0.030  0.00  0.00    -0.506 OA
ATOM     18  H   UNL     1      -2.147   1.507  -0.024  0.00  0.00    +0.292 HD
ENDBRANCH  14  17
ENDBRANCH   9  15
ENDBRANCH   1  10
BRANCH   4  19
ATOM     19  S   UNL     1      -8.730   0.031   0.046  0.00  0.00    -0.084 S 
BRANCH  19  20
ATOM     20  C   UNL     1      -9.379   1.724   0.075  0.00  0.00    +0.086 C 
BRANCH  20  21
ATOM     21  C   UNL     1     -10.909   1.684   0.094  0.00  0.00    +0.107 C 
BRANCH  21  22
ATOM     22  C   UNL     1     -11.448   3.091   0.118  0.00  0.00    +0.218 C 
ATOM     23  O   UNL     1     -10.685   4.033   0.119  0.00  0.00    -0.275 OA
ATOM     24  N   UNL     1     -12.779   3.301   0.138  0.00  0.00    -0.285 N 
ATOM     25  H   UNL     1     -13.472   2.450   0.062  0.00  0.00    +0.155 HD
BRANCH  24  26
ATOM     26  C   UNL     1     -13.280   4.603   0.255  0.00  0.00    +0.047 A 
ATOM     27  C   UNL     1     -12.607   5.663  -0.338  0.00  0.00    +0.024 A 
ATOM     28  C   UNL     1     -13.105   6.947  -0.224  0.00  0.00    +0.002 A 
ATOM     29  C   UNL     1     -14.269   7.178   0.487  0.00  0.00    +0.001 A 
ATOM     30  C   UNL     1     -14.940   6.125   1.082  0.00  0.00    +0.017 A 
ATOM     31  C   UNL     1     -14.448   4.838   0.968  0.00  0.00    +0.039 A 
ATOM     32 BR   UNL     1     -15.366   3.399   1.784  0.00  0.00    -0.048 Br
ENDBRANCH  24  26
ENDBRANCH  21  22
ENDBRANCH  20  21
ENDBRANCH  19  20
ENDBRANCH   4  19
TORSDOF 8
