REMARK  Name = ZINC13951825
REMARK  13 active torsions:
REMARK  status: ('A' for Active; 'I' for Inactive)
REMARK    1  A    between atoms: C_1  and  C_2
REMARK    2  A    between atoms: C_2  and  C_3
REMARK    3  A    between atoms: C_6  and  S_8
REMARK    4  A    between atoms: S_8  and  N_11
REMARK    5  A    between atoms: N_11  and  C_12
REMARK    6  A    between atoms: C_12  and  C_13
REMARK    7  A    between atoms: C_13  and  O_14
REMARK    8  A    between atoms: O_14  and  C_15
REMARK    9  A    between atoms: C_21  and  C_24
REMARK   10  A    between atoms: C_27  and  O_32
REMARK   11  A    between atoms: C_28  and  O_30
REMARK   12  A    between atoms: O_30  and  C_31
REMARK   13  A    between atoms: O_32  and  C_33
REMARK                            x       y       z     vdW  Elec       q    Type
REMARK                         _______ _______ _______ _____ _____    ______ ____
ROOT
ATOM      1  C   UNL     1       6.654   0.196   0.798  0.00  0.00    +0.233 A 
ATOM      2  C   UNL     1       7.574   1.253   0.677  0.00  0.00    +0.072 A 
ATOM      3  C   UNL     1       7.143   2.499   0.343  0.00  0.00    +0.055 A 
ATOM      4  C   UNL     1       5.770   2.712   0.122  0.00  0.00    +0.179 A 
ATOM      5  N   UNL     1       5.051   3.775  -0.208  0.00  0.00    -0.128 NA
ATOM      6  N   UNL     1       3.809   3.447  -0.291  0.00  0.00    -0.127 NA
ATOM      7  C   UNL     1       3.660   2.163  -0.022  0.00  0.00    +0.186 A 
ATOM      8  N   UNL     1       4.897   1.660   0.253  0.00  0.00    -0.189 N 
ATOM      9  N   UNL     1       5.374   0.392   0.592  0.00  0.00    -0.125 NA
ENDROOT
BRANCH   7  10
ATOM     10  C   UNL     1       2.388   1.411  -0.013  0.00  0.00    +0.025 A 
ATOM     11  C   UNL     1       2.400   0.015  -0.021  0.00  0.00    +0.015 A 
ATOM     12  C   UNL     1       1.211  -0.684  -0.013  0.00  0.00    +0.050 A 
ATOM     13  C   UNL     1       0.002  -0.004   0.002  0.00  0.00    +0.162 A 
ATOM     14  C   UNL     1      -0.017   1.389   0.010  0.00  0.00    +0.162 A 
ATOM     15  C   UNL     1       1.171   2.096   0.002  0.00  0.00    +0.061 A 
BRANCH  14  16
ATOM     16  O   UNL     1      -1.204   2.052   0.019  0.00  0.00    -0.491 OA
ATOM     17  C   UNL     1      -1.148   3.480   0.026  0.00  0.00    +0.277 C 
ENDBRANCH  14  16
BRANCH  13  18
ATOM     18  O   UNL     1      -1.167  -0.698   0.009  0.00  0.00    -0.491 OA
ATOM     19  C   UNL     1      -1.075  -2.124   0.001  0.00  0.00    +0.277 C 
ENDBRANCH  13  18
ENDBRANCH   7  10
BRANCH   1  20
ATOM     20  O   UNL     1       7.096  -1.043   1.132  0.00  0.00    -0.474 OA
BRANCH  20  21
ATOM     21  C   UNL     1       6.114  -2.075   1.240  0.00  0.00    +0.247 C 
BRANCH  21  22
ATOM     22  C   UNL     1       6.797  -3.390   1.621  0.00  0.00    +0.147 C 
BRANCH  22  23
ATOM     23  N   UNL     1       7.379  -3.268   2.960  0.00  0.00    -0.186 NA
ATOM     24  H   UNL     1       7.488  -2.393   3.364  0.00  0.00    +0.148 HD
BRANCH  23  25
ATOM     25  S   UNL     1       7.851  -4.625   3.785  0.00  0.00    +0.065 S 
ATOM     26  O   UNL     1       8.392  -4.180   5.021  0.00  0.00    -0.153 OA
ATOM     27  O   UNL     1       6.768  -5.541   3.713  0.00  0.00    -0.153 OA
BRANCH  25  31
ATOM     28  C   UNL     1      10.882  -6.690   1.278  0.00  0.00    -0.009 A 
ATOM     29  C   UNL     1      11.385  -5.809   2.177  0.00  0.00    +0.013 A 
ATOM     30  C   UNL     1      10.513  -5.119   2.999  0.00  0.00    +0.036 A 
ATOM     31  C   UNL     1       9.182  -5.346   2.883  0.00  0.00    +0.143 A 
ATOM     32  S   UNL     1       9.127  -6.569   1.584  0.00  0.00    -0.074 S 
BRANCH  28  34
ATOM     33  C   UNL     1      11.956  -8.898   0.927  0.00  0.00    +0.009 C 
ATOM     34  C   UNL     1      11.614  -7.552   0.283  0.00  0.00    +0.039 C 
ENDBRANCH  28  34
ENDBRANCH  25  31
ENDBRANCH  23  25
ENDBRANCH  22  23
ENDBRANCH  21  22
ENDBRANCH  20  21
ENDBRANCH   1  20
TORSDOF 10
