REMARK  Name = ZINC29686627
REMARK  9 active torsions:
REMARK  status: ('A' for Active; 'I' for Inactive)
REMARK    1  A    between atoms: C_1  and  C_2
REMARK    2  A    between atoms: C_2  and  C_4
REMARK    3  A    between atoms: C_2  and  N_11
REMARK    4  A    between atoms: N_14  and  C_17
REMARK    5  A    between atoms: C_17  and  C_19
REMARK    6  A    between atoms: C_17  and  C_20
REMARK    7  A    between atoms: N_22  and  C_23
REMARK    8  A    between atoms: C_23  and  C_24
REMARK    9  A    between atoms: N_26  and  C_27
REMARK                            x       y       z     vdW  Elec       q    Type
REMARK                         _______ _______ _______ _____ _____    ______ ____
ROOT
ATOM      1  C   UNL     1       0.819   1.481   0.364  0.00  0.00    +0.016 C 
ATOM      2  C   UNL     1       0.301   0.144  -0.169  0.00  0.00    -0.004 C 
ENDROOT
BRANCH   1   6
ATOM      3  N   UNL     1      -2.005   1.613   3.504  0.00  0.00    -0.299 NA
ATOM      4  C   UNL     1      -2.301   2.368   2.279  0.00  0.00    +0.066 C 
ATOM      5  C   UNL     1      -1.454   1.821   1.127  0.00  0.00    -0.062 C 
ATOM      6  N   UNL     1      -0.031   1.927   1.476  0.00  0.00    +0.389 N 
ATOM      7  C   UNL     1       0.266   1.172   2.702  0.00  0.00    -0.062 C 
ATOM      8  C   UNL     1      -0.581   1.719   3.853  0.00  0.00    +0.066 C 
ATOM      9  H   UNL     1       0.194   2.987   1.668  0.00  0.00    -0.081 HD
BRANCH   3  11
ATOM     10  C   UNL     1      -4.326   1.923   4.220  0.00  0.00    +0.029 C 
ATOM     11  C   UNL     1      -2.854   2.059   4.616  0.00  0.00    +0.085 C 
BRANCH  11  12
ATOM     12  C   UNL     1      -2.580   1.209   5.830  0.00  0.00    -0.012 A 
ATOM     13  C   UNL     1      -2.114  -0.083   5.678  0.00  0.00    +0.006 A 
ATOM     14  C   UNL     1      -1.863  -0.863   6.791  0.00  0.00    +0.000 A 
ATOM     15  C   UNL     1      -2.077  -0.351   8.057  0.00  0.00    +0.001 A 
ATOM     16  C   UNL     1      -2.542   0.941   8.211  0.00  0.00    +0.020 A 
ATOM     17  C   UNL     1      -2.789   1.724   7.097  0.00  0.00    +0.046 A 
ATOM     18 CL   UNL     1      -3.367   3.350   7.289  0.00  0.00    -0.083 Cl
ENDBRANCH  11  12
ENDBRANCH   3  11
ENDBRANCH   1   6
BRANCH   1  19
ATOM     19  C   UNL     1       0.784   2.509  -0.738  0.00  0.00    +0.200 C 
ATOM     20  O   UNL     1      -0.017   3.418  -0.694  0.00  0.00    -0.278 OA
ATOM     21  N   UNL     1       1.642   2.416  -1.773  0.00  0.00    -0.308 N 
ATOM     22  H   UNL     1       2.369   1.591  -1.813  0.00  0.00    +0.149 HD
BRANCH  21  23
ATOM     23  C   UNL     1       1.609   3.414  -2.844  0.00  0.00    +0.200 C 
BRANCH  23  24
ATOM     24  C   UNL     1       2.661   3.085  -3.871  0.00  0.00    +0.234 C 
ATOM     25  O   UNL     1       3.369   2.112  -3.723  0.00  0.00    -0.274 OA
ATOM     26  N   UNL     1       2.814   3.872  -4.955  0.00  0.00    -0.282 N 
ATOM     27  H   UNL     1       2.236   4.803  -5.045  0.00  0.00    +0.155 HD
BRANCH  26  28
ATOM     28  C   UNL     1       3.711   3.503  -5.967  0.00  0.00    +0.072 A 
ATOM     29  C   UNL     1       4.135   2.186  -6.074  0.00  0.00    +0.029 A 
ATOM     30  C   UNL     1       5.015   1.822  -7.074  0.00  0.00    +0.043 A 
ATOM     31  C   UNL     1       5.484   2.772  -7.966  0.00  0.00    +0.161 A 
ATOM     32  C   UNL     1       5.067   4.090  -7.861  0.00  0.00    +0.195 A 
ATOM     33  C   UNL     1       4.181   4.457  -6.862  0.00  0.00    +0.182 A 
ATOM     34  F   UNL     1       3.774   5.741  -6.758  0.00  0.00    -0.200 F 
ATOM     35  F   UNL     1       5.526   5.015  -8.731  0.00  0.00    -0.199 F 
ATOM     36  F   UNL     1       6.348   2.414  -8.941  0.00  0.00    -0.202 F 
ENDBRANCH  26  28
ENDBRANCH  23  24
ENDBRANCH  21  23
ENDBRANCH   1  19
TORSDOF 7
