REMARK  Name = ZINC53007433
REMARK  9 active torsions:
REMARK  status: ('A' for Active; 'I' for Inactive)
REMARK    1  A    between atoms: C_1  and  C_2
REMARK    2  A    between atoms: C_5  and  N_21
REMARK    3  A    between atoms: C_6  and  C_8
REMARK    4  A    between atoms: N_10  and  C_11
REMARK    5  A    between atoms: C_11  and  C_13
REMARK    6  A    between atoms: C_11  and  C_14
REMARK    7  A    between atoms: C_16  and  C_20
REMARK    8  A    between atoms: C_18  and  C_19
REMARK    9  A    between atoms: N_21  and  N_22
REMARK                            x       y       z     vdW  Elec       q    Type
REMARK                         _______ _______ _______ _____ _____    ______ ____
ROOT
ATOM      1  C   UNL     1       0.037  -3.060   2.316  0.00  0.00    +0.246 C 
ATOM      2  O   UNL     1       0.141  -4.266   2.198  0.00  0.00    -0.270 OA
ATOM      3  N   UNL     1      -0.069  -2.510   3.542  0.00  0.00    -0.305 N 
ATOM      4  H   UNL     1      -0.152  -1.548   3.636  0.00  0.00    +0.150 HD
ENDROOT
BRANCH   1  10
ATOM      5  C   UNL     1       0.012   1.488   0.275  0.00  0.00    +0.044 C 
ATOM      6  C   UNL     1       0.017  -0.011   0.129  0.00  0.00    -0.050 A 
ATOM      7  C   UNL     1       0.012  -0.581  -1.135  0.00  0.00    +0.005 A 
ATOM      8  C   UNL     1       0.016  -1.952  -1.284  0.00  0.00    +0.025 A 
ATOM      9  C   UNL     1       0.024  -2.774  -0.163  0.00  0.00    +0.053 A 
ATOM     10  C   UNL     1       0.029  -2.200   1.118  0.00  0.00    +0.059 A 
ATOM     11  C   UNL     1       0.031  -0.809   1.251  0.00  0.00    +0.018 A 
BRANCH   9  12
ATOM     12  N   UNL     1       0.027  -4.155  -0.309  0.00  0.00    -0.282 N 
ATOM     13  H   UNL     1       0.111  -4.725   0.471  0.00  0.00    +0.166 HD
BRANCH  12  14
ATOM     14  N   UNL     1      -0.090  -4.710  -1.552  0.00  0.00    -0.256 NA
ATOM     15  H   UNL     1       0.629  -4.366  -2.170  0.00  0.00    +0.140 HD
ATOM     16  H   UNL     1      -0.072  -5.717  -1.501  0.00  0.00    +0.140 HD
ENDBRANCH  12  14
ENDBRANCH   9  12
ENDBRANCH   1  10
BRANCH   3  17
ATOM     17  C   UNL     1      -0.061  -3.364   4.731  0.00  0.00    +0.101 C 
ATOM     18  C   UNL     1      -1.476  -3.878   5.000  0.00  0.00    +0.033 C 
BRANCH  17  19
ATOM     19  C   UNL     1       0.418  -2.568   5.918  0.00  0.00    -0.017 A 
ATOM     20  C   UNL     1       0.276  -1.193   5.944  0.00  0.00    +0.016 A 
ATOM     21  C   UNL     1       0.717  -0.507   7.026  0.00  0.00    -0.013 A 
ATOM     22  S   UNL     1       1.358  -1.816   8.057  0.00  0.00    -0.098 S 
ATOM     23  C   UNL     1       0.989  -3.189   6.979  0.00  0.00    -0.008 A 
ATOM     24  C   UNL     1       1.247  -4.659   7.191  0.00  0.00    +0.052 C 
ATOM     25  C   UNL     1       0.677   0.976   7.291  0.00  0.00    +0.051 C 
ENDBRANCH  17  19
ENDBRANCH   3  17
TORSDOF 5
