REMARK  Name = ZINC14742481
REMARK  5 active torsions:
REMARK  status: ('A' for Active; 'I' for Inactive)
REMARK    1  A    between atoms: C_1  and  N_2
REMARK    2  A    between atoms: C_5  and  C_7
REMARK    3  A    between atoms: C_16  and  N_65
REMARK    4  A    between atoms: C_20  and  C_21
REMARK    5  A    between atoms: C_20  and  N_65
REMARK                            x       y       z     vdW  Elec       q    Type
REMARK                         _______ _______ _______ _____ _____    ______ ____
ROOT
ATOM      1  C   UNL     1       1.266   6.972   0.293  0.00  0.00    +0.172 C 
ATOM      2  N   UNL     1       1.851   5.966   1.183  0.00  0.00    -0.270 N 
ATOM      3  C   UNL     1       2.524   6.236   2.313  0.00  0.00    +0.043 A 
ATOM      4  C   UNL     1       2.897   5.049   2.852  0.00  0.00    +0.004 A 
ATOM      5  C   UNL     1       2.418   4.060   1.975  0.00  0.00    +0.151 A 
ATOM      6  N   UNL     1       1.796   4.693   0.995  0.00  0.00    -0.166 NA
ATOM      7  C   UNL     1       3.677   4.897   4.128  0.00  0.00    +0.023 C 
ATOM      8  C   UNL     1       3.603   6.223   4.897  0.00  0.00    -0.067 C 
ATOM      9  C   UNL     1       3.961   7.379   3.959  0.00  0.00    -0.009 C 
ATOM     10  C   UNL     1       2.841   7.574   2.930  0.00  0.00    +0.054 C 
ENDROOT
BRANCH   5  11
ATOM     11  C   UNL     1       2.575   2.599   2.123  0.00  0.00    +0.267 C 
ATOM     12  O   UNL     1       3.269   2.149   3.014  0.00  0.00    -0.268 OA
ATOM     13  N   UNL     1       1.949   1.764   1.271  0.00  0.00    -0.295 N 
ATOM     14  C   UNL     1       2.237   0.330   1.320  0.00  0.00    +0.119 C 
ATOM     15  C   UNL     1       2.926  -0.097   0.019  0.00  0.00    +0.088 C 
ATOM     16  S   UNL     1       1.850   0.341  -1.380  0.00  0.00    -0.158 S 
ATOM     17  C   UNL     1       1.528   2.110  -1.115  0.00  0.00    +0.088 C 
ATOM     18  C   UNL     1       0.988   2.303   0.307  0.00  0.00    +0.119 C 
ENDBRANCH   5  11
BRANCH   8  19
ATOM     19  N   UNL     1       4.559   6.186   6.020  0.00  0.00    +0.381 N 
ATOM     20  H   UNL     1       5.487   6.466   5.684  0.00  0.00    -0.086 HD
ATOM     21  H   UNL     1       4.604   5.231   6.394  0.00  0.00    -0.086 HD
BRANCH  19  22
ATOM     22  C   UNL     1       4.129   7.107   7.089  0.00  0.00    -0.078 C 
BRANCH  22  23
ATOM     23  C   UNL     1       5.138   7.047   8.238  0.00  0.00    -0.022 C 
ATOM     24  C   UNL     1       5.113   5.652   8.866  0.00  0.00    -0.009 C 
ATOM     25  C   UNL     1       6.122   5.592  10.015  0.00  0.00    +0.007 C 
ATOM     26  C   UNL     1       5.753   6.635  11.072  0.00  0.00    -0.010 C 
ATOM     27  C   UNL     1       4.350   6.343  11.609  0.00  0.00    +0.007 C 
ATOM     28  C   UNL     1       3.342   6.403  10.460  0.00  0.00    -0.010 C 
ATOM     29  C   UNL     1       3.710   5.360   9.403  0.00  0.00    +0.007 C 
ATOM     30  C   UNL     1       3.367   7.798   9.832  0.00  0.00    +0.007 C 
ATOM     31  C   UNL     1       4.769   8.090   9.295  0.00  0.00    -0.009 C 
ATOM     32  C   UNL     1       5.778   8.030  10.444  0.00  0.00    +0.007 C 
ENDBRANCH  22  23
ENDBRANCH  19  22
ENDBRANCH   8  19
TORSDOF 4
