REMARK  Name = ZINC09455875
REMARK  14 active torsions:
REMARK  status: ('A' for Active; 'I' for Inactive)
REMARK    1  A    between atoms: C_1  and  C_2
REMARK    2  A    between atoms: C_4  and  C_35
REMARK    3  A    between atoms: C_5  and  C_34
REMARK    4  A    between atoms: C_6  and  S_9
REMARK    5  A    between atoms: C_7  and  C_8
REMARK    6  A    between atoms: S_9  and  N_12
REMARK    7  A    between atoms: C_15  and  C_18
REMARK    8  A    between atoms: N_20  and  C_21
REMARK    9  A    between atoms: C_21  and  C_22
REMARK   10  A    between atoms: C_22  and  C_23
REMARK   11  A    between atoms: C_22  and  C_24
REMARK   12  A    between atoms: C_22  and  N_77
REMARK   13  A    between atoms: C_26  and  C_33
REMARK   14  A    between atoms: C_29  and  C_32
REMARK                            x       y       z     vdW  Elec       q    Type
REMARK                         _______ _______ _______ _____ _____    ______ ____
ROOT
ATOM      1  N   UNL     1      -1.254   3.145  -1.815  0.00  0.00    -0.177 NA
ATOM      2  C   UNL     1      -2.277   2.809  -2.815  0.00  0.00    +0.110 C 
ATOM      3  C   UNL     1      -1.624   2.752  -4.195  0.00  0.00    +0.030 C 
ATOM      4  C   UNL     1      -0.890   4.068  -4.464  0.00  0.00    +0.077 C 
ATOM      5  C   UNL     1       0.208   4.265  -3.416  0.00  0.00    +0.030 C 
ATOM      6  C   UNL     1      -0.428   4.342  -2.024  0.00  0.00    +0.110 C 
ENDROOT
BRANCH   4   7
ATOM      7  C   UNL     1      -0.271   4.026  -5.837  0.00  0.00    +0.216 C 
ATOM      8  O   UNL     1       0.929   4.142  -5.965  0.00  0.00    -0.276 OA
ATOM      9  N   UNL     1      -1.052   3.860  -6.923  0.00  0.00    -0.316 N 
ATOM     10  H   UNL     1      -2.012   3.767  -6.821  0.00  0.00    +0.149 HD
BRANCH   9  11
ATOM     11  C   UNL     1      -0.450   3.819  -8.258  0.00  0.00    +0.092 C 
BRANCH  11  12
ATOM     12  C   UNL     1      -1.556   3.755  -9.314  0.00  0.00    -0.055 C 
ATOM     13  C   UNL     1      -2.445   4.995  -9.197  0.00  0.00    -0.008 C 
ATOM     14  C   UNL     1      -0.927   3.708 -10.708  0.00  0.00    -0.008 C 
BRANCH  12  22
ATOM     15  C   UNL     1      -1.545   1.335  -9.209  0.00  0.00    -0.046 C 
ATOM     16  C   UNL     1      -2.415   0.109  -8.923  0.00  0.00    +0.099 C 
ATOM     17  O   UNL     1      -3.522   0.094  -9.828  0.00  0.00    -0.378 OA
ATOM     18  C   UNL     1      -4.345   1.262  -9.749  0.00  0.00    +0.099 C 
ATOM     19  C   UNL     1      -3.494   2.500 -10.044  0.00  0.00    -0.046 C 
ATOM     20  C   UNL     1      -5.474   1.161 -10.777  0.00  0.00    +0.036 C 
ATOM     21  C   UNL     1      -2.931   0.173  -7.484  0.00  0.00    +0.036 C 
ATOM     22  N   UNL     1      -2.378   2.549  -9.077  0.00  0.00    +0.387 N 
ATOM     23  H   UNL     1      -2.761   2.588  -8.125  0.00  0.00    -0.081 HD
ENDBRANCH  12  22
ENDBRANCH  11  12
ENDBRANCH   9  11
ENDBRANCH   4   7
BRANCH   1  24
ATOM     24  S   UNL     1      -1.032   2.189  -0.481  0.00  0.00    +0.061 S 
ATOM     25  O   UNL     1      -1.523   0.899  -0.820  0.00  0.00    -0.153 OA
ATOM     26  O   UNL     1       0.302   2.406  -0.044  0.00  0.00    -0.153 OA
BRANCH  24  32
ATOM     27  C   UNL     1      -5.491   2.084   2.243  0.00  0.00    +0.044 C 
ATOM     28  C   UNL     1      -4.146   2.718   2.002  0.00  0.00    -0.045 A 
ATOM     29  C   UNL     1      -3.738   3.788   2.776  0.00  0.00    +0.007 A 
ATOM     30  C   UNL     1      -2.503   4.370   2.556  0.00  0.00    -0.045 A 
ATOM     31  C   UNL     1      -1.677   3.882   1.561  0.00  0.00    -0.021 A 
ATOM     32  C   UNL     1      -2.085   2.811   0.787  0.00  0.00    +0.112 A 
ATOM     33  C   UNL     1      -3.321   2.233   1.005  0.00  0.00    -0.021 A 
ATOM     34  C   UNL     1      -3.769   1.070   0.157  0.00  0.00    +0.046 C 
ATOM     35  C   UNL     1      -0.332   4.516   1.320  0.00  0.00    +0.046 C 
ATOM     36  C   UNL     1      -2.058   5.537   3.400  0.00  0.00    +0.044 C 
ENDBRANCH  24  32
ENDBRANCH   1  24
TORSDOF 6
