REMARK  Name = ZINC02438692
REMARK  6 active torsions:
REMARK  status: ('A' for Active; 'I' for Inactive)
REMARK    1  A    between atoms: C_1  and  C_2
REMARK    2  A    between atoms: N_8  and  C_9
REMARK    3  A    between atoms: C_9  and  C_10
REMARK    4  A    between atoms: C_16  and  C_24
REMARK    5  A    between atoms: C_18  and  C_22
REMARK    6  A    between atoms: C_19  and  N_21
REMARK                            x       y       z     vdW  Elec       q    Type
REMARK                         _______ _______ _______ _____ _____    ______ ____
ROOT
ATOM      1  C   UNL     1      -3.732   2.038   0.056  0.00  0.00    +0.064 C 
ATOM      2  C   UNL     1      -2.405   1.323   0.035  0.00  0.00    +0.023 A 
ATOM      3  C   UNL     1      -1.274   2.024  -0.192  0.00  0.00    +0.068 A 
ATOM      4  C   UNL     1      -0.030   1.361  -0.208  0.00  0.00    +0.141 A 
ATOM      5  C   UNL     1       0.003  -0.002   0.002  0.00  0.00    +0.072 A 
ATOM      6  C   UNL     1      -1.196  -0.689   0.229  0.00  0.00    +0.259 A 
ATOM      7  O   UNL     1      -1.182  -1.895   0.416  0.00  0.00    -0.267 OA
ATOM      8  N   UNL     1      -2.364  -0.020   0.241  0.00  0.00    -0.310 N 
ATOM      9  C   UNL     1       1.308  -0.750  -0.013  0.00  0.00    +0.105 C 
ATOM     10  C   UNL     1       2.457   0.209   0.126  0.00  0.00    +0.098 C 
ATOM     11  C   UNL     1       2.293   1.536  -0.087  0.00  0.00    +0.199 C 
ATOM     12  O   UNL     1       1.103   2.060  -0.430  0.00  0.00    -0.441 OA
ENDROOT
BRANCH   9  13
ATOM     13  C   UNL     1       1.440  -1.499  -1.314  0.00  0.00    -0.015 A 
ATOM     14  C   UNL     1       1.430  -0.809  -2.512  0.00  0.00    +0.006 A 
ATOM     15  C   UNL     1       1.556  -1.495  -3.706  0.00  0.00    +0.002 A 
ATOM     16  C   UNL     1       1.682  -2.872  -3.704  0.00  0.00    +0.021 A 
ATOM     17  C   UNL     1       1.686  -3.563  -2.506  0.00  0.00    +0.060 A 
ATOM     18  C   UNL     1       1.565  -2.876  -1.310  0.00  0.00    +0.063 A 
ATOM     19 CL   UNL     1       1.570  -3.744   0.194  0.00  0.00    -0.082 Cl
ATOM     20 CL   UNL     1       1.845  -5.292  -2.503  0.00  0.00    -0.082 Cl
ENDBRANCH   9  13
BRANCH  11  21
ATOM     21  N   UNL     1       3.373   2.371   0.051  0.00  0.00    -0.328 N 
ATOM     22  H   UNL     1       4.239   2.008   0.298  0.00  0.00    +0.145 HD
ATOM     23  H   UNL     1       3.272   3.324  -0.098  0.00  0.00    +0.145 HD
ENDBRANCH  11  21
BRANCH  10  24
ATOM     24  C   UNL     1       3.749  -0.290   0.490  0.00  0.00    +0.101 C 
ATOM     25  N   UNL     1       4.774  -0.685   0.779  0.00  0.00    -0.191 NA
ENDBRANCH  10  24
BRANCH   8  26
ATOM     26  C   UNL     1      -3.611  -0.751   0.479  0.00  0.00    +0.156 C 
BRANCH  26  27
ATOM     27  C   UNL     1      -3.836  -0.900   1.985  0.00  0.00    +0.138 C 
ATOM     28  C   UNL     1      -5.086  -1.768   2.245  0.00  0.00    +0.035 C 
ATOM     29  C   UNL     1      -5.740  -1.050   3.457  0.00  0.00    +0.031 C 
ATOM     30  C   UNL     1      -5.386   0.427   3.149  0.00  0.00    +0.160 C 
ATOM     31  O   UNL     1      -4.072   0.386   2.570  0.00  0.00    -0.375 OA
ENDBRANCH  26  27
ENDBRANCH   8  26
TORSDOF 5
