REMARK  Name = ZINC12554550
REMARK  5 active torsions:
REMARK  status: ('A' for Active; 'I' for Inactive)
REMARK    1  A    between atoms: C_1  and  N_2
REMARK    2  A    between atoms: C_3  and  C_5
REMARK    3  A    between atoms: N_8  and  C_16
REMARK    4  A    between atoms: C_16  and  C_17
REMARK    5  A    between atoms: N_19  and  C_20
REMARK                            x       y       z     vdW  Elec       q    Type
REMARK                         _______ _______ _______ _____ _____    ______ ____
ROOT
ATOM      1  C   UNL     1      -1.467   3.875   2.537  0.00  0.00    +0.276 C 
ATOM      2  C   UNL     1      -0.632   3.431   1.329  0.00  0.00    +0.160 C 
ATOM      3  N   UNL     1      -0.689   1.967   1.234  0.00  0.00    -0.314 N 
ATOM      4  C   UNL     1      -2.001   1.486   1.290  0.00  0.00    +0.073 A 
ATOM      5  C   UNL     1      -2.262   0.208   0.805  0.00  0.00    +0.027 A 
ATOM      6  C   UNL     1      -3.544  -0.304   0.849  0.00  0.00    +0.002 A 
ATOM      7  C   UNL     1      -4.575   0.453   1.375  0.00  0.00    +0.004 A 
ATOM      8  C   UNL     1      -4.324   1.723   1.856  0.00  0.00    +0.047 A 
ATOM      9  C   UNL     1      -3.039   2.245   1.814  0.00  0.00    +0.143 A 
ATOM     10  O   UNL     1      -2.827   3.502   2.293  0.00  0.00    -0.476 OA
ENDROOT
BRANCH   1  13
ATOM     11  C   UNL     1      -0.093   7.392   3.168  0.00  0.00    +0.128 C 
ATOM     12  N   UNL     1      -0.187   5.939   3.009  0.00  0.00    -0.315 N 
ATOM     13  C   UNL     1      -1.370   5.370   2.701  0.00  0.00    +0.255 C 
ATOM     14  O   UNL     1      -2.356   6.061   2.557  0.00  0.00    -0.272 OA
ATOM     15  H   UNL     1       0.601   5.386   3.124  0.00  0.00    +0.148 HD
ENDBRANCH   1  13
BRANCH   3  16
ATOM     16  C   UNL     1      -0.005   1.492   0.024  0.00  0.00    +0.201 C 
BRANCH  16  17
ATOM     17  C   UNL     1       1.487   1.586   0.220  0.00  0.00    +0.235 C 
ATOM     18  O   UNL     1       1.935   2.090   1.228  0.00  0.00    -0.274 OA
ATOM     19  N   UNL     1       2.322   1.110  -0.725  0.00  0.00    -0.283 N 
ATOM     20  H   UNL     1       1.967   0.780  -1.565  0.00  0.00    +0.155 HD
BRANCH  19  21
ATOM     21  C   UNL     1       3.702   1.091  -0.493  0.00  0.00    +0.047 A 
ATOM     22  C   UNL     1       4.189   1.056   0.807  0.00  0.00    +0.024 A 
ATOM     23  C   UNL     1       5.552   1.033   1.032  0.00  0.00    +0.002 A 
ATOM     24  C   UNL     1       6.431   1.055  -0.036  0.00  0.00    +0.001 A 
ATOM     25  C   UNL     1       5.950   1.096  -1.331  0.00  0.00    +0.016 A 
ATOM     26  C   UNL     1       4.588   1.114  -1.563  0.00  0.00    +0.035 A 
ATOM     27  I   UNL     1       3.859   1.176  -3.526  0.00  0.00    -0.042 I 
ENDBRANCH  19  21
ENDBRANCH  16  17
ENDBRANCH   3  16
TORSDOF 4
