REMARK  Name = ZINC35018752
REMARK  8 active torsions:
REMARK  status: ('A' for Active; 'I' for Inactive)
REMARK    1  A    between atoms: C_1  and  C_2
REMARK    2  A    between atoms: C_2  and  C_3
REMARK    3  A    between atoms: C_6  and  O_31
REMARK    4  A    between atoms: C_27  and  C_28
REMARK    5  A    between atoms: C_27  and  O_30
REMARK    6  A    between atoms: C_28  and  C_29
REMARK    7  A    between atoms: O_31  and  C_32
REMARK    8  A    between atoms: C_37  and  N_40
REMARK                            x       y       z     vdW  Elec       q    Type
REMARK                         _______ _______ _______ _____ _____    ______ ____
ROOT
ATOM      1  C   UNL     1       0.441  -1.383  -1.355  0.00  0.00    -0.032 A 
ATOM      2  C   UNL     1      -0.220  -1.691  -2.561  0.00  0.00    +0.007 A 
ATOM      3  C   UNL     1      -1.619  -1.668  -2.652  0.00  0.00    +0.056 A 
ATOM      4  C   UNL     1      -2.223  -1.964  -3.841  0.00  0.00    +0.134 A 
ATOM      5  C   UNL     1      -1.462  -2.290  -4.968  0.00  0.00    +0.048 A 
ATOM      6  C   UNL     1      -0.104  -2.325  -4.910  0.00  0.00    +0.032 A 
ATOM      7  C   UNL     1       0.553  -2.031  -3.700  0.00  0.00    +0.072 A 
ATOM      8  N   UNL     1       1.884  -2.073  -3.616  0.00  0.00    -0.245 NA
ATOM      9  C   UNL     1       2.518  -1.794  -2.489  0.00  0.00    +0.091 A 
ATOM     10  C   UNL     1       1.800  -1.425  -1.335  0.00  0.00    +0.001 A 
ATOM     11  C   UNL     1       2.807  -1.131  -0.248  0.00  0.00    +0.151 C 
ATOM     12  N   UNL     1       4.123  -1.289  -0.850  0.00  0.00    -0.265 N 
ATOM     13  C   UNL     1       3.954  -1.799  -2.151  0.00  0.00    +0.059 C 
ATOM     14  C   UNL     1       4.984  -2.191  -2.912  0.00  0.00    +0.006 C 
ATOM     15  C   UNL     1       6.355  -2.170  -2.298  0.00  0.00    +0.071 C 
ATOM     16  C   UNL     1       6.494  -1.022  -1.300  0.00  0.00    +0.123 C 
ATOM     17  C   UNL     1       5.343  -1.005  -0.336  0.00  0.00    +0.227 C 
ATOM     18  O   UNL     1       5.501  -0.768   0.843  0.00  0.00    -0.275 OA
ATOM     19  C   UNL     1       7.840  -1.136  -0.590  0.00  0.00    +0.245 C 
ATOM     20  O   UNL     1       8.878  -1.076  -1.581  0.00  0.00    -0.462 OA
ATOM     21  C   UNL     1       8.775  -1.932  -2.618  0.00  0.00    +0.340 C 
ATOM     22  O   UNL     1       9.719  -2.607  -2.954  0.00  0.00    -0.248 OA
ATOM     23  C   UNL     1       7.452  -2.007  -3.352  0.00  0.00    +0.169 C 
ENDROOT
BRANCH   1  25
ATOM     24  C   UNL     1      -0.553   0.505  -0.091  0.00  0.00    +0.009 C 
ATOM     25  C   UNL     1      -0.338  -1.010  -0.120  0.00  0.00    +0.033 C 
ENDBRANCH   1  25
BRANCH  23  26
ATOM     26  C   UNL     1       7.464  -3.221  -4.283  0.00  0.00    +0.043 C 
ATOM     27  C   UNL     1       7.583  -4.500  -3.451  0.00  0.00    +0.007 C 
ENDBRANCH  23  26
BRANCH  23  28
ATOM     28  O   UNL     1       7.227  -0.815  -4.108  0.00  0.00    -0.377 OA
ATOM     29  H   UNL     1       7.889  -0.653  -4.794  0.00  0.00    +0.211 HD
ENDBRANCH  23  28
BRANCH   4  30
ATOM     30  O   UNL     1      -3.579  -1.941  -3.930  0.00  0.00    -0.411 OA
BRANCH  30  31
ATOM     31  C   UNL     1      -4.218  -3.107  -4.147  0.00  0.00    +0.408 C 
ATOM     32  O   UNL     1      -3.580  -4.122  -4.345  0.00  0.00    -0.226 OA
ATOM     33  N   UNL     1      -5.565  -3.148  -4.144  0.00  0.00    -0.267 N 
ATOM     34  C   UNL     1      -6.351  -1.928  -3.912  0.00  0.00    +0.109 C 
ATOM     35  C   UNL     1      -7.333  -2.185  -2.764  0.00  0.00    +0.004 C 
ATOM     36  C   UNL     1      -8.174  -3.423  -3.086  0.00  0.00    -0.066 C 
ATOM     37  C   UNL     1      -7.259  -4.642  -3.220  0.00  0.00    +0.004 C 
ATOM     38  C   UNL     1      -6.276  -4.412  -4.378  0.00  0.00    +0.109 C 
BRANCH  36  39
ATOM     39  N   UNL     1      -9.140  -3.652  -2.003  0.00  0.00    +0.382 N 
ATOM     40  C   UNL     1      -9.940  -4.845  -2.308  0.00  0.00    -0.078 C 
ATOM     41  C   UNL     1     -10.892  -5.136  -1.145  0.00  0.00    -0.019 C 
ATOM     42  C   UNL     1     -11.820  -3.935  -0.940  0.00  0.00    -0.004 C 
ATOM     43  C   UNL     1     -10.972  -2.683  -0.697  0.00  0.00    -0.019 C 
ATOM     44  C   UNL     1     -10.017  -2.483  -1.875  0.00  0.00    -0.078 C 
ATOM     45  H   UNL     1      -8.644  -3.796  -1.136  0.00  0.00    -0.081 HD
ENDBRANCH  36  39
ENDBRANCH  30  31
ENDBRANCH   4  30
TORSDOF 6
