REMARK  Name = ZINC39677941
REMARK  9 active torsions:
REMARK  status: ('A' for Active; 'I' for Inactive)
REMARK    1  A    between atoms: C_4  and  C_7
REMARK    2  A    between atoms: C_7  and  C_8
REMARK    3  A    between atoms: C_8  and  C_9
REMARK    4  A    between atoms: C_9  and  C_10
REMARK    5  A    between atoms: C_14  and  C_23
REMARK    6  A    between atoms: N_25  and  C_26
REMARK    7  A    between atoms: C_26  and  C_27
REMARK    8  A    between atoms: N_30  and  C_34
REMARK    9  A    between atoms: C_34  and  C_35
REMARK                            x       y       z     vdW  Elec       q    Type
REMARK                         _______ _______ _______ _____ _____    ______ ____
ROOT
ATOM      1  C   UNL     1       5.932  -2.076   2.502  0.00  0.00    +0.216 C 
ATOM      2  O   UNL     1       5.173  -1.691   3.367  0.00  0.00    -0.276 OA
ATOM      3  N   UNL     1       7.089  -2.678   2.841  0.00  0.00    -0.300 N 
ATOM      4  C   UNL     1       8.137  -3.205   1.936  0.00  0.00    +0.121 C 
ATOM      5  C   UNL     1       9.470  -2.836   2.626  0.00  0.00    +0.100 C 
ATOM      6  C   UNL     1       9.112  -2.679   4.113  0.00  0.00    -0.004 C 
ATOM      7  C   UNL     1       7.604  -2.955   4.203  0.00  0.00    +0.115 C 
ATOM      8  C   UNL     1       9.411  -1.259   4.582  0.00  0.00    -0.010 C 
ATOM      9  C   UNL     1       9.100  -1.144   6.077  0.00  0.00    -0.082 C 
ATOM     10  N   UNL     1       9.916  -2.109   6.824  0.00  0.00    +0.379 N 
ATOM     11  C   UNL     1       9.557  -3.477   6.433  0.00  0.00    -0.082 C 
ATOM     12  C   UNL     1       9.886  -3.691   4.953  0.00  0.00    -0.010 C 
ATOM     13  H   UNL     1      10.892  -1.949   6.623  0.00  0.00    -0.086 HD
ATOM     14  H   UNL     1       9.755  -1.990   7.812  0.00  0.00    -0.086 HD
ENDROOT
BRANCH   5  15
ATOM     15  C   UNL     1      10.006  -1.540   2.073  0.00  0.00    +0.218 C 
ATOM     16  O   UNL     1       9.241  -0.693   1.663  0.00  0.00    -0.275 OA
ATOM     17  N   UNL     1      11.335  -1.323   2.035  0.00  0.00    -0.313 N 
ATOM     18  H   UNL     1      11.947  -2.000   2.364  0.00  0.00    +0.149 HD
BRANCH  17  19
ATOM     19  C   UNL     1      11.856  -0.063   1.498  0.00  0.00    +0.137 C 
BRANCH  19  20
ATOM     20  C   UNL     1      13.384  -0.071   1.570  0.00  0.00    +0.149 C 
ATOM     21  C   UNL     1      13.930   1.246   1.011  0.00  0.00    +0.118 C 
ATOM     22  N   UNL     1      15.393   1.264   1.153  0.00  0.00    -0.293 NA
ATOM     23  C   UNL     1      15.781   1.116   2.563  0.00  0.00    +0.113 C 
ATOM     24  C   UNL     1      15.218  -0.200   3.106  0.00  0.00    +0.175 C 
ATOM     25  O   UNL     1      13.798  -0.214   2.931  0.00  0.00    -0.372 OA
BRANCH  22  26
ATOM     26  C   UNL     1      15.962   2.489   0.576  0.00  0.00    +0.119 C 
BRANCH  26  27
ATOM     27  C   UNL     1      17.463   2.365   0.516  0.00  0.00    -0.033 A 
ATOM     28  C   UNL     1      18.234   2.781   1.586  0.00  0.00    +0.005 A 
ATOM     29  C   UNL     1      19.611   2.667   1.531  0.00  0.00    +0.000 A 
ATOM     30  C   UNL     1      20.216   2.138   0.406  0.00  0.00    +0.000 A 
ATOM     31  C   UNL     1      19.445   1.722  -0.663  0.00  0.00    +0.000 A 
ATOM     32  C   UNL     1      18.069   1.832  -0.606  0.00  0.00    +0.005 A 
ENDBRANCH  26  27
ENDBRANCH  22  26
ENDBRANCH  19  20
ENDBRANCH  17  19
ENDBRANCH   5  15
BRANCH   1  33
ATOM     33  C   UNL     1       5.580  -1.882   1.050  0.00  0.00    +0.096 C 
BRANCH  33  34
ATOM     34  C   UNL     1       4.225  -1.180   0.943  0.00  0.00    +0.014 C 
BRANCH  34  35
ATOM     35  C   UNL     1       3.868  -0.983  -0.532  0.00  0.00    +0.035 C 
BRANCH  35  39
ATOM     36  C   UNL     1       0.084   0.977  -0.834  0.00  0.00    +0.000 A 
ATOM     37  C   UNL     1       1.246   1.723  -0.775  0.00  0.00    +0.000 A 
ATOM     38  C   UNL     1       2.471   1.089  -0.677  0.00  0.00    +0.003 A 
ATOM     39  C   UNL     1       2.533  -0.291  -0.638  0.00  0.00    -0.047 A 
ATOM     40  C   UNL     1       1.371  -1.038  -0.696  0.00  0.00    +0.003 A 
ATOM     41  C   UNL     1       0.147  -0.404  -0.795  0.00  0.00    +0.000 A 
ENDBRANCH  35  39
ENDBRANCH  34  35
ENDBRANCH  33  34
ENDBRANCH   1  33
TORSDOF 9
