REMARK  Name = ZINC00997284
REMARK  3 active torsions:
REMARK  status: ('A' for Active; 'I' for Inactive)
REMARK    1  A    between atoms: C_7  and  C_15
REMARK    2  A    between atoms: N_17  and  C_18
REMARK    3  A    between atoms: C_19  and  C_29
REMARK                            x       y       z     vdW  Elec       q    Type
REMARK                         _______ _______ _______ _____ _____    ______ ____
ROOT
ATOM      1  C   UNL     1       0.002  -0.004   0.002  0.00  0.00    +0.230 C 
ATOM      2  O   UNL     1       1.060  -0.596  -0.011  0.00  0.00    -0.274 OA
ATOM      3  N   UNL     1      -0.016   1.344   0.009  0.00  0.00    -0.279 N 
ATOM      4  H   UNL     1      -0.863   1.817   0.016  0.00  0.00    +0.155 HD
ENDROOT
BRANCH   1  11
ATOM      5  C   UNL     1      -0.340  -4.200  -1.246  0.00  0.00    +0.001 A 
ATOM      6  C   UNL     1      -0.435  -4.962  -0.096  0.00  0.00    +0.004 A 
ATOM      7  C   UNL     1      -0.807  -4.372   1.095  0.00  0.00    +0.046 A 
ATOM      8  C   UNL     1      -1.087  -3.010   1.141  0.00  0.00    +0.133 A 
ATOM      9  C   UNL     1      -0.993  -2.250  -0.013  0.00  0.00    +0.011 A 
ATOM     10  C   UNL     1      -0.618  -2.847  -1.203  0.00  0.00    +0.008 A 
ATOM     11  C   UNL     1      -1.293  -0.775   0.010  0.00  0.00    +0.142 C 
ATOM     12  C   UNL     1      -2.076  -0.417   1.244  0.00  0.00    +0.011 A 
ATOM     13  C   UNL     1      -2.767   0.782   1.284  0.00  0.00    +0.008 A 
ATOM     14  C   UNL     1      -3.491   1.130   2.407  0.00  0.00    +0.001 A 
ATOM     15  C   UNL     1      -3.528   0.281   3.498  0.00  0.00    +0.004 A 
ATOM     16  C   UNL     1      -2.843  -0.914   3.463  0.00  0.00    +0.046 A 
ATOM     17  C   UNL     1      -2.114  -1.269   2.334  0.00  0.00    +0.133 A 
ATOM     18  O   UNL     1      -1.448  -2.449   2.320  0.00  0.00    -0.455 OA
ENDBRANCH   1  11
BRANCH   3  19
ATOM     19  C   UNL     1       1.175   2.053   0.002  0.00  0.00    +0.084 A 
ATOM     20  C   UNL     1       1.361   3.422   0.002  0.00  0.00    +0.068 A 
ATOM     21  C   UNL     1       2.736   3.938   0.011  0.00  0.00    -0.023 A 
ATOM     22  C   UNL     1       3.677   2.980  -0.033  0.00  0.00    -0.004 A 
ATOM     23  S   UNL     1       2.794   1.442  -0.018  0.00  0.00    -0.077 S 
ATOM     24  C   UNL     1       5.167   3.136  -0.156  0.00  0.00    +0.043 C 
ATOM     25  C   UNL     1       5.469   3.404  -1.641  0.00  0.00    +0.005 C 
ATOM     26  C   UNL     1       4.617   4.595  -2.096  0.00  0.00    +0.000 C 
ATOM     27  C   UNL     1       5.075   5.765  -1.251  0.00  0.00    +0.000 C 
ATOM     28  C   UNL     1       4.425   5.827   0.120  0.00  0.00    +0.005 C 
ATOM     29  C   UNL     1       2.949   5.450   0.081  0.00  0.00    +0.037 C 
BRANCH  20  30
ATOM     30  C   UNL     1       0.215   4.336  -0.004  0.00  0.00    +0.244 C 
ATOM     31  O   UNL     1      -0.265   4.717   1.047  0.00  0.00    -0.270 OA
ATOM     32  N   UNL     1      -0.307   4.755  -1.174  0.00  0.00    -0.325 N 
ATOM     33  H   UNL     1       0.076   4.452  -2.012  0.00  0.00    +0.145 HD
ATOM     34  H   UNL     1      -1.065   5.360  -1.178  0.00  0.00    +0.145 HD
ENDBRANCH  20  30
ENDBRANCH   3  19
TORSDOF 3
