REMARK  Name = ZINC48855724
REMARK  3 active torsions:
REMARK  status: ('A' for Active; 'I' for Inactive)
REMARK    1  A    between atoms: C_4  and  C_7
REMARK    2  A    between atoms: C_8  and  C_14
REMARK    3  A    between atoms: C_12  and  N_13
REMARK                            x       y       z     vdW  Elec       q    Type
REMARK                         _______ _______ _______ _____ _____    ______ ____
ROOT
ATOM      1  C   UNL     1       3.697  -0.687  -0.038  0.00  0.00    +0.049 A 
ATOM      2  C   UNL     1       4.190  -1.508  -1.086  0.00  0.00    +0.109 A 
ATOM      3  N   UNL     1       5.370  -1.966  -0.724  0.00  0.00    -0.171 NA
ATOM      4  N   UNL     1       5.678  -1.468   0.546  0.00  0.00    -0.263 N 
ATOM      5  H   UNL     1       6.490  -1.651   1.046  0.00  0.00    +0.190 HD
ATOM      6  C   UNL     1       4.653  -0.680   0.960  0.00  0.00    +0.120 A 
ENDROOT
BRANCH   2   7
ATOM      7  C   UNL     1       3.499  -1.798  -2.360  0.00  0.00    +0.041 A 
ATOM      8  C   UNL     1       4.043  -1.982  -3.587  0.00  0.00    +0.026 A 
ATOM      9  C   UNL     1       3.168  -2.260  -4.712  0.00  0.00    -0.010 A 
ATOM     10  C   UNL     1       3.514  -2.483  -6.067  0.00  0.00    +0.009 A 
ATOM     11  C   UNL     1       2.554  -2.732  -6.997  0.00  0.00    +0.001 A 
ATOM     12  C   UNL     1       1.208  -2.776  -6.657  0.00  0.00    +0.001 A 
ATOM     13  C   UNL     1       0.830  -2.565  -5.346  0.00  0.00    +0.015 A 
ATOM     14  C   UNL     1       1.793  -2.312  -4.393  0.00  0.00    +0.020 A 
ATOM     15  S   UNL     1       1.752  -1.999  -2.647  0.00  0.00    -0.087 S 
ENDBRANCH   2   7
BRANCH   1  19
ATOM     16  C   UNL     1      -0.017   1.379   0.010  0.00  0.00    +0.000 A 
ATOM     17  C   UNL     1       1.169   2.093   0.002  0.00  0.00    +0.001 A 
ATOM     18  C   UNL     1       2.377   1.428  -0.013  0.00  0.00    +0.009 A 
ATOM     19  C   UNL     1       2.403   0.033  -0.021  0.00  0.00    -0.012 A 
ATOM     20  C   UNL     1       1.205  -0.680  -0.013  0.00  0.00    +0.009 A 
ATOM     21  C   UNL     1       0.002  -0.004   0.002  0.00  0.00    +0.001 A 
ENDBRANCH   1  19
BRANCH   6  22
ATOM     22  N   UNL     1       4.577   0.005   2.165  0.00  0.00    -0.343 N 
ATOM     23  H   UNL     1       3.796   0.543   2.369  0.00  0.00    +0.144 HD
ATOM     24  H   UNL     1       5.305  -0.054   2.803  0.00  0.00    +0.144 HD
ENDBRANCH   6  22
TORSDOF 3
