REMARK  Name = ZINC28466511
REMARK  8 active torsions:
REMARK  status: ('A' for Active; 'I' for Inactive)
REMARK    1  A    between atoms: C_1  and  C_2
REMARK    2  A    between atoms: C_2  and  N_3
REMARK    3  A    between atoms: C_7  and  C_20
REMARK    4  A    between atoms: C_11  and  O_19
REMARK    5  A    between atoms: C_13  and  C_17
REMARK    6  A    between atoms: C_13  and  C_18
REMARK    7  A    between atoms: C_23  and  O_26
REMARK    8  A    between atoms: O_26  and  C_27
REMARK                            x       y       z     vdW  Elec       q    Type
REMARK                         _______ _______ _______ _____ _____    ______ ____
ROOT
ATOM      1  N   UNL     1       5.280  -0.479   0.283  0.00  0.00    -0.257 N 
ATOM      2  C   UNL     1       4.364   0.065  -0.539  0.00  0.00    +0.305 C 
ATOM      3  O   UNL     1       4.747   0.789  -1.438  0.00  0.00    -0.253 OA
ATOM      4  N   UNL     1       3.047  -0.155  -0.410  0.00  0.00    -0.292 N 
ATOM      5  C   UNL     1       2.504  -0.982   0.674  0.00  0.00    +0.119 C 
ATOM      6  C   UNL     1       3.477  -0.932   1.852  0.00  0.00    +0.130 C 
ATOM      7  C   UNL     1       4.855  -1.384   1.348  0.00  0.00    +0.148 C 
ATOM      8  C   UNL     1       5.829  -1.408   2.523  0.00  0.00    +0.062 C 
ATOM      9  C   UNL     1       5.378  -2.448   3.553  0.00  0.00    -0.024 C 
ATOM     10  C   UNL     1       4.002  -2.073   4.111  0.00  0.00    +0.081 C 
ATOM     11  C   UNL     1       3.041  -1.861   2.958  0.00  0.00    +0.143 C 
ATOM     12  O   UNL     1       1.968  -2.414   2.927  0.00  0.00    -0.297 OA
ATOM     13  C   UNL     1       6.391  -2.501   4.698  0.00  0.00    +0.011 C 
ATOM     14  C   UNL     1       5.296  -3.821   2.883  0.00  0.00    +0.011 C 
ATOM     15  H   UNL     1       2.369   0.303  -1.145  0.00  0.00    +0.151 HD
ENDROOT
BRANCH   5  16
ATOM     16  C   UNL     1       1.163  -0.444   1.100  0.00  0.00    -0.026 A 
ATOM     17  C   UNL     1       0.140  -1.316   1.425  0.00  0.00    +0.009 A 
ATOM     18  C   UNL     1      -1.090  -0.825   1.817  0.00  0.00    +0.046 A 
ATOM     19  C   UNL     1      -1.300   0.545   1.883  0.00  0.00    +0.127 A 
ATOM     20  C   UNL     1      -0.273   1.418   1.556  0.00  0.00    +0.046 A 
ATOM     21  C   UNL     1       0.956   0.922   1.165  0.00  0.00    +0.009 A 
BRANCH  19  22
ATOM     22  O   UNL     1      -2.511   1.030   2.262  0.00  0.00    -0.434 OA
BRANCH  22  23
ATOM     23  C   UNL     1      -2.655   2.451   2.308  0.00  0.00    +0.541 C 
ATOM     24  F   UNL     1      -1.735   2.984   3.217  0.00  0.00    -0.166 F 
ATOM     25  F   UNL     1      -2.417   2.985   1.037  0.00  0.00    -0.166 F 
ENDBRANCH  22  23
ENDBRANCH  19  22
ENDBRANCH   5  16
BRANCH   1  27
ATOM     26  C   UNL     1       7.334  -1.176  -0.846  0.00  0.00    +0.024 C 
ATOM     27  C   UNL     1       6.700  -0.164   0.111  0.00  0.00    +0.109 C 
ENDBRANCH   1  27
BRANCH   7  28
ATOM     28  O   UNL     1       4.752  -2.705   0.814  0.00  0.00    -0.371 OA
ATOM     29  H   UNL     1       4.443  -3.538   1.463  0.00  0.00    +0.212 HD
ENDBRANCH   7  28
TORSDOF 5
