REMARK  Name = ZINC59829747
REMARK  10 active torsions:
REMARK  status: ('A' for Active; 'I' for Inactive)
REMARK    1  A    between atoms: C_1  and  C_2
REMARK    2  A    between atoms: C_5  and  C_8
REMARK    3  A    between atoms: C_8  and  C_10
REMARK    4  A    between atoms: C_10  and  S_11
REMARK    5  A    between atoms: S_11  and  C_12
REMARK    6  A    between atoms: N_16  and  N_17
REMARK    7  A    between atoms: N_18  and  N_19
REMARK    8  A    between atoms: C_20  and  C_21
REMARK    9  A    between atoms: C_20  and  C_22
REMARK   10  A    between atoms: C_27  and  O_28
REMARK                            x       y       z     vdW  Elec       q    Type
REMARK                         _______ _______ _______ _____ _____    ______ ____
ROOT
ATOM      1  C   UNL     1       0.114  -7.527   2.537  0.00  0.00    +0.210 A 
ATOM      2  N   UNL     1       0.105  -6.888   3.683  0.00  0.00    -0.119 NA
ATOM      3  N   UNL     1       0.125  -7.841   4.710  0.00  0.00    -0.109 NA
ATOM      4  C   UNL     1       0.144  -9.030   4.159  0.00  0.00    +0.254 A 
ATOM      5  N   UNL     1       0.132  -8.868   2.801  0.00  0.00    -0.211 N 
ATOM      6  N   UNL     1       0.168 -10.242   4.835  0.00  0.00    -0.204 N 
ATOM      7  H   UNL     1       0.181 -11.075   4.337  0.00  0.00    +0.178 HD
ENDROOT
BRANCH   5   8
ATOM      8  N   UNL     1       0.141  -9.869   1.873  0.00  0.00    -0.294 N 
ATOM      9  H   UNL     1       1.085 -10.122   1.622  0.00  0.00    +0.163 HD
ATOM     10  H   UNL     1      -0.374 -10.672   2.202  0.00  0.00    +0.163 HD
ENDBRANCH   5   8
BRANCH   6  11
ATOM     11  N   UNL     1       0.172 -10.263   6.236  0.00  0.00    -0.184 NA
ATOM     12  C   UNL     1       0.194 -11.397   6.868  0.00  0.00    +0.067 C 
ATOM     13  C   UNL     1       0.215 -12.690   6.095  0.00  0.00    +0.068 C 
BRANCH  12  14
ATOM     14  C   UNL     1       0.199 -11.418   8.342  0.00  0.00    +0.039 A 
ATOM     15  C   UNL     1       0.229 -12.636   9.026  0.00  0.00    +0.013 A 
ATOM     16  C   UNL     1       0.233 -12.649  10.405  0.00  0.00    +0.001 A 
ATOM     17  C   UNL     1       0.207 -11.461  11.115  0.00  0.00    +0.004 A 
ATOM     18  C   UNL     1       0.178 -10.249  10.449  0.00  0.00    +0.046 A 
ATOM     19  C   UNL     1       0.179 -10.218   9.064  0.00  0.00    +0.126 A 
BRANCH  19  20
ATOM     20  O   UNL     1       0.156  -9.028   8.409  0.00  0.00    -0.506 OA
ATOM     21  H   UNL     1      -0.734  -8.699   8.222  0.00  0.00    +0.292 HD
ENDBRANCH  19  20
ENDBRANCH  12  14
ENDBRANCH   6  11
BRANCH   1  22
ATOM     22  S   UNL     1       0.096  -6.787   0.938  0.00  0.00    -0.076 S 
BRANCH  22  23
ATOM     23  C   UNL     1       0.075  -5.006   1.280  0.00  0.00    +0.157 C 
BRANCH  23  24
ATOM     24  C   UNL     1       0.058  -4.245  -0.021  0.00  0.00    +0.173 C 
ATOM     25  O   UNL     1       0.060  -4.846  -1.075  0.00  0.00    -0.291 OA
BRANCH  24  30
ATOM     26  C   UNL     1      -0.018   1.503   0.010  0.00  0.00    +0.044 C 
ATOM     27  C   UNL     1       0.002  -0.004   0.002  0.00  0.00    -0.050 A 
ATOM     28  C   UNL     1       0.006  -0.686  -1.202  0.00  0.00    +0.004 A 
ATOM     29  C   UNL     1       0.024  -2.064  -1.218  0.00  0.00    +0.011 A 
ATOM     30  C   UNL     1       0.039  -2.774  -0.013  0.00  0.00    +0.018 A 
ATOM     31  C   UNL     1       0.036  -2.078   1.200  0.00  0.00    +0.011 A 
ATOM     32  C   UNL     1       0.023  -0.699   1.199  0.00  0.00    +0.004 A 
ENDBRANCH  24  30
ENDBRANCH  23  24
ENDBRANCH  22  23
ENDBRANCH   1  22
TORSDOF 8
