REMARK  Name = ZINC04122622
REMARK  5 active torsions:
REMARK  status: ('A' for Active; 'I' for Inactive)
REMARK    1  A    between atoms: C_3  and  N_25
REMARK    2  A    between atoms: C_4  and  N_22
REMARK    3  A    between atoms: C_6  and  C_7
REMARK    4  A    between atoms: N_9  and  C_10
REMARK    5  A    between atoms: C_11  and  C_19
REMARK                            x       y       z     vdW  Elec       q    Type
REMARK                         _______ _______ _______ _____ _____    ______ ____
ROOT
ATOM      1  C   UNL     1      -1.252  -0.779  -0.008  0.00  0.00    +0.249 C 
ATOM      2  O   UNL     1      -2.318  -0.197  -0.074  0.00  0.00    -0.270 OA
ATOM      3  N   UNL     1      -1.223  -2.125   0.064  0.00  0.00    -0.275 N 
ATOM      4  H   UNL     1      -0.373  -2.589   0.117  0.00  0.00    +0.156 HD
ENDROOT
BRANCH   3   5
ATOM      5  C   UNL     1      -2.407  -2.845   0.064  0.00  0.00    +0.085 A 
ATOM      6  C   UNL     1      -2.580  -4.221   0.125  0.00  0.00    +0.068 A 
ATOM      7  C   UNL     1      -3.942  -4.727   0.112  0.00  0.00    -0.023 A 
ATOM      8  C   UNL     1      -4.905  -3.785   0.030  0.00  0.00    -0.004 A 
ATOM      9  S   UNL     1      -4.031  -2.246  -0.022  0.00  0.00    -0.077 S 
ATOM     10  C   UNL     1      -6.386  -4.007  -0.009  0.00  0.00    +0.043 C 
ATOM     11  C   UNL     1      -6.644  -5.489  -0.319  0.00  0.00    +0.005 C 
ATOM     12  C   UNL     1      -5.761  -6.345   0.594  0.00  0.00    +0.005 C 
ATOM     13  C   UNL     1      -4.296  -6.208   0.178  0.00  0.00    +0.037 C 
BRANCH   6  14
ATOM     14  C   UNL     1      -1.431  -5.128   0.204  0.00  0.00    +0.244 C 
ATOM     15  O   UNL     1      -0.987  -5.455   1.289  0.00  0.00    -0.270 OA
ATOM     16  N   UNL     1      -0.868  -5.602  -0.925  0.00  0.00    -0.325 N 
ATOM     17  H   UNL     1      -1.222  -5.342  -1.790  0.00  0.00    +0.145 HD
ATOM     18  H   UNL     1      -0.108  -6.202  -0.872  0.00  0.00    +0.145 HD
ENDBRANCH   6  14
ENDBRANCH   3   5
BRANCH   1  24
ATOM     19  C   UNL     1       1.233  -0.681   0.069  0.00  0.00    +0.015 A 
ATOM     20  C   UNL     1       2.408   0.037   0.070  0.00  0.00    +0.026 A 
ATOM     21  C   UNL     1       2.376   1.426  -0.004  0.00  0.00    +0.060 A 
ATOM     22  C   UNL     1       1.156   2.095  -0.080  0.00  0.00    +0.148 A 
ATOM     23  C   UNL     1      -0.021   1.383  -0.082  0.00  0.00    +0.047 A 
ATOM     24  C   UNL     1       0.008  -0.013  -0.007  0.00  0.00    +0.039 A 
BRANCH  21  25
ATOM     25  N   UNL     1       3.564   2.149  -0.003  0.00  0.00    -0.328 N 
ATOM     26  C   UNL     1       4.410   1.780   1.161  0.00  0.00    +0.105 C 
ATOM     27  C   UNL     1       5.825   2.240   0.730  0.00  0.00    +0.020 C 
ATOM     28  C   UNL     1       5.851   1.909  -0.779  0.00  0.00    +0.020 C 
ATOM     29  C   UNL     1       4.372   1.841  -1.202  0.00  0.00    +0.105 C 
ENDBRANCH  21  25
BRANCH  22  30
ATOM     30  N   UNL     1       1.127   3.572  -0.160  0.00  0.00    +0.058 N 
ATOM     31  O   UNL     1       0.062   4.163  -0.128  0.00  0.00    -0.126 OA
ATOM     32  O   UNL     1       2.167   4.198  -0.257  0.00  0.00    -0.126 OA
ENDBRANCH  22  30
ENDBRANCH   1  24
TORSDOF 5
