REMARK  Name = ZINC35453155
REMARK  3 active torsions:
REMARK  status: ('A' for Active; 'I' for Inactive)
REMARK    1  A    between atoms: C_2  and  N_9
REMARK    2  A    between atoms: N_9  and  C_10
REMARK    3  A    between atoms: C_15  and  N_16
REMARK                            x       y       z     vdW  Elec       q    Type
REMARK                         _______ _______ _______ _____ _____    ______ ____
ROOT
ATOM      1  C   UNL     1       2.364   4.200   0.107  0.00  0.00    +0.054 A 
ATOM      2  C   UNL     1       3.576   3.524   0.087  0.00  0.00    +0.052 A 
ATOM      3  C   UNL     1       4.762   4.233   0.185  0.00  0.00    +0.078 A 
ATOM      4  C   UNL     1       4.740   5.622   0.304  0.00  0.00    +0.144 A 
ATOM      5  C   UNL     1       3.532   6.296   0.323  0.00  0.00    +0.072 A 
ATOM      6  C   UNL     1       2.342   5.589   0.220  0.00  0.00    +0.050 A 
ATOM      7  O   UNL     1       5.914   6.303   0.401  0.00  0.00    -0.481 OA
ATOM      8  C   UNL     1       6.987   5.642   1.075  0.00  0.00    +0.325 C 
ATOM      9  C   UNL     1       7.104   4.225   0.574  0.00  0.00    +0.255 C 
ATOM     10  O   UNL     1       8.186   3.678   0.538  0.00  0.00    -0.272 OA
ATOM     11  N   UNL     1       5.998   3.566   0.165  0.00  0.00    -0.280 N 
ATOM     12  H   UNL     1       6.056   2.646  -0.137  0.00  0.00    +0.155 HD
ENDROOT
BRANCH   6  13
ATOM     13  N   UNL     1       1.118   6.272   0.234  0.00  0.00    -0.356 N 
ATOM     14  H   UNL     1       0.286   5.777   0.166  0.00  0.00    +0.142 HD
ATOM     15  H   UNL     1       1.103   7.238   0.312  0.00  0.00    +0.142 HD
ENDBRANCH   6  13
BRANCH   1  16
ATOM     16  N   UNL     1       1.161   3.485   0.009  0.00  0.00    -0.313 N 
ATOM     17  H   UNL     1       0.314   3.942   0.134  0.00  0.00    +0.152 HD
BRANCH  16  19
ATOM     18  C   UNL     1       2.053   1.615  -1.228  0.00  0.00    +0.061 A 
ATOM     19  C   UNL     1       1.182   2.117  -0.269  0.00  0.00    +0.037 A 
ATOM     20  C   UNL     1       0.333   1.255   0.414  0.00  0.00    +0.061 A 
ATOM     21  C   UNL     1       0.357  -0.100   0.138  0.00  0.00    +0.128 A 
ATOM     22  C   UNL     1       1.226  -0.598  -0.819  0.00  0.00    +0.076 A 
ATOM     23  C   UNL     1       2.073   0.259  -1.501  0.00  0.00    +0.128 A 
ATOM     24  F   UNL     1       2.919  -0.229  -2.434  0.00  0.00    -0.205 F 
ATOM     25  F   UNL     1      -0.469  -0.939   0.801  0.00  0.00    -0.205 F 
ENDBRANCH  16  19
ENDBRANCH   1  16
TORSDOF 3
