REMARK  Name = ZINC00792629
REMARK  7 active torsions:
REMARK  status: ('A' for Active; 'I' for Inactive)
REMARK    1  A    between atoms: C_1  and  C_2
REMARK    2  A    between atoms: N_5  and  C_7
REMARK    3  A    between atoms: C_14  and  N_28
REMARK    4  A    between atoms: C_15  and  C_26
REMARK    5  A    between atoms: C_16  and  C_18
REMARK    6  A    between atoms: C_21  and  O_24
REMARK    7  A    between atoms: O_24  and  C_25
REMARK                            x       y       z     vdW  Elec       q    Type
REMARK                         _______ _______ _______ _____ _____    ______ ____
ROOT
ATOM      1  C   UNL     1      -1.692   4.665   0.042  0.00  0.00    +0.068 C 
ATOM      2  C   UNL     1      -0.780   3.466   0.028  0.00  0.00    +0.068 A 
ATOM      3  C   UNL     1       0.608   3.498   0.015  0.00  0.00    +0.050 A 
ATOM      4  C   UNL     1       1.063   2.209   0.004  0.00  0.00    +0.230 A 
ATOM      5  N   UNL     1      -0.017   1.397   0.010  0.00  0.00    -0.200 N 
ATOM      6  N   UNL     1      -1.162   2.210   0.019  0.00  0.00    -0.168 NA
ATOM      7  O   UNL     1       2.382   1.897  -0.013  0.00  0.00    -0.423 OA
ATOM      8  C   UNL     1       3.254   2.887  -0.294  0.00  0.00    +0.200 C 
ATOM      9  C   UNL     1       2.926   4.198  -0.301  0.00  0.00    +0.098 C 
ATOM     10  C   UNL     1       1.535   4.687   0.015  0.00  0.00    +0.101 C 
ENDROOT
BRANCH   5  11
ATOM     11  C   UNL     1       0.002  -0.004   0.002  0.00  0.00    +0.069 A 
ATOM     12  C   UNL     1       0.986  -0.682  -0.705  0.00  0.00    +0.028 A 
ATOM     13  C   UNL     1       1.006  -2.064  -0.706  0.00  0.00    +0.002 A 
ATOM     14  C   UNL     1       0.040  -2.771  -0.013  0.00  0.00    +0.000 A 
ATOM     15  C   UNL     1      -0.945  -2.098   0.687  0.00  0.00    +0.002 A 
ATOM     16  C   UNL     1      -0.966  -0.717   0.697  0.00  0.00    +0.028 A 
ENDBRANCH   5  11
BRANCH  10  17
ATOM     17  C   UNL     1       1.522   5.343   1.371  0.00  0.00    -0.034 A 
ATOM     18  C   UNL     1       1.900   4.623   2.490  0.00  0.00    +0.008 A 
ATOM     19  C   UNL     1       1.894   5.224   3.733  0.00  0.00    +0.046 A 
ATOM     20  C   UNL     1       1.497   6.547   3.861  0.00  0.00    +0.120 A 
ATOM     21  C   UNL     1       1.112   7.266   2.738  0.00  0.00    +0.046 A 
ATOM     22  C   UNL     1       1.126   6.662   1.496  0.00  0.00    +0.008 A 
BRANCH  20  23
ATOM     23  O   UNL     1       1.484   7.139   5.085  0.00  0.00    -0.495 OA
ATOM     24  C   UNL     1       1.893   6.339   6.196  0.00  0.00    +0.277 C 
ENDBRANCH  20  23
ENDBRANCH  10  17
BRANCH   8  25
ATOM     25  N   UNL     1       4.550   2.543  -0.591  0.00  0.00    -0.328 N 
ATOM     26  H   UNL     1       5.199   3.233  -0.797  0.00  0.00    +0.145 HD
ATOM     27  H   UNL     1       4.815   1.610  -0.594  0.00  0.00    +0.145 HD
ENDBRANCH   8  25
BRANCH   9  28
ATOM     28  C   UNL     1       3.939   5.160  -0.620  0.00  0.00    +0.101 C 
ATOM     29  N   UNL     1       4.742   5.923  -0.872  0.00  0.00    -0.191 NA
ENDBRANCH   9  28
TORSDOF 5
