REMARK  Name = ZINC39742766
REMARK  12 active torsions:
REMARK  status: ('A' for Active; 'I' for Inactive)
REMARK    1  A    between atoms: C_1  and  C_2
REMARK    2  A    between atoms: C_2  and  C_4
REMARK    3  A    between atoms: C_2  and  N_25
REMARK    4  A    between atoms: C_7  and  S_10
REMARK    5  A    between atoms: N_8  and  C_9
REMARK    6  A    between atoms: S_10  and  C_11
REMARK    7  A    between atoms: C_11  and  C_12
REMARK    8  A    between atoms: C_12  and  C_14
REMARK    9  A    between atoms: C_17  and  O_23
REMARK   10  A    between atoms: C_18  and  N_20
REMARK   11  A    between atoms: O_23  and  C_24
REMARK   12  A    between atoms: C_26  and  C_28
REMARK                            x       y       z     vdW  Elec       q    Type
REMARK                         _______ _______ _______ _____ _____    ______ ____
ROOT
ATOM      1  C   UNL     1       0.707  -0.490  -1.238  0.00  0.00    +0.154 A 
ATOM      2  N   UNL     1       1.993  -0.478  -1.450  0.00  0.00    -0.132 NA
ATOM      3  N   UNL     1       2.254  -0.966  -2.610  0.00  0.00    -0.122 NA
ATOM      4  C   UNL     1       1.139  -1.319  -3.206  0.00  0.00    +0.192 A 
ATOM      5  N   UNL     1       0.117  -1.031  -2.347  0.00  0.00    -0.308 N 
ATOM      6  C   UNL     1      -1.314  -1.252  -2.568  0.00  0.00    +0.152 C 
ENDROOT
BRANCH   1   8
ATOM      7  C   UNL     1      -0.019   1.526   0.010  0.00  0.00    +0.036 C 
ATOM      8  C   UNL     1       0.002  -0.004   0.002  0.00  0.00    +0.138 C 
BRANCH   8   9
ATOM      9  N   UNL     1       0.711  -0.489   1.189  0.00  0.00    -0.302 N 
ATOM     10  C   UNL     1       0.051  -0.633   2.355  0.00  0.00    +0.245 C 
ATOM     11  O   UNL     1      -1.131  -0.361   2.423  0.00  0.00    -0.270 OA
ATOM     12  H   UNL     1       1.654  -0.707   1.135  0.00  0.00    +0.150 HD
BRANCH  10  13
ATOM     13  C   UNL     1       0.766  -1.123   3.553  0.00  0.00    +0.037 A 
ATOM     14  C   UNL     1       2.126  -1.432   3.480  0.00  0.00    +0.014 A 
ATOM     15  C   UNL     1       2.787  -1.887   4.601  0.00  0.00    +0.021 A 
ATOM     16  C   UNL     1       2.106  -2.040   5.797  0.00  0.00    +0.041 A 
ATOM     17  C   UNL     1       0.757  -1.736   5.875  0.00  0.00    +0.021 A 
ATOM     18  C   UNL     1       0.086  -1.273   4.763  0.00  0.00    +0.014 A 
ATOM     19 CL   UNL     1       2.945  -2.616   7.203  0.00  0.00    -0.084 Cl
ENDBRANCH  10  13
ENDBRANCH   8   9
ENDBRANCH   1   8
BRANCH   4  20
ATOM     20  S   UNL     1       0.989  -2.035  -4.809  0.00  0.00    -0.078 S 
BRANCH  20  21
ATOM     21  C   UNL     1       2.700  -2.155  -5.398  0.00  0.00    +0.157 C 
BRANCH  21  22
ATOM     22  C   UNL     1       2.715  -2.760  -6.778  0.00  0.00    +0.173 C 
ATOM     23  O   UNL     1       1.674  -3.079  -7.312  0.00  0.00    -0.291 OA
BRANCH  22  24
ATOM     24  C   UNL     1       3.991  -2.963  -7.477  0.00  0.00    +0.021 A 
ATOM     25  C   UNL     1       5.195  -2.601  -6.860  0.00  0.00    +0.015 A 
ATOM     26  C   UNL     1       6.380  -2.790  -7.512  0.00  0.00    +0.048 A 
ATOM     27  C   UNL     1       6.397  -3.343  -8.789  0.00  0.00    +0.150 A 
ATOM     28  C   UNL     1       5.207  -3.706  -9.410  0.00  0.00    +0.168 A 
ATOM     29  C   UNL     1       4.008  -3.525  -8.759  0.00  0.00    +0.047 A 
BRANCH  28  30
ATOM     30  N   UNL     1       5.231  -4.293 -10.768  0.00  0.00    +0.060 N 
ATOM     31  O   UNL     1       4.196  -4.609 -11.309  0.00  0.00    -0.126 OA
ATOM     32  O   UNL     1       6.285  -4.457 -11.338  0.00  0.00    -0.126 OA
ENDBRANCH  28  30
BRANCH  27  33
ATOM     33  O   UNL     1       7.578  -3.528  -9.429  0.00  0.00    -0.493 OA
ATOM     34  C   UNL     1       8.762  -3.132  -8.734  0.00  0.00    +0.277 C 
ENDBRANCH  27  33
ENDBRANCH  22  24
ENDBRANCH  21  22
ENDBRANCH  20  21
ENDBRANCH   4  20
TORSDOF 9
