REMARK  Name = ZINC03885840
REMARK  4 active torsions:
REMARK  status: ('A' for Active; 'I' for Inactive)
REMARK    1  A    between atoms: C_3  and  C_9
REMARK    2  A    between atoms: C_13  and  C_21
REMARK    3  A    between atoms: C_14  and  N_15
REMARK    4  A    between atoms: N_22  and  N_23
REMARK                            x       y       z     vdW  Elec       q    Type
REMARK                         _______ _______ _______ _____ _____    ______ ____
ROOT
ATOM      1  C   UNL     1      -0.515   1.463   2.534  0.00  0.00    +0.014 C 
ATOM      2  C   UNL     1      -0.956   1.380   1.261  0.00  0.00    -0.025 C 
ATOM      3  C   UNL     1      -0.361   0.523   0.166  0.00  0.00    +0.042 C 
ATOM      4  C   UNL     1      -1.234   0.803  -1.069  0.00  0.00    +0.043 C 
ATOM      5  C   UNL     1      -2.275   1.798  -0.617  0.00  0.00    -0.006 C 
ATOM      6  C   UNL     1      -2.092   2.099   0.691  0.00  0.00    +0.038 C 
ENDROOT
BRANCH   1   9
ATOM      7  C   UNL     1       2.997   0.151   2.444  0.00  0.00    +0.020 A 
ATOM      8  C   UNL     1       1.831   0.784   2.066  0.00  0.00    +0.011 A 
ATOM      9  C   UNL     1       0.730   0.785   2.927  0.00  0.00    -0.006 A 
ATOM     10  C   UNL     1       0.816   0.133   4.163  0.00  0.00    +0.049 A 
ATOM     11  C   UNL     1       1.987  -0.500   4.525  0.00  0.00    +0.040 A 
ATOM     12  C   UNL     1       3.075  -0.492   3.668  0.00  0.00    +0.042 A 
ATOM     13 CL   UNL     1       4.545  -1.292   4.131  0.00  0.00    -0.083 Cl
ATOM     14 CL   UNL     1      -0.548   0.121   5.238  0.00  0.00    -0.083 Cl
ENDBRANCH   1   9
BRANCH   6  15
ATOM     15  N   UNL     1      -2.891   2.989   1.407  0.00  0.00    -0.325 N 
ATOM     16  C   UNL     1      -4.316   2.707   1.643  0.00  0.00    +0.133 C 
ATOM     17  C   UNL     1      -4.596   2.879   3.144  0.00  0.00    +0.178 C 
ATOM     18  O   UNL     1      -4.126   4.162   3.565  0.00  0.00    -0.377 OA
ATOM     19  C   UNL     1      -2.714   4.342   3.426  0.00  0.00    +0.178 C 
ATOM     20  C   UNL     1      -2.336   4.242   1.944  0.00  0.00    +0.133 C 
ENDBRANCH   6  15
BRANCH   5  21
ATOM     21  C   UNL     1      -3.291   2.335  -1.437  0.00  0.00    +0.135 C 
ATOM     22  N   UNL     1      -3.320   2.052  -2.710  0.00  0.00    -0.198 NA
BRANCH  22  23
ATOM     23  N   UNL     1      -4.328   2.585  -3.524  0.00  0.00    -0.283 N 
ATOM     24  H   UNL     1      -5.004   3.166  -3.141  0.00  0.00    +0.164 HD
ATOM     25  H   UNL     1      -4.350   2.374  -4.470  0.00  0.00    +0.164 HD
ENDBRANCH  22  23
ENDBRANCH   5  21
TORSDOF 4
