REMARK  Name = ZINC25260629
REMARK  10 active torsions:
REMARK  status: ('A' for Active; 'I' for Inactive)
REMARK    1  A    between atoms: C_1  and  C_2
REMARK    2  A    between atoms: C_2  and  C_4
REMARK    3  A    between atoms: C_2  and  N_26
REMARK    4  A    between atoms: N_6  and  N_7
REMARK    5  A    between atoms: C_8  and  C_10
REMARK    6  A    between atoms: C_10  and  O_11
REMARK    7  A    between atoms: O_11  and  C_12
REMARK    8  A    between atoms: C_15  and  C_18
REMARK    9  A    between atoms: C_21  and  C_24
REMARK   10  A    between atoms: C_27  and  C_29
REMARK                            x       y       z     vdW  Elec       q    Type
REMARK                         _______ _______ _______ _____ _____    ______ ____
ROOT
ATOM      1  N   UNL     1       3.540   1.784  -1.033  0.00  0.00    -0.232 N 
ATOM      2  C   UNL     1       4.364   1.475  -2.054  0.00  0.00    +0.267 C 
ATOM      3  O   UNL     1       3.969   0.777  -2.963  0.00  0.00    -0.271 OA
ATOM      4  H   UNL     1       3.899   2.416  -0.208  0.00  0.00    +0.173 HD
ENDROOT
BRANCH   1   7
ATOM      5  C   UNL     1       1.401   1.607  -0.003  0.00  0.00    +0.249 C 
ATOM      6  O   UNL     1       1.797   2.305   0.907  0.00  0.00    -0.272 OA
ATOM      7  N   UNL     1       2.226   1.299  -1.023  0.00  0.00    -0.233 N 
ATOM      8  H   UNL     1       1.867   0.666  -1.848  0.00  0.00    +0.173 HD
BRANCH   5  10
ATOM      9  C   UNL     1      -0.753   1.593  -1.232  0.00  0.00    +0.038 C 
ATOM     10  C   UNL     1      -0.013   1.086   0.008  0.00  0.00    +0.158 C 
BRANCH  10  11
ATOM     11  N   UNL     1      -0.698   1.558   1.213  0.00  0.00    -0.298 N 
ATOM     12  C   UNL     1      -1.741   0.865   1.711  0.00  0.00    +0.280 C 
ATOM     13  O   UNL     1      -2.113  -0.154   1.159  0.00  0.00    -0.267 OA
ATOM     14  H   UNL     1      -0.362   2.479   1.712  0.00  0.00    +0.150 HD
BRANCH  12  15
ATOM     15  C   UNL     1      -2.428   1.337   2.918  0.00  0.00    +0.189 A 
ATOM     16  C   UNL     1      -3.492   0.734   3.524  0.00  0.00    +0.054 A 
ATOM     17  C   UNL     1      -3.822   1.522   4.637  0.00  0.00    +0.042 A 
ATOM     18  C   UNL     1      -2.957   2.560   4.661  0.00  0.00    +0.196 A 
ATOM     19  O   UNL     1      -2.115   2.442   3.626  0.00  0.00    -0.458 OA
ENDBRANCH  12  15
ENDBRANCH  10  11
ENDBRANCH   5  10
ENDBRANCH   1   7
BRANCH   2  20
ATOM     20  C   UNL     1       5.778   1.996  -2.064  0.00  0.00    +0.326 C 
BRANCH  20  21
ATOM     21  O   UNL     1       6.447   1.536  -3.240  0.00  0.00    -0.483 OA
BRANCH  21  22
ATOM     22  C   UNL     1       7.740   1.919  -3.404  0.00  0.00    +0.121 A 
ATOM     23  C   UNL     1       8.349   2.728  -2.454  0.00  0.00    +0.046 A 
ATOM     24  C   UNL     1       9.662   3.115  -2.615  0.00  0.00    +0.012 A 
ATOM     25  C   UNL     1      10.376   2.702  -3.740  0.00  0.00    -0.018 A 
ATOM     26  C   UNL     1       9.760   1.894  -4.696  0.00  0.00    +0.012 A 
ATOM     27  C   UNL     1       8.448   1.506  -4.525  0.00  0.00    +0.046 A 
BRANCH  25  28
ATOM     28  C   UNL     1      11.786   3.122  -3.921  0.00  0.00    -0.018 A 
ATOM     29  C   UNL     1      12.500   2.703  -5.044  0.00  0.00    +0.010 A 
ATOM     30  C   UNL     1      13.807   3.097  -5.215  0.00  0.00    +0.019 A 
ATOM     31  C   UNL     1      14.424   3.906  -4.257  0.00  0.00    +0.052 A 
ATOM     32  C   UNL     1      13.710   4.320  -3.129  0.00  0.00    +0.019 A 
ATOM     33  C   UNL     1      12.400   3.930  -2.963  0.00  0.00    +0.010 A 
BRANCH  31  34
ATOM     34  C   UNL     1      15.787   4.311  -4.431  0.00  0.00    +0.099 C 
ATOM     35  N   UNL     1      16.868   4.632  -4.569  0.00  0.00    -0.191 NA
ENDBRANCH  31  34
ENDBRANCH  25  28
ENDBRANCH  21  22
ENDBRANCH  20  21
ENDBRANCH   2  20
TORSDOF 9
