REMARK  Name = ZINC01795871
REMARK  6 active torsions:
REMARK  status: ('A' for Active; 'I' for Inactive)
REMARK    1  A    between atoms: C_8  and  S_10
REMARK    2  A    between atoms: S_10  and  C_11
REMARK    3  A    between atoms: C_13  and  N_18
REMARK    4  A    between atoms: C_16  and  O_17
REMARK    5  A    between atoms: N_18  and  S_19
REMARK    6  A    between atoms: S_19  and  C_22
REMARK                            x       y       z     vdW  Elec       q    Type
REMARK                         _______ _______ _______ _____ _____    ______ ____
ROOT
ATOM      1  C   UNL     1       3.335   7.357  -0.028  0.00  0.00    +0.058 A 
ATOM      2  C   UNL     1       3.885   6.088  -0.134  0.00  0.00    +0.043 A 
ATOM      3  C   UNL     1       5.263   5.933  -0.183  0.00  0.00    +0.049 A 
ATOM      4  C   UNL     1       6.090   7.046  -0.114  0.00  0.00    +0.028 A 
ATOM      5  C   UNL     1       5.543   8.310  -0.002  0.00  0.00    +0.048 A 
ATOM      6  C   UNL     1       4.169   8.471   0.042  0.00  0.00    +0.131 A 
ENDROOT
BRANCH   6   7
ATOM      7  O   UNL     1       3.632   9.717   0.151  0.00  0.00    -0.506 OA
ATOM      8  H   UNL     1       3.497  10.008   1.063  0.00  0.00    +0.292 HD
ENDBRANCH   6   7
BRANCH   3   9
ATOM      9  N   UNL     1       5.819   4.654  -0.297  0.00  0.00    -0.216 N 
ATOM     10  H   UNL     1       5.454   4.021  -0.935  0.00  0.00    +0.174 HD
BRANCH   9  11
ATOM     11  S   UNL     1       7.101   4.220   0.657  0.00  0.00    +0.079 S 
ATOM     12  O   UNL     1       7.415   2.874   0.329  0.00  0.00    -0.149 OA
ATOM     13  O   UNL     1       8.054   5.270   0.559  0.00  0.00    -0.149 OA
BRANCH  11  14
ATOM     14  C   UNL     1       6.530   4.213   2.324  0.00  0.00    +0.146 A 
ATOM     15  C   UNL     1       5.984   3.196   3.035  0.00  0.00    +0.036 A 
ATOM     16  C   UNL     1       5.605   3.422   4.345  0.00  0.00    +0.010 A 
ATOM     17  C   UNL     1       5.792   4.653   4.881  0.00  0.00    +0.047 A 
ATOM     18  S   UNL     1       6.529   5.540   3.518  0.00  0.00    -0.077 S 
ENDBRANCH  11  14
ENDBRANCH   9  11
ENDBRANCH   3   9
BRANCH   1  19
ATOM     19  S   UNL     1       1.585   7.559   0.028  0.00  0.00    -0.059 S 
BRANCH  19  27
ATOM     20  C   UNL     1      -0.954   9.829  -5.440  0.00  0.00    +0.002 A 
ATOM     21  C   UNL     1       0.247   9.768  -6.130  0.00  0.00    +0.001 A 
ATOM     22  C   UNL     1       1.380   9.313  -5.480  0.00  0.00    +0.017 A 
ATOM     23  C   UNL     1       1.297   8.924  -4.167  0.00  0.00    +0.040 A 
ATOM     24  C   UNL     1       0.089   8.967  -3.433  0.00  0.00    +0.079 A 
ATOM     25  C   UNL     1      -1.048   9.437  -4.130  0.00  0.00    +0.029 A 
ATOM     26  N   UNL     1       0.168   8.552  -2.151  0.00  0.00    -0.232 NA
ATOM     27  C   UNL     1       1.292   8.133  -1.612  0.00  0.00    +0.140 A 
ATOM     28  S   UNL     1       2.446   8.295  -2.967  0.00  0.00    -0.061 S 
ENDBRANCH  19  27
ENDBRANCH   1  19
TORSDOF 6
