REMARK  Name = ZINC00058310
REMARK  5 active torsions:
REMARK  status: ('A' for Active; 'I' for Inactive)
REMARK    1  A    between atoms: C_6  and  C_7
REMARK    2  A    between atoms: C_8  and  C_17
REMARK    3  A    between atoms: C_9  and  N_16
REMARK    4  A    between atoms: C_11  and  N_15
REMARK    5  A    between atoms: C_12  and  C_13
REMARK                            x       y       z     vdW  Elec       q    Type
REMARK                         _______ _______ _______ _____ _____    ______ ____
ROOT
ATOM      1  C   UNL     1       1.148   3.593   0.010  0.00  0.00    +0.104 C 
ATOM      2  C   UNL     1       1.793   4.086  -1.239  0.00  0.00    +0.069 C 
ATOM      3  C   UNL     1       3.070   4.480  -1.359  0.00  0.00    +0.079 C 
ATOM      4  S   UNL     1       4.201   4.484  -0.017  0.00  0.00    -0.058 S 
ATOM      5  C   UNL     1       3.099   4.465   1.348  0.00  0.00    +0.079 C 
ATOM      6  C   UNL     1       1.817   4.073   1.252  0.00  0.00    +0.069 C 
ENDROOT
BRANCH   1  12
ATOM      7  C   UNL     1      -0.017   1.378   0.010  0.00  0.00    +0.006 A 
ATOM      8  C   UNL     1       0.002  -0.004   0.002  0.00  0.00    +0.022 A 
ATOM      9  C   UNL     1       1.209  -0.679  -0.013  0.00  0.00    +0.059 A 
ATOM     10  C   UNL     1       2.398   0.030  -0.021  0.00  0.00    +0.060 A 
ATOM     11  C   UNL     1       2.378   1.413  -0.013  0.00  0.00    +0.026 A 
ATOM     12  C   UNL     1       1.170   2.086   0.002  0.00  0.00    -0.033 A 
ATOM     13 CL   UNL     1       3.914  -0.816  -0.040  0.00  0.00    -0.082 Cl
ATOM     14 CL   UNL     1       1.233  -2.415  -0.023  0.00  0.00    -0.082 Cl
ENDBRANCH   1  12
BRANCH   5  15
ATOM     15  N   UNL     1       3.569   4.871   2.574  0.00  0.00    -0.352 N 
ATOM     16  H   UNL     1       2.900   4.870   3.448  0.00  0.00    +0.143 HD
ATOM     17  H   UNL     1       4.614   5.197   2.682  0.00  0.00    +0.143 HD
ENDBRANCH   5  15
BRANCH   3  18
ATOM     18  N   UNL     1       3.514   4.900  -2.590  0.00  0.00    -0.352 N 
ATOM     19  H   UNL     1       4.556   5.228  -2.716  0.00  0.00    +0.143 HD
ATOM     20  H   UNL     1       2.827   4.907  -3.450  0.00  0.00    +0.143 HD
ENDBRANCH   3  18
BRANCH   6  21
ATOM     21  C   UNL     1       1.026   4.119   2.446  0.00  0.00    +0.098 C 
ATOM     22  N   UNL     1       0.400   4.156   3.393  0.00  0.00    -0.191 NA
ENDBRANCH   6  21
BRANCH   2  23
ATOM     23  C   UNL     1       0.980   4.145  -2.417  0.00  0.00    +0.098 C 
ATOM     24  N   UNL     1       0.335   4.192  -3.351  0.00  0.00    -0.191 NA
ENDBRANCH   2  23
TORSDOF 5
