REMARK  Name = ZINC63194279
REMARK  7 active torsions:
REMARK  status: ('A' for Active; 'I' for Inactive)
REMARK    1  A    between atoms: C_1  and  C_2
REMARK    2  A    between atoms: N_7  and  S_9
REMARK    3  A    between atoms: S_9  and  C_12
REMARK    4  A    between atoms: C_16  and  C_18
REMARK    5  A    between atoms: N_20  and  N_21
REMARK    6  A    between atoms: C_22  and  C_24
REMARK    7  A    between atoms: C_24  and  C_25
REMARK                            x       y       z     vdW  Elec       q    Type
REMARK                         _______ _______ _______ _____ _____    ______ ____
ROOT
ATOM      1  C   UNL     1       4.837  -1.807  -2.811  0.00  0.00    +0.260 C 
ATOM      2  O   UNL     1       5.250  -0.819  -2.236  0.00  0.00    -0.269 OA
ATOM      3  N   UNL     1       5.254  -2.083  -4.063  0.00  0.00    -0.230 N 
ATOM      4  H   UNL     1       4.924  -2.872  -4.521  0.00  0.00    +0.173 HD
ENDROOT
BRANCH   1   9
ATOM      5  C   UNL     1       2.547  -3.268  -0.217  0.00  0.00    +0.106 A 
ATOM      6  C   UNL     1       2.078  -4.392  -0.874  0.00  0.00    +0.028 A 
ATOM      7  C   UNL     1       2.503  -4.677  -2.159  0.00  0.00    +0.003 A 
ATOM      8  C   UNL     1       3.399  -3.842  -2.794  0.00  0.00    +0.013 A 
ATOM      9  C   UNL     1       3.876  -2.707  -2.137  0.00  0.00    +0.040 A 
ATOM     10  C   UNL     1       3.438  -2.421  -0.843  0.00  0.00    +0.041 A 
BRANCH   5  11
ATOM     11  S   UNL     1       1.999  -2.914   1.419  0.00  0.00    +0.061 S 
ATOM     12  O   UNL     1       2.998  -2.098   2.015  0.00  0.00    -0.153 OA
ATOM     13  O   UNL     1       1.587  -4.150   1.986  0.00  0.00    -0.153 OA
BRANCH  11  19
ATOM     14  C   UNL     1      -0.019   1.526   0.010  0.00  0.00    +0.009 C 
ATOM     15  C   UNL     1       0.002  -0.004   0.002  0.00  0.00    +0.002 C 
ATOM     16  C   UNL     1      -1.433  -0.534   0.015  0.00  0.00    +0.006 C 
ATOM     17  C   UNL     1      -1.414  -2.064  -0.027  0.00  0.00    +0.017 C 
ATOM     18  C   UNL     1      -0.692  -2.596   1.215  0.00  0.00    +0.109 C 
ATOM     19  N   UNL     1       0.639  -1.977   1.288  0.00  0.00    -0.176 NA
ATOM     20  C   UNL     1       0.742  -0.512   1.244  0.00  0.00    +0.112 C 
ENDBRANCH  11  19
ENDBRANCH   5  11
ENDBRANCH   1   9
BRANCH   3  21
ATOM     21  N   UNL     1       6.164  -1.231  -4.701  0.00  0.00    -0.234 N 
ATOM     22  C   UNL     1       6.581  -1.506  -5.953  0.00  0.00    +0.233 C 
ATOM     23  O   UNL     1       6.169  -2.492  -6.526  0.00  0.00    -0.274 OA
ATOM     24  H   UNL     1       6.494  -0.442  -4.243  0.00  0.00    +0.173 HD
BRANCH  22  25
ATOM     25  C   UNL     1       7.561  -0.590  -6.640  0.00  0.00    +0.130 C 
BRANCH  25  26
ATOM     26  C   UNL     1       7.862  -1.119  -8.019  0.00  0.00    -0.033 C 
ATOM     27  C   UNL     1       7.268  -0.753  -9.178  0.00  0.00    -0.001 A 
ATOM     28  C   UNL     1       6.204   0.209  -9.489  0.00  0.00    +0.010 A 
ATOM     29  C   UNL     1       5.812   0.359 -10.775  0.00  0.00    +0.001 A 
ATOM     30  C   UNL     1       6.394  -0.379 -11.814  0.00  0.00    +0.002 A 
ATOM     31  C   UNL     1       7.376  -1.282 -11.606  0.00  0.00    +0.026 A 
ATOM     32  C   UNL     1       7.867  -1.520 -10.293  0.00  0.00    +0.043 A 
ATOM     33  N   UNL     1       8.795  -2.329  -9.841  0.00  0.00    -0.380 N 
ATOM     34  C   UNL     1       8.893  -2.161  -8.387  0.00  0.00    +0.145 C 
ATOM     35  H   UNL     1       9.329  -2.934 -10.379  0.00  0.00    +0.160 HD
ENDBRANCH  25  26
ENDBRANCH  22  25
ENDBRANCH   3  21
TORSDOF 6
