REMARK  Name = ZINC35230955
REMARK  4 active torsions:
REMARK  status: ('A' for Active; 'I' for Inactive)
REMARK    1  A    between atoms: C_3  and  N_11
REMARK    2  A    between atoms: C_4  and  N_8
REMARK    3  A    between atoms: N_11  and  C_12
REMARK    4  A    between atoms: C_12  and  C_13
REMARK                            x       y       z     vdW  Elec       q    Type
REMARK                         _______ _______ _______ _____ _____    ______ ____
ROOT
ATOM      1  C   UNL     1      -0.001   1.375  -0.215  0.00  0.00    +0.017 A 
ATOM      2  C   UNL     1       1.196   2.061  -0.276  0.00  0.00    +0.026 A 
ATOM      3  C   UNL     1       2.393   1.387  -0.066  0.00  0.00    +0.058 A 
ATOM      4  C   UNL     1       2.381   0.024   0.204  0.00  0.00    +0.148 A 
ATOM      5  C   UNL     1       1.181  -0.656   0.264  0.00  0.00    +0.050 A 
ATOM      6  C   UNL     1      -0.009   0.018   0.054  0.00  0.00    +0.020 A 
ATOM      7 BR   UNL     1      -1.651  -0.917   0.137  0.00  0.00    -0.050 Br
ENDROOT
BRANCH   4   8
ATOM      8  N   UNL     1       3.654  -0.697   0.428  0.00  0.00    +0.058 N 
ATOM      9  O   UNL     1       3.792  -1.823   0.010  0.00  0.00    -0.126 OA
ATOM     10  O   UNL     1       4.555  -0.161   1.029  0.00  0.00    -0.126 OA
ENDBRANCH   4   8
BRANCH   3  11
ATOM     11  N   UNL     1       3.605   2.078  -0.127  0.00  0.00    -0.337 N 
ATOM     12  H   UNL     1       4.444   1.594  -0.065  0.00  0.00    +0.146 HD
BRANCH  11  13
ATOM     13  C   UNL     1       3.611   3.535  -0.284  0.00  0.00    +0.144 C 
BRANCH  13  14
ATOM     14  C   UNL     1       5.034   4.030  -0.322  0.00  0.00    +0.008 A 
ATOM     15  C   UNL     1       5.849   4.203  -1.391  0.00  0.00    +0.014 A 
ATOM     16  C   UNL     1       7.133   4.675  -1.186  0.00  0.00    +0.023 A 
ATOM     17  C   UNL     1       7.537   4.951   0.079  0.00  0.00    +0.055 A 
ATOM     18  S   UNL     1       6.080   4.549   1.029  0.00  0.00    -0.085 S 
ATOM     19 BR   UNL     1       9.208   5.601   0.680  0.00  0.00    -0.043 Br
ENDBRANCH  13  14
ENDBRANCH  11  13
ENDBRANCH   3  11
TORSDOF 4
