REMARK  Name = ZINC09010199
REMARK  14 active torsions:
REMARK  status: ('A' for Active; 'I' for Inactive)
REMARK    1  A    between atoms: C_1  and  C_2
REMARK    2  A    between atoms: C_2  and  O_3
REMARK    3  A    between atoms: O_3  and  C_4
REMARK    4  A    between atoms: C_6  and  C_12
REMARK    5  A    between atoms: C_9  and  O_10
REMARK    6  A    between atoms: C_17  and  C_22
REMARK    7  A    between atoms: C_25  and  O_28
REMARK    8  A    between atoms: O_28  and  C_29
REMARK    9  A    between atoms: C_31  and  C_39
REMARK   10  A    between atoms: C_32  and  C_33
REMARK   11  A    between atoms: C_33  and  O_35
REMARK   12  A    between atoms: O_35  and  C_36
REMARK   13  A    between atoms: C_36  and  C_37
REMARK   14  A    between atoms: C_36  and  C_38
REMARK                            x       y       z     vdW  Elec       q    Type
REMARK                         _______ _______ _______ _____ _____    ______ ____
ROOT
ATOM      1  C   UNL     1       1.184  -0.763   0.137  0.00  0.00    +0.092 C 
ATOM      2  C   UNL     1       2.419  -0.009  -0.287  0.00  0.00    +0.024 C 
ATOM      3  C   UNL     1       2.403   1.337  -0.391  0.00  0.00    +0.016 C 
ATOM      4  C   UNL     1       3.638   2.100  -0.802  0.00  0.00    +0.059 C 
ATOM      5  C   UNL     1       4.486   1.237  -1.740  0.00  0.00    +0.032 C 
ATOM      6  C   UNL     1       4.849  -0.061  -1.011  0.00  0.00    +0.088 C 
ATOM      7  C   UNL     1       3.583  -0.745  -0.570  0.00  0.00    +0.162 C 
ATOM      8  O   UNL     1       3.567  -1.954  -0.456  0.00  0.00    -0.292 OA
ATOM      9  N   UNL     1       1.258   2.040  -0.128  0.00  0.00    -0.321 N 
ATOM     10  C   UNL     1       0.040   1.420  -0.140  0.00  0.00    +0.016 C 
ATOM     11  C   UNL     1      -0.044   0.083  -0.020  0.00  0.00    +0.065 C 
ATOM     12  C   UNL     1      -1.216   2.238  -0.295  0.00  0.00    +0.061 C 
ATOM     13  H   UNL     1       1.313   3.116   0.096  0.00  0.00    +0.152 HD
ENDROOT
BRANCH   1  16
ATOM     14  C   UNL     1       1.454  -2.882   3.254  0.00  0.00    +0.163 A 
ATOM     15  C   UNL     1       1.325  -2.507   1.926  0.00  0.00    +0.054 A 
ATOM     16  C   UNL     1       1.324  -1.168   1.582  0.00  0.00    -0.030 A 
ATOM     17  C   UNL     1       1.458  -0.200   2.560  0.00  0.00    +0.028 A 
ATOM     18  C   UNL     1       1.582  -0.567   3.888  0.00  0.00    +0.086 A 
ATOM     19  C   UNL     1       1.583  -1.908   4.239  0.00  0.00    +0.177 A 
ATOM     20 CL   UNL     1       1.742   0.652   5.114  0.00  0.00    -0.080 Cl
BRANCH  19  21
ATOM     21  O   UNL     1       1.710  -2.271   5.544  0.00  0.00    -0.502 OA
ATOM     22  H   UNL     1       1.812  -1.500   6.322  0.00  0.00    +0.292 HD
ENDBRANCH  19  21
BRANCH  14  23
ATOM     23  O   UNL     1       1.455  -4.199   3.594  0.00  0.00    -0.489 OA
BRANCH  23  25
ATOM     24  C   UNL     1       1.340  -6.562   3.102  0.00  0.00    +0.048 C 
ATOM     25  C   UNL     1       1.318  -5.143   2.530  0.00  0.00    +0.226 C 
ENDBRANCH  23  25
ENDBRANCH  14  23
ENDBRANCH   1  16
BRANCH   5  26
ATOM     26  C   UNL     1       5.743   1.981  -2.113  0.00  0.00    -0.043 A 
ATOM     27  C   UNL     1       6.628   2.379  -1.128  0.00  0.00    +0.007 A 
ATOM     28  C   UNL     1       7.783   3.056  -1.468  0.00  0.00    +0.046 A 
ATOM     29  C   UNL     1       8.049   3.346  -2.799  0.00  0.00    +0.120 A 
ATOM     30  C   UNL     1       7.156   2.951  -3.785  0.00  0.00    +0.046 A 
ATOM     31  C   UNL     1       6.006   2.269  -3.440  0.00  0.00    +0.007 A 
BRANCH  29  32
ATOM     32  O   UNL     1       9.181   4.018  -3.135  0.00  0.00    -0.495 OA
ATOM     33  C   UNL     1      10.054   4.394  -2.068  0.00  0.00    +0.277 C 
ENDBRANCH  29  32
ENDBRANCH   5  26
BRANCH  11  34
ATOM     34  C   UNL     1      -1.316  -0.536  -0.042  0.00  0.00    +0.338 C 
ATOM     35  O   UNL     1      -1.696  -1.110  -1.046  0.00  0.00    -0.245 OA
BRANCH  34  36
ATOM     36  O   UNL     1      -2.108  -0.490   1.050  0.00  0.00    -0.459 OA
BRANCH  36  37
ATOM     37  C   UNL     1      -3.378  -1.137   0.957  0.00  0.00    +0.171 C 
ATOM     38  C   UNL     1      -3.794  -1.646   2.338  0.00  0.00    +0.052 C 
ATOM     39  C   UNL     1      -4.421  -0.141   0.445  0.00  0.00    +0.052 C 
ENDBRANCH  36  37
ENDBRANCH  34  36
ENDBRANCH  11  34
TORSDOF 9
