REMARK  Name = ZINC39781416
REMARK  7 active torsions:
REMARK  status: ('A' for Active; 'I' for Inactive)
REMARK    1  A    between atoms: C_1  and  C_2
REMARK    2  A    between atoms: C_2  and  C_3
REMARK    3  A    between atoms: C_5  and  C_17
REMARK    4  A    between atoms: N_9  and  C_10
REMARK    5  A    between atoms: C_13  and  C_16
REMARK    6  A    between atoms: N_19  and  C_20
REMARK    7  A    between atoms: C_24  and  C_26
REMARK                            x       y       z     vdW  Elec       q    Type
REMARK                         _______ _______ _______ _____ _____    ______ ____
ROOT
ATOM      1  C   UNL     1      -0.911  -2.791   0.967  0.00  0.00    +0.280 C 
ATOM      2  O   UNL     1      -0.094  -2.264   1.907  0.00  0.00    -0.265 OA
ATOM      3  N   UNL     1      -1.190  -4.081   0.982  0.00  0.00    -0.172 NA
ENDROOT
BRANCH   1   5
ATOM      4  C   UNL     1      -1.246  -0.470  -0.190  0.00  0.00    +0.130 C 
ATOM      5  C   UNL     1      -1.465  -1.960  -0.033  0.00  0.00    +0.056 C 
ATOM      6  H   UNL     1      -3.227  -1.357  -2.590  0.00  0.00    +0.169 HD
ATOM      7  C   UNL     1      -2.289  -2.342  -1.027  0.00  0.00    +0.098 C 
ATOM      8  N   UNL     1      -2.641  -1.293  -1.820  0.00  0.00    -0.270 N 
ATOM      9  N   UNL     1      -2.043  -0.104  -1.373  0.00  0.00    -0.246 N 
BRANCH   9  10
ATOM     10  C   UNL     1      -2.177   1.168  -1.934  0.00  0.00    +0.048 A 
ATOM     11  C   UNL     1      -2.846   1.330  -3.140  0.00  0.00    +0.025 A 
ATOM     12  C   UNL     1      -2.976   2.589  -3.692  0.00  0.00    +0.005 A 
ATOM     13  C   UNL     1      -2.441   3.688  -3.045  0.00  0.00    -0.050 A 
ATOM     14  C   UNL     1      -1.774   3.530  -1.844  0.00  0.00    +0.005 A 
ATOM     15  C   UNL     1      -1.645   2.275  -1.284  0.00  0.00    +0.025 A 
ATOM     16  C   UNL     1      -2.584   5.061  -3.651  0.00  0.00    +0.044 C 
ENDBRANCH   9  10
BRANCH   4  18
ATOM     17  C   UNL     1       0.735  -0.988  -1.621  0.00  0.00    +0.006 C 
ATOM     18  C   UNL     1       0.234  -0.170  -0.429  0.00  0.00    +0.026 C 
ENDBRANCH   4  18
ENDBRANCH   1   5
BRANCH   3  19
ATOM     19  C   UNL     1      -0.659  -4.876   1.937  0.00  0.00    +0.250 A 
ATOM     20  N   UNL     1      -0.858  -6.218   2.068  0.00  0.00    -0.243 N 
ATOM     21  H   UNL     1      -1.402  -6.783   1.498  0.00  0.00    +0.192 HD
ATOM     22  N   UNL     1      -0.117  -6.620   3.191  0.00  0.00    -0.151 NA
ATOM     23  C   UNL     1       0.472  -5.546   3.669  0.00  0.00    +0.183 A 
ATOM     24  N   UNL     1       0.149  -4.492   2.909  0.00  0.00    -0.190 NA
BRANCH  23  25
ATOM     25  C   UNL     1       1.358  -5.510   4.859  0.00  0.00    +0.021 A 
ATOM     26  C   UNL     1       1.921  -4.305   5.274  0.00  0.00    +0.014 A 
ATOM     27  C   UNL     1       2.745  -4.275   6.380  0.00  0.00    +0.039 A 
ATOM     28  C   UNL     1       3.012  -5.442   7.078  0.00  0.00    +0.123 A 
ATOM     29  C   UNL     1       2.454  -6.642   6.669  0.00  0.00    +0.039 A 
ATOM     30  C   UNL     1       1.625  -6.680   5.567  0.00  0.00    +0.014 A 
ATOM     31  F   UNL     1       3.820  -5.409   8.161  0.00  0.00    -0.205 F 
ENDBRANCH  23  25
ENDBRANCH   3  19
TORSDOF 5
