REMARK  Name = ZINC36156870
REMARK  8 active torsions:
REMARK  status: ('A' for Active; 'I' for Inactive)
REMARK    1  A    between atoms: C_1  and  C_2
REMARK    2  A    between atoms: C_2  and  C_4
REMARK    3  A    between atoms: C_2  and  O_28
REMARK    4  A    between atoms: C_4  and  N_5
REMARK    5  A    between atoms: N_5  and  C_6
REMARK    6  A    between atoms: N_5  and  C_12
REMARK    7  A    between atoms: C_6  and  C_7
REMARK    8  A    between atoms: C_12  and  C_13
REMARK                            x       y       z     vdW  Elec       q    Type
REMARK                         _______ _______ _______ _____ _____    ______ ____
ROOT
ATOM      1  C   UNL     1      -3.265  -1.893  -1.684  0.00  0.00    +0.094 A 
ATOM      2  N   UNL     1      -4.529  -2.179  -2.090  0.00  0.00    -0.312 N 
ATOM      3  H   UNL     1      -5.101  -2.715  -1.518  0.00  0.00    +0.170 HD
ATOM      4  C   UNL     1      -5.003  -1.736  -3.269  0.00  0.00    +0.260 A 
ATOM      5  O   UNL     1      -6.140  -2.002  -3.618  0.00  0.00    -0.267 OA
ATOM      6  C   UNL     1      -4.149  -0.946  -4.106  0.00  0.00    +0.075 A 
ATOM      7  C   UNL     1      -4.446  -0.364  -5.415  0.00  0.00    -0.023 A 
ATOM      8  C   UNL     1      -3.462   0.346  -6.006  0.00  0.00    -0.004 A 
ATOM      9  S   UNL     1      -2.103   0.282  -4.870  0.00  0.00    -0.073 S 
ATOM     10  C   UNL     1      -2.862  -0.702  -3.603  0.00  0.00    +0.116 A 
ATOM     11  N   UNL     1      -2.465  -1.171  -2.423  0.00  0.00    -0.229 NA
ATOM     12  C   UNL     1      -3.514   1.037  -7.335  0.00  0.00    +0.043 C 
ATOM     13  C   UNL     1      -4.731   0.510  -8.107  0.00  0.00    +0.005 C 
ATOM     14  C   UNL     1      -5.949   0.532  -7.178  0.00  0.00    +0.005 C 
ATOM     15  C   UNL     1      -5.799  -0.539  -6.098  0.00  0.00    +0.037 C 
ENDROOT
BRANCH   1  16
ATOM     16  C   UNL     1      -2.778  -2.411  -0.355  0.00  0.00    -0.003 C 
BRANCH  16  17
ATOM     17  N   UNL     1      -1.395  -1.969  -0.134  0.00  0.00    +0.391 N 
ATOM     18  H   UNL     1      -0.821  -2.257  -0.913  0.00  0.00    -0.080 HD
BRANCH  17  19
ATOM     19  C   UNL     1      -1.361  -0.505  -0.016  0.00  0.00    -0.046 C 
BRANCH  19  21
ATOM     20  C   UNL     1       0.133   1.497  -0.050  0.00  0.00    +0.035 C 
ATOM     21  C   UNL     1       0.092  -0.031   0.029  0.00  0.00    +0.095 C 
BRANCH  21  22
ATOM     22  O   UNL     1       0.697  -0.461   1.250  0.00  0.00    -0.394 OA
ATOM     23  H   UNL     1       1.596  -0.132   1.381  0.00  0.00    +0.210 HD
ENDBRANCH  21  22
ENDBRANCH  19  21
ENDBRANCH  17  19
BRANCH  17  24
ATOM     24  C   UNL     1      -0.880  -2.572   1.103  0.00  0.00    -0.002 C 
BRANCH  24  25
ATOM     25  C   UNL     1      -0.866  -4.073   0.962  0.00  0.00    +0.089 A 
ATOM     26  C   UNL     1       0.186  -4.816   0.573  0.00  0.00    +0.042 A 
ATOM     27  C   UNL     1      -0.241  -6.164   0.581  0.00  0.00    +0.041 A 
ATOM     28  C   UNL     1      -1.527  -6.164   0.973  0.00  0.00    +0.195 A 
ATOM     29  O   UNL     1      -1.899  -4.895   1.208  0.00  0.00    -0.470 OA
ENDBRANCH  24  25
ENDBRANCH  17  24
ENDBRANCH  16  17
ENDBRANCH   1  16
TORSDOF 7
