REMARK  Name = ZINC09946704
REMARK  10 active torsions:
REMARK  status: ('A' for Active; 'I' for Inactive)
REMARK    1  A    between atoms: C_1  and  C_2
REMARK    2  A    between atoms: C_3  and  C_28
REMARK    3  A    between atoms: C_5  and  S_8
REMARK    4  A    between atoms: S_8  and  C_9
REMARK    5  A    between atoms: C_9  and  C_11
REMARK    6  A    between atoms: C_9  and  C_12
REMARK    7  A    between atoms: N_14  and  C_15
REMARK    8  A    between atoms: C_18  and  N_25
REMARK    9  A    between atoms: C_20  and  C_21
REMARK   10  A    between atoms: C_28  and  C_29
REMARK                            x       y       z     vdW  Elec       q    Type
REMARK                         _______ _______ _______ _____ _____    ______ ____
ROOT
ATOM      1  C   UNL     1      -5.020   2.461  -1.650  0.00  0.00    +0.137 C 
ATOM      2  C   UNL     1      -5.040   0.974  -1.293  0.00  0.00    +0.029 C 
ENDROOT
BRANCH   1   3
ATOM      3  C   UNL     1      -6.418   2.918  -1.977  0.00  0.00    +0.230 C 
ATOM      4  O   UNL     1      -6.795   2.943  -3.130  0.00  0.00    -0.274 OA
ATOM      5  N   UNL     1      -7.251   3.300  -0.988  0.00  0.00    -0.284 N 
ATOM      6  H   UNL     1      -6.979   3.205  -0.061  0.00  0.00    +0.155 HD
BRANCH   5   7
ATOM      7  C   UNL     1      -8.507   3.833  -1.297  0.00  0.00    +0.045 A 
ATOM      8  C   UNL     1      -8.720   4.446  -2.526  0.00  0.00    +0.026 A 
ATOM      9  C   UNL     1      -9.960   4.971  -2.828  0.00  0.00    +0.034 A 
ATOM     10  C   UNL     1     -10.991   4.888  -1.909  0.00  0.00    +0.127 A 
ATOM     11  C   UNL     1     -10.782   4.279  -0.685  0.00  0.00    +0.047 A 
ATOM     12  C   UNL     1      -9.545   3.746  -0.379  0.00  0.00    +0.078 A 
BRANCH  12  13
ATOM     13  C   UNL     1      -9.320   3.077   0.952  0.00  0.00    +0.419 C 
ATOM     14  F   UNL     1     -10.503   3.113   1.698  0.00  0.00    -0.166 F 
ATOM     15  F   UNL     1      -8.939   1.747   0.747  0.00  0.00    -0.166 F 
ATOM     16  F   UNL     1      -8.310   3.750   1.648  0.00  0.00    -0.166 F 
ENDBRANCH  12  13
BRANCH  10  17
ATOM     17  N   UNL     1     -12.319   5.452  -2.236  0.00  0.00    +0.056 N 
ATOM     18  O   UNL     1     -12.503   5.984  -3.306  0.00  0.00    -0.126 OA
ATOM     19  O   UNL     1     -13.221   5.380  -1.434  0.00  0.00    -0.126 OA
ENDBRANCH  10  17
ENDBRANCH   5   7
ENDBRANCH   1   3
BRANCH   1  20
ATOM     20  S   UNL     1      -3.947   2.723  -3.090  0.00  0.00    -0.075 S 
BRANCH  20  25
ATOM     21  C   UNL     1       0.005   1.142   0.004  0.00  0.00    +0.067 C 
ATOM     22  C   UNL     1      -0.730   1.632  -1.217  0.00  0.00    +0.060 A 
ATOM     23  C   UNL     1      -0.176   1.904  -2.412  0.00  0.00    +0.043 A 
ATOM     24  N   UNL     1      -1.194   2.321  -3.240  0.00  0.00    -0.336 N 
ATOM     25  C   UNL     1      -2.342   2.286  -2.509  0.00  0.00    +0.167 A 
ATOM     26  N   UNL     1      -2.050   1.867  -1.300  0.00  0.00    -0.227 NA
ATOM     27  H   UNL     1      -1.109   2.588  -4.169  0.00  0.00    +0.168 HD
BRANCH  23  28
ATOM     28  C   UNL     1       1.281   1.778  -2.775  0.00  0.00    +0.090 C 
BRANCH  28  29
ATOM     29  C   UNL     1       1.575   0.358  -3.186  0.00  0.00    -0.042 A 
ATOM     30  C   UNL     1       1.963  -0.570  -2.238  0.00  0.00    +0.004 A 
ATOM     31  C   UNL     1       2.232  -1.873  -2.615  0.00  0.00    +0.000 A 
ATOM     32  C   UNL     1       2.113  -2.247  -3.941  0.00  0.00    +0.000 A 
ATOM     33  C   UNL     1       1.724  -1.319  -4.889  0.00  0.00    +0.000 A 
ATOM     34  C   UNL     1       1.450  -0.018  -4.511  0.00  0.00    +0.004 A 
ENDBRANCH  28  29
ENDBRANCH  23  28
ENDBRANCH  20  25
ENDBRANCH   1  20
TORSDOF 8
