REMARK  Name = ZINC08961989
REMARK  8 active torsions:
REMARK  status: ('A' for Active; 'I' for Inactive)
REMARK    1  A    between atoms: C_1  and  C_2
REMARK    2  A    between atoms: C_2  and  C_3
REMARK    3  A    between atoms: C_3  and  C_4
REMARK    4  A    between atoms: N_6  and  C_7
REMARK    5  A    between atoms: C_10  and  S_13
REMARK    6  A    between atoms: S_13  and  N_16
REMARK    7  A    between atoms: N_16  and  C_17
REMARK    8  A    between atoms: C_27  and  C_30
REMARK                            x       y       z     vdW  Elec       q    Type
REMARK                         _______ _______ _______ _____ _____    ______ ____
ROOT
ATOM      1  S   UNL     1      -5.127   4.060  -0.023  0.00  0.00    +0.072 S 
ATOM      2  O   UNL     1      -4.855   5.299  -0.663  0.00  0.00    -0.150 OA
ATOM      3  O   UNL     1      -6.179   3.201  -0.441  0.00  0.00    -0.150 OA
ENDROOT
BRANCH   1   7
ATOM      4  C   UNL     1      -1.310   1.630  -0.237  0.00  0.00    +0.033 A 
ATOM      5  C   UNL     1      -1.252   3.018  -0.213  0.00  0.00    +0.025 A 
ATOM      6  C   UNL     1      -2.417   3.756  -0.153  0.00  0.00    +0.030 A 
ATOM      7  C   UNL     1      -3.642   3.115  -0.106  0.00  0.00    +0.109 A 
ATOM      8  C   UNL     1      -3.703   1.733  -0.124  0.00  0.00    +0.030 A 
ATOM      9  C   UNL     1      -2.542   0.990  -0.190  0.00  0.00    +0.025 A 
BRANCH   4  12
ATOM     10  C   UNL     1       0.930   1.352  -0.987  0.00  0.00    +0.217 C 
ATOM     11  O   UNL     1       0.835   2.381  -1.621  0.00  0.00    -0.275 OA
ATOM     12  N   UNL     1      -0.131   0.880  -0.304  0.00  0.00    -0.285 N 
ATOM     13  H   UNL     1      -0.080   0.018   0.138  0.00  0.00    +0.155 HD
BRANCH  10  14
ATOM     14  C   UNL     1       2.236   0.601  -0.962  0.00  0.00    +0.096 C 
BRANCH  14  16
ATOM     15  C   UNL     1       4.595   0.582  -1.787  0.00  0.00    +0.004 C 
ATOM     16  C   UNL     1       3.269   1.345  -1.812  0.00  0.00    +0.006 C 
ENDBRANCH  14  16
ENDBRANCH  10  14
ENDBRANCH   4  12
ENDBRANCH   1   7
BRANCH   1  17
ATOM     17  N   UNL     1      -5.400   4.402   1.574  0.00  0.00    -0.216 N 
ATOM     18  H   UNL     1      -6.180   4.038   2.021  0.00  0.00    +0.174 HD
BRANCH  17  19
ATOM     19  C   UNL     1      -4.507   5.217   2.278  0.00  0.00    +0.049 A 
ATOM     20  C   UNL     1      -3.634   4.653   3.203  0.00  0.00    +0.028 A 
ATOM     21  C   UNL     1      -2.743   5.446   3.899  0.00  0.00    +0.048 A 
ATOM     22  C   UNL     1      -2.721   6.814   3.686  0.00  0.00    +0.133 A 
ATOM     23  C   UNL     1      -3.605   7.390   2.761  0.00  0.00    +0.080 A 
ATOM     24  C   UNL     1      -4.498   6.585   2.057  0.00  0.00    +0.041 A 
ATOM     25  C   UNL     1      -3.572   8.851   2.555  0.00  0.00    +0.248 C 
ATOM     26  O   UNL     1      -4.600   9.499   2.556  0.00  0.00    -0.270 OA
ATOM     27  N   UNL     1      -2.375   9.457   2.366  0.00  0.00    -0.308 N 
ATOM     28  C   UNL     1      -1.162   8.644   2.262  0.00  0.00    +0.148 C 
ATOM     29  C   UNL     1      -0.743   8.123   3.631  0.00  0.00    +0.187 C 
ATOM     30  O   UNL     1      -1.852   7.611   4.359  0.00  0.00    -0.487 OA
ATOM     31  C   UNL     1       0.291   7.010   3.446  0.00  0.00    +0.053 C 
ATOM     32  H   UNL     1      -2.322  10.423   2.299  0.00  0.00    +0.149 HD
ENDBRANCH  17  19
ENDBRANCH   1  17
TORSDOF 6
