REMARK  Name = ZINC00870771
REMARK  13 active torsions:
REMARK  status: ('A' for Active; 'I' for Inactive)
REMARK    1  A    between atoms: C_1  and  C_2
REMARK    2  A    between atoms: C_3  and  C_32
REMARK    3  A    between atoms: C_4  and  C_25
REMARK    4  A    between atoms: C_10  and  C_15
REMARK    5  A    between atoms: C_18  and  O_23
REMARK    6  A    between atoms: C_19  and  O_21
REMARK    7  A    between atoms: O_21  and  C_22
REMARK    8  A    between atoms: O_23  and  C_24
REMARK    9  A    between atoms: C_28  and  O_31
REMARK   10  A    between atoms: C_32  and  O_34
REMARK   11  A    between atoms: O_34  and  C_35
REMARK   12  A    between atoms: C_35  and  C_36
REMARK   13  A    between atoms: C_35  and  C_37
REMARK                            x       y       z     vdW  Elec       q    Type
REMARK                         _______ _______ _______ _____ _____    ______ ____
ROOT
ATOM      1  C   UNL     1      -2.539  -1.491   2.509  0.00  0.00    +0.061 C 
ATOM      2  C   UNL     1      -1.909  -0.996   1.232  0.00  0.00    +0.016 C 
ATOM      3  C   UNL     1      -0.655  -0.513   1.252  0.00  0.00    +0.065 C 
ATOM      4  C   UNL     1       0.002  -0.004   0.002  0.00  0.00    +0.092 C 
ATOM      5  C   UNL     1      -0.715  -0.502  -1.228  0.00  0.00    +0.024 C 
ATOM      6  C   UNL     1      -1.973  -0.984  -1.144  0.00  0.00    +0.016 C 
ATOM      7  N   UNL     1      -2.616  -1.042   0.064  0.00  0.00    -0.321 N 
ATOM      8  C   UNL     1      -2.701  -1.473  -2.371  0.00  0.00    +0.059 C 
ATOM      9  C   UNL     1      -1.695  -2.042  -3.374  0.00  0.00    +0.032 C 
ATOM     10  C   UNL     1      -0.684  -0.944  -3.724  0.00  0.00    +0.088 C 
ATOM     11  C   UNL     1      -0.038  -0.452  -2.458  0.00  0.00    +0.162 C 
ATOM     12  O   UNL     1       1.091  -0.003  -2.501  0.00  0.00    -0.292 OA
ATOM     13  H   UNL     1      -3.713  -1.127   0.087  0.00  0.00    +0.152 HD
ENDROOT
BRANCH   9  14
ATOM     14  C   UNL     1      -2.416  -2.483  -4.621  0.00  0.00    -0.040 A 
ATOM     15  C   UNL     1      -3.161  -1.572  -5.346  0.00  0.00    +0.008 A 
ATOM     16  C   UNL     1      -3.820  -1.971  -6.494  0.00  0.00    +0.049 A 
ATOM     17  C   UNL     1      -3.744  -3.289  -6.914  0.00  0.00    +0.161 A 
ATOM     18  C   UNL     1      -2.999  -4.208  -6.181  0.00  0.00    +0.162 A 
ATOM     19  C   UNL     1      -2.336  -3.800  -5.034  0.00  0.00    +0.053 A 
BRANCH  18  20
ATOM     20  O   UNL     1      -2.921  -5.503  -6.589  0.00  0.00    -0.491 OA
ATOM     21  C   UNL     1      -2.138  -6.390  -5.788  0.00  0.00    +0.277 C 
ENDBRANCH  18  20
BRANCH  17  22
ATOM     22  O   UNL     1      -4.397  -3.684  -8.040  0.00  0.00    -0.491 OA
ATOM     23  C   UNL     1      -5.142  -2.687  -8.741  0.00  0.00    +0.277 C 
ENDBRANCH  17  22
ENDBRANCH   9  14
BRANCH   4  24
ATOM     24  C   UNL     1      -0.018   1.503   0.010  0.00  0.00    -0.035 A 
ATOM     25  C   UNL     1      -1.226   2.177   0.020  0.00  0.00    +0.008 A 
ATOM     26  C   UNL     1      -1.247   3.558   0.033  0.00  0.00    +0.046 A 
ATOM     27  C   UNL     1      -0.056   4.269   0.025  0.00  0.00    +0.117 A 
ATOM     28  C   UNL     1       1.154   3.591   0.010  0.00  0.00    +0.046 A 
ATOM     29  C   UNL     1       1.170   2.209   0.003  0.00  0.00    +0.008 A 
BRANCH  27  30
ATOM     30  O   UNL     1      -0.074   5.628   0.032  0.00  0.00    -0.507 OA
ATOM     31  H   UNL     1       0.871   6.191   0.025  0.00  0.00    +0.292 HD
ENDBRANCH  27  30
ENDBRANCH   4  24
BRANCH   3  32
ATOM     32  C   UNL     1       0.059  -0.483   2.472  0.00  0.00    +0.338 C 
ATOM     33  O   UNL     1      -0.463  -0.892   3.492  0.00  0.00    -0.245 OA
BRANCH  32  34
ATOM     34  O   UNL     1       1.319  -0.000   2.506  0.00  0.00    -0.459 OA
BRANCH  34  35
ATOM     35  C   UNL     1       1.980  -0.000   3.772  0.00  0.00    +0.171 C 
ATOM     36  C   UNL     1       3.487  -0.160   3.561  0.00  0.00    +0.052 C 
ATOM     37  C   UNL     1       1.703   1.321   4.492  0.00  0.00    +0.052 C 
ENDBRANCH  34  35
ENDBRANCH  32  34
ENDBRANCH   3  32
TORSDOF 8
