REMARK  Name = ZINC13101957
REMARK  9 active torsions:
REMARK  status: ('A' for Active; 'I' for Inactive)
REMARK    1  A    between atoms: C_1  and  C_2
REMARK    2  A    between atoms: C_5  and  C_8
REMARK    3  A    between atoms: C_8  and  N_9
REMARK    4  A    between atoms: C_10  and  C_30
REMARK    5  A    between atoms: C_11  and  C_15
REMARK    6  A    between atoms: C_12  and  C_14
REMARK    7  A    between atoms: N_16  and  N_17
REMARK    8  A    between atoms: C_18  and  C_20
REMARK    9  A    between atoms: C_22  and  N_28
REMARK                            x       y       z     vdW  Elec       q    Type
REMARK                         _______ _______ _______ _____ _____    ______ ____
ROOT
ATOM      1  C   UNL     1       1.323   1.717   2.814  0.00  0.00    +0.142 C 
ATOM      2  N   UNL     1       2.157   1.310   1.908  0.00  0.00    -0.187 NA
ENDROOT
BRANCH   1   5
ATOM      3  N   UNL     1      -2.265   2.246   2.661  0.00  0.00    -0.263 N 
ATOM      4  C   UNL     1      -1.106   2.267   3.349  0.00  0.00    +0.045 A 
ATOM      5  C   UNL     1      -0.111   1.849   2.492  0.00  0.00    +0.038 A 
ATOM      6  C   UNL     1      -0.718   1.572   1.248  0.00  0.00    +0.069 A 
ATOM      7  N   UNL     1      -1.996   1.815   1.357  0.00  0.00    -0.175 NA
ATOM      8  C   UNL     1      -0.013   1.086   0.008  0.00  0.00    +0.068 C 
ATOM      9  C   UNL     1      -0.931   2.674   4.789  0.00  0.00    +0.066 C 
BRANCH   3  10
ATOM     10  C   UNL     1      -3.581   2.615   3.188  0.00  0.00    +0.178 C 
BRANCH  10  15
ATOM     11  C   UNL     1      -4.485   8.257   2.325  0.00  0.00    +0.044 C 
ATOM     12  C   UNL     1      -4.250   6.786   2.550  0.00  0.00    -0.050 A 
ATOM     13  C   UNL     1      -4.635   5.870   1.589  0.00  0.00    +0.004 A 
ATOM     14  C   UNL     1      -4.418   4.520   1.796  0.00  0.00    +0.006 A 
ATOM     15  C   UNL     1      -3.817   4.087   2.963  0.00  0.00    -0.026 A 
ATOM     16  C   UNL     1      -3.437   5.003   3.926  0.00  0.00    +0.006 A 
ATOM     17  C   UNL     1      -3.650   6.353   3.718  0.00  0.00    +0.004 A 
ENDBRANCH  10  15
ENDBRANCH   3  10
ENDBRANCH   1   5
BRANCH   2  18
ATOM     18  N   UNL     1       3.518   1.185   2.214  0.00  0.00    -0.202 N 
ATOM     19  C   UNL     1       4.385   0.762   1.272  0.00  0.00    +0.283 C 
ATOM     20  O   UNL     1       3.985   0.490   0.156  0.00  0.00    -0.267 OA
ATOM     21  H   UNL     1       3.880   1.431   3.223  0.00  0.00    +0.178 HD
BRANCH  19  22
ATOM     22  C   UNL     1       5.823   0.629   1.596  0.00  0.00    +0.149 A 
ATOM     23  C   UNL     1       6.711   0.187   0.620  0.00  0.00    +0.094 A 
ATOM     24  C   UNL     1       8.065   0.073   0.939  0.00  0.00    +0.067 A 
ATOM     25  C   UNL     1       8.469   0.398   2.233  0.00  0.00    +0.100 A 
ATOM     26  C   UNL     1       7.523   0.825   3.151  0.00  0.00    +0.150 A 
ATOM     27  N   UNL     1       6.253   0.928   2.818  0.00  0.00    -0.228 NA
ATOM     28 CL   UNL     1       8.019   1.232   4.764  0.00  0.00    -0.060 Cl
ATOM     29 CL   UNL     1      10.138   0.267   2.690  0.00  0.00    -0.078 Cl
ATOM     30 CL   UNL     1       6.145  -0.210  -0.973  0.00  0.00    -0.079 Cl
BRANCH  24  31
ATOM     31  N   UNL     1       8.988  -0.361  -0.010  0.00  0.00    -0.356 N 
ATOM     32  H   UNL     1      10.052  -0.446   0.257  0.00  0.00    +0.142 HD
ATOM     33  H   UNL     1       8.654  -0.619  -1.025  0.00  0.00    +0.142 HD
ENDBRANCH  24  31
ENDBRANCH  19  22
ENDBRANCH   2  18
TORSDOF 6
