REMARK  Name = ZINC31635040
REMARK  7 active torsions:
REMARK  status: ('A' for Active; 'I' for Inactive)
REMARK    1  A    between atoms: C_1  and  C_2
REMARK    2  A    between atoms: C_2  and  C_3
REMARK    3  A    between atoms: C_3  and  C_24
REMARK    4  A    between atoms: N_6  and  C_10
REMARK    5  A    between atoms: C_10  and  C_11
REMARK    6  A    between atoms: N_13  and  C_14
REMARK    7  A    between atoms: C_17  and  N_21
REMARK                            x       y       z     vdW  Elec       q    Type
REMARK                         _______ _______ _______ _____ _____    ______ ____
ROOT
ATOM      1  C   UNL     1      -7.627   1.485  -1.007  0.00  0.00    +0.138 C 
ATOM      2  C   UNL     1      -6.511   2.435  -1.396  0.00  0.00    +0.251 C 
ATOM      3  O   UNL     1      -6.134   2.701  -2.517  0.00  0.00    -0.272 OA
ATOM      4  N   UNL     1      -6.025   2.921  -0.237  0.00  0.00    -0.215 N 
ATOM      5  C   UNL     1      -6.676   2.421   0.819  0.00  0.00    +0.310 C 
ATOM      6  O   UNL     1      -6.420   2.713   1.971  0.00  0.00    -0.252 OA
ATOM      7  N   UNL     1      -7.646   1.559   0.464  0.00  0.00    -0.281 N 
ATOM      8  H   UNL     1      -8.374   0.963   1.035  0.00  0.00    +0.152 HD
ENDROOT
BRANCH   1   9
ATOM      9  C   UNL     1      -7.319   0.083  -1.464  0.00  0.00    -0.015 A 
ATOM     10  C   UNL     1      -7.820  -0.378  -2.667  0.00  0.00    +0.007 A 
ATOM     11  C   UNL     1      -7.533  -1.662  -3.089  0.00  0.00    +0.020 A 
ATOM     12  C   UNL     1      -6.753  -2.491  -2.302  0.00  0.00    +0.041 A 
ATOM     13  C   UNL     1      -6.256  -2.031  -1.095  0.00  0.00    +0.020 A 
ATOM     14  C   UNL     1      -6.539  -0.745  -0.677  0.00  0.00    +0.007 A 
ATOM     15 CL   UNL     1      -6.399  -4.107  -2.828  0.00  0.00    -0.084 Cl
ENDBRANCH   1   9
BRANCH   1  17
ATOM     16  C   UNL     1      -9.219   3.405  -1.152  0.00  0.00    +0.007 C 
ATOM     17  C   UNL     1      -8.960   1.961  -1.587  0.00  0.00    +0.037 C 
ENDBRANCH   1  17
BRANCH   4  18
ATOM     18  C   UNL     1      -4.923   3.882  -0.145  0.00  0.00    +0.214 C 
BRANCH  18  19
ATOM     19  C   UNL     1      -3.615   3.139  -0.048  0.00  0.00    +0.235 C 
ATOM     20  O   UNL     1      -3.605   1.926  -0.055  0.00  0.00    -0.274 OA
ATOM     21  N   UNL     1      -2.458   3.823   0.046  0.00  0.00    -0.283 N 
ATOM     22  H   UNL     1      -2.471   4.920   0.127  0.00  0.00    +0.155 HD
BRANCH  21  23
ATOM     23  C   UNL     1      -1.237   3.137   0.042  0.00  0.00    +0.052 A 
ATOM     24  C   UNL     1      -1.139   1.887   0.639  0.00  0.00    +0.027 A 
ATOM     25  C   UNL     1       0.067   1.215   0.638  0.00  0.00    +0.034 A 
ATOM     26  C   UNL     1       1.175   1.780   0.033  0.00  0.00    +0.128 A 
ATOM     27  C   UNL     1       1.080   3.022  -0.568  0.00  0.00    +0.054 A 
ATOM     28  C   UNL     1      -0.123   3.702  -0.566  0.00  0.00    +0.064 A 
ATOM     29 CL   UNL     1      -0.241   5.261  -1.321  0.00  0.00    -0.082 Cl
BRANCH  26  30
ATOM     30  N   UNL     1       2.465   1.054   0.029  0.00  0.00    +0.056 N 
ATOM     31  O   UNL     1       2.550  -0.040   0.557  0.00  0.00    -0.126 OA
ATOM     32  O   UNL     1       3.441   1.550  -0.504  0.00  0.00    -0.126 OA
ENDBRANCH  26  30
ENDBRANCH  21  23
ENDBRANCH  18  19
ENDBRANCH   4  18
TORSDOF 6
