REMARK  Name = ZINC09520549
REMARK  9 active torsions:
REMARK  status: ('A' for Active; 'I' for Inactive)
REMARK    1  A    between atoms: C_1  and  N_2
REMARK    2  A    between atoms: C_10  and  C_11
REMARK    3  A    between atoms: C_11  and  C_12
REMARK    4  A    between atoms: N_14  and  N_15
REMARK    5  A    between atoms: C_16  and  C_18
REMARK    6  A    between atoms: C_18  and  C_20
REMARK    7  A    between atoms: C_18  and  N_27
REMARK    8  A    between atoms: C_20  and  C_21
REMARK    9  A    between atoms: C_28  and  C_30
REMARK                            x       y       z     vdW  Elec       q    Type
REMARK                         _______ _______ _______ _____ _____    ______ ____
ROOT
ATOM      1  N   UNL     1      -4.243   6.192  -0.816  0.00  0.00    -0.233 N 
ATOM      2  C   UNL     1      -4.262   4.966  -1.375  0.00  0.00    +0.250 C 
ATOM      3  O   UNL     1      -5.286   4.540  -1.867  0.00  0.00    -0.272 OA
ATOM      4  H   UNL     1      -3.424   6.533  -0.423  0.00  0.00    +0.173 HD
ENDROOT
BRANCH   1   7
ATOM      5  C   UNL     1      -5.386   8.200  -0.243  0.00  0.00    +0.236 C 
ATOM      6  O   UNL     1      -4.362   8.627   0.248  0.00  0.00    -0.274 OA
ATOM      7  N   UNL     1      -5.405   6.974  -0.802  0.00  0.00    -0.234 N 
ATOM      8  H   UNL     1      -6.224   6.633  -1.195  0.00  0.00    +0.173 HD
BRANCH   5   9
ATOM      9  C   UNL     1      -6.636   9.041  -0.228  0.00  0.00    +0.171 C 
BRANCH   9  19
ATOM     10  C   UNL     1      -5.645  11.622  -1.615  0.00  0.00    +0.150 C 
ATOM     11  N   UNL     1      -5.913  11.480  -0.182  0.00  0.00    -0.330 N 
ATOM     12  C   UNL     1      -5.771  12.462   0.778  0.00  0.00    +0.069 A 
ATOM     13  C   UNL     1      -5.369  13.790   0.750  0.00  0.00    +0.028 A 
ATOM     14  C   UNL     1      -5.336  14.518   1.920  0.00  0.00    +0.002 A 
ATOM     15  C   UNL     1      -5.701  13.932   3.124  0.00  0.00    +0.002 A 
ATOM     16  C   UNL     1      -6.099  12.626   3.171  0.00  0.00    +0.030 A 
ATOM     17  C   UNL     1      -6.141  11.869   1.997  0.00  0.00    +0.089 A 
ATOM     18  N   UNL     1      -6.487  10.584   1.723  0.00  0.00    -0.232 NA
ATOM     19  C   UNL     1      -6.349  10.357   0.450  0.00  0.00    +0.119 A 
ENDBRANCH   9  19
ENDBRANCH   5   9
ENDBRANCH   1   7
BRANCH   2  20
ATOM     20  C   UNL     1      -3.012   4.125  -1.390  0.00  0.00    +0.165 C 
BRANCH  20  21
ATOM     21  N   UNL     1      -3.291   2.846  -2.049  0.00  0.00    -0.299 N 
ATOM     22  C   UNL     1      -2.291   2.155  -2.629  0.00  0.00    +0.251 C 
ATOM     23  O   UNL     1      -1.155   2.592  -2.606  0.00  0.00    -0.270 OA
ATOM     24  H   UNL     1      -4.196   2.498  -2.067  0.00  0.00    +0.150 HD
BRANCH  22  25
ATOM     25  C   UNL     1      -2.570   0.875  -3.288  0.00  0.00    +0.074 A 
ATOM     26  C   UNL     1      -1.696   0.018  -3.937  0.00  0.00    +0.021 A 
ATOM     27  C   UNL     1      -2.227  -1.129  -4.472  0.00  0.00    +0.008 A 
ATOM     28  C   UNL     1      -3.559  -1.366  -4.344  0.00  0.00    +0.046 A 
ATOM     29  S   UNL     1      -4.123   0.014  -3.458  0.00  0.00    -0.092 S 
ENDBRANCH  22  25
ENDBRANCH  20  21
BRANCH  20  30
ATOM     30  C   UNL     1      -2.553   3.869   0.047  0.00  0.00    +0.067 C 
BRANCH  30  31
ATOM     31  C   UNL     1      -1.238   3.133   0.030  0.00  0.00    -0.045 A 
ATOM     32  C   UNL     1      -1.219   1.751   0.017  0.00  0.00    +0.004 A 
ATOM     33  C   UNL     1      -0.013   1.076   0.008  0.00  0.00    +0.000 A 
ATOM     34  C   UNL     1       1.175   1.783   0.000  0.00  0.00    +0.000 A 
ATOM     35  C   UNL     1       1.156   3.165   0.008  0.00  0.00    +0.000 A 
ATOM     36  C   UNL     1      -0.050   3.840   0.022  0.00  0.00    +0.004 A 
ENDBRANCH  30  31
ENDBRANCH  20  30
ENDBRANCH   2  20
TORSDOF 8
