REMARK  Name = ZINC02468122
REMARK  4 active torsions:
REMARK  status: ('A' for Active; 'I' for Inactive)
REMARK    1  A    between atoms: C_4  and  C_7
REMARK    2  A    between atoms: C_13  and  S_17
REMARK    3  A    between atoms: S_17  and  N_20
REMARK    4  A    between atoms: N_20  and  C_21
REMARK                            x       y       z     vdW  Elec       q    Type
REMARK                         _______ _______ _______ _____ _____    ______ ____
ROOT
ATOM      1  C   UNL     1       3.858  -0.397   0.294  0.00  0.00    +0.139 A 
ATOM      2  N   UNL     1       3.951  -1.762   0.308  0.00  0.00    -0.338 N 
ATOM      3  H   UNL     1       3.212  -2.389   0.365  0.00  0.00    +0.167 HD
ATOM      4  C   UNL     1       5.292  -2.082   0.223  0.00  0.00    +0.067 A 
ATOM      5  C   UNL     1       5.997  -3.277   0.193  0.00  0.00    +0.030 A 
ATOM      6  C   UNL     1       7.373  -3.256   0.101  0.00  0.00    +0.031 A 
ATOM      7  C   UNL     1       8.056  -2.049   0.038  0.00  0.00    +0.111 A 
ATOM      8  C   UNL     1       7.379  -0.863   0.066  0.00  0.00    +0.058 A 
ATOM      9  C   UNL     1       5.983  -0.859   0.159  0.00  0.00    +0.091 A 
ATOM     10  N   UNL     1       5.056   0.128   0.201  0.00  0.00    -0.228 NA
ENDROOT
BRANCH   1  14
ATOM     11  C   UNL     1       0.234   1.809   0.499  0.00  0.00    +0.000 A 
ATOM     12  C   UNL     1       1.442   2.477   0.404  0.00  0.00    +0.001 A 
ATOM     13  C   UNL     1       2.623   1.766   0.337  0.00  0.00    +0.011 A 
ATOM     14  C   UNL     1       2.596   0.371   0.366  0.00  0.00    +0.017 A 
ATOM     15  C   UNL     1       1.375  -0.296   0.461  0.00  0.00    +0.011 A 
ATOM     16  C   UNL     1       0.201   0.426   0.527  0.00  0.00    +0.001 A 
ENDBRANCH   1  14
BRANCH   7  17
ATOM     17  S   UNL     1       9.814  -2.047  -0.080  0.00  0.00    +0.072 S 
ATOM     18  O   UNL     1      10.253  -0.794   0.425  0.00  0.00    -0.150 OA
ATOM     19  O   UNL     1      10.258  -3.284   0.461  0.00  0.00    -0.150 OA
BRANCH  17  20
ATOM     20  N   UNL     1      10.197  -2.070  -1.691  0.00  0.00    -0.215 N 
ATOM     21  H   UNL     1      10.713  -2.805  -2.056  0.00  0.00    +0.174 HD
BRANCH  20  22
ATOM     22  C   UNL     1       9.777  -1.029  -2.523  0.00  0.00    +0.066 A 
ATOM     23  C   UNL     1       9.727   0.272  -2.040  0.00  0.00    +0.026 A 
ATOM     24  C   UNL     1       9.312   1.298  -2.866  0.00  0.00    +0.002 A 
ATOM     25  C   UNL     1       8.945   1.032  -4.172  0.00  0.00    +0.002 A 
ATOM     26  C   UNL     1       8.992  -0.262  -4.657  0.00  0.00    +0.022 A 
ATOM     27  C   UNL     1       9.412  -1.293  -3.838  0.00  0.00    +0.063 A 
ATOM     28 CL   UNL     1       9.478  -2.917  -4.449  0.00  0.00    -0.082 Cl
ENDBRANCH  20  22
ENDBRANCH  17  20
ENDBRANCH   7  17
TORSDOF 4
