REMARK  Name = ZINC13601784
REMARK  5 active torsions:
REMARK  status: ('A' for Active; 'I' for Inactive)
REMARK    1  A    between atoms: C_5  and  N_8
REMARK    2  A    between atoms: N_8  and  N_9
REMARK    3  A    between atoms: C_10  and  C_11
REMARK    4  A    between atoms: C_10  and  C_13
REMARK    5  A    between atoms: N_15  and  N_16
REMARK                            x       y       z     vdW  Elec       q    Type
REMARK                         _______ _______ _______ _____ _____    ______ ____
ROOT
ATOM      1  N   UNL     1       1.128  -0.634  -0.012  0.00  0.00    -0.234 N 
ATOM      2  H   UNL     1       1.961  -0.137  -0.017  0.00  0.00    +0.174 HD
ENDROOT
BRANCH   1   7
ATOM      3  C   UNL     1       0.020  -4.125   0.291  0.00  0.00    +0.032 A 
ATOM      4  C   UNL     1       1.185  -4.798  -0.034  0.00  0.00    +0.020 A 
ATOM      5  C   UNL     1       2.330  -4.090  -0.352  0.00  0.00    +0.032 A 
ATOM      6  C   UNL     1       2.315  -2.709  -0.346  0.00  0.00    +0.042 A 
ATOM      7  C   UNL     1       1.147  -2.029  -0.020  0.00  0.00    +0.076 A 
ATOM      8  C   UNL     1      -0.001  -2.744   0.304  0.00  0.00    +0.042 A 
ATOM      9 BR   UNL     1      -1.592  -1.826   0.756  0.00  0.00    -0.048 Br
ATOM     10 BR   UNL     1       3.882  -1.743  -0.781  0.00  0.00    -0.048 Br
ATOM     11 BR   UNL     1       1.210  -6.689  -0.043  0.00  0.00    -0.050 Br
ENDBRANCH   1   7
BRANCH   1  12
ATOM     12  N   UNL     1       0.002  -0.004   0.002  0.00  0.00    -0.166 NA
ATOM     13  C   UNL     1      -0.016   1.313   0.009  0.00  0.00    +0.220 C 
BRANCH  13  14
ATOM     14  C   UNL     1      -1.300   2.031   0.019  0.00  0.00    +0.288 C 
ATOM     15  O   UNL     1      -1.316   3.247   0.026  0.00  0.00    -0.266 OA
ATOM     16  N   UNL     1      -2.458   1.341   0.021  0.00  0.00    -0.248 N 
ATOM     17  H   UNL     1      -2.445   0.371   0.016  0.00  0.00    +0.169 HD
BRANCH  16  18
ATOM     18  N   UNL     1      -3.650   2.008   0.030  0.00  0.00    -0.254 NA
ATOM     19  H   UNL     1      -3.712   2.648  -0.747  0.00  0.00    +0.140 HD
ATOM     20  H   UNL     1      -4.425   1.363   0.030  0.00  0.00    +0.140 HD
ENDBRANCH  16  18
ENDBRANCH  13  14
BRANCH  13  21
ATOM     21  C   UNL     1       1.214   2.046   0.001  0.00  0.00    +0.126 C 
ATOM     22  N   UNL     1       2.191   2.627  -0.005  0.00  0.00    -0.189 NA
ENDBRANCH  13  21
ENDBRANCH   1  12
TORSDOF 5
