REMARK  Name = ZINC59310318
REMARK  9 active torsions:
REMARK  status: ('A' for Active; 'I' for Inactive)
REMARK    1  A    between atoms: C_1  and  C_2
REMARK    2  A    between atoms: C_2  and  O_3
REMARK    3  A    between atoms: O_3  and  C_4
REMARK    4  A    between atoms: C_4  and  C_6
REMARK    5  A    between atoms: C_6  and  C_8
REMARK    6  A    between atoms: C_6  and  S_9
REMARK    7  A    between atoms: S_9  and  C_10
REMARK    8  A    between atoms: N_15  and  N_16
REMARK    9  A    between atoms: C_17  and  C_18
REMARK                            x       y       z     vdW  Elec       q    Type
REMARK                         _______ _______ _______ _____ _____    ______ ____
ROOT
ATOM      1  N   UNL     1      -6.506  -8.004   2.135  0.00  0.00    -0.188 NA
ATOM      2  C   UNL     1      -7.253  -8.984   2.482  0.00  0.00    +0.139 C 
ENDROOT
BRANCH   2   3
ATOM      3  C   UNL     1      -6.653 -10.202   3.053  0.00  0.00    +0.002 A 
ATOM      4  C   UNL     1      -7.517 -11.279   3.569  0.00  0.00    +0.010 A 
ATOM      5  C   UNL     1      -6.991 -12.372   4.081  0.00  0.00    +0.009 A 
ATOM      6  C   UNL     1      -5.527 -12.520   4.139  0.00  0.00    -0.017 A 
ATOM      7  C   UNL     1      -4.908 -13.730   4.706  0.00  0.00    +0.009 A 
ATOM      8  C   UNL     1      -3.594 -13.844   4.748  0.00  0.00    +0.009 A 
ATOM      9  C   UNL     1      -2.742 -12.760   4.229  0.00  0.00    -0.017 A 
ATOM     10  C   UNL     1      -1.274 -12.866   4.266  0.00  0.00    +0.008 A 
ATOM     11  C   UNL     1      -0.536 -11.881   3.794  0.00  0.00    +0.001 A 
ATOM     12  C   UNL     1      -1.169 -10.675   3.230  0.00  0.00    +0.008 A 
ATOM     13  C   UNL     1      -2.480 -10.578   3.196  0.00  0.00    -0.017 A 
ATOM     14  C   UNL     1      -3.298 -11.684   3.725  0.00  0.00    -0.002 A 
ATOM     15  C   UNL     1      -4.764 -11.557   3.678  0.00  0.00    -0.002 A 
ATOM     16  C   UNL     1      -5.345 -10.333   3.099  0.00  0.00    -0.008 A 
ATOM     17  C   UNL     1      -4.452  -9.282   2.589  0.00  0.00    +0.010 A 
ATOM     18  C   UNL     1      -3.145  -9.390   2.640  0.00  0.00    +0.009 A 
ENDBRANCH   2   3
BRANCH   1  24
ATOM     19  C   UNL     1      -4.512  -4.565   0.861  0.00  0.00    +0.211 A 
ATOM     20  N   UNL     1      -4.957  -5.740   1.319  0.00  0.00    -0.186 NA
ATOM     21  C   UNL     1      -6.269  -5.786   1.218  0.00  0.00    +0.232 A 
ATOM     22  N   UNL     1      -6.687  -4.619   0.685  0.00  0.00    -0.245 N 
ATOM     23  N   UNL     1      -5.535  -3.845   0.468  0.00  0.00    -0.144 NA
ATOM     24  N   UNL     1      -7.076  -6.845   1.592  0.00  0.00    -0.205 N 
ATOM     25  H   UNL     1      -8.038  -6.786   1.478  0.00  0.00    +0.177 HD
ATOM     26  H   UNL     1      -7.603  -4.364   0.492  0.00  0.00    +0.192 HD
BRANCH  19  27
ATOM     27  S   UNL     1      -2.824  -4.062   0.804  0.00  0.00    -0.070 S 
BRANCH  27  28
ATOM     28  C   UNL     1      -2.888  -2.392   0.099  0.00  0.00    +0.160 C 
ATOM     29  C   UNL     1      -3.404  -2.465  -1.340  0.00  0.00    +0.031 C 
BRANCH  28  30
ATOM     30  C   UNL     1      -1.506  -1.790   0.107  0.00  0.00    +0.320 C 
ATOM     31  O   UNL     1      -0.535  -2.508   0.100  0.00  0.00    -0.250 OA
BRANCH  30  32
ATOM     32  O   UNL     1      -1.356  -0.456   0.121  0.00  0.00    -0.464 OA
BRANCH  32  34
ATOM     33  C   UNL     1      -0.046   1.575   0.144  0.00  0.00    +0.048 C 
ATOM     34  C   UNL     1      -0.017   0.045   0.128  0.00  0.00    +0.229 C 
ENDBRANCH  32  34
ENDBRANCH  30  32
ENDBRANCH  28  30
ENDBRANCH  27  28
ENDBRANCH  19  27
ENDBRANCH   1  24
TORSDOF 7
