REMARK  Name = ZINC08765151
REMARK  16 active torsions:
REMARK  status: ('A' for Active; 'I' for Inactive)
REMARK    1  A    between atoms: C_1  and  C_2
REMARK    2  A    between atoms: C_3  and  C_21
REMARK    3  A    between atoms: C_9  and  O_19
REMARK    4  A    between atoms: C_15  and  C_17
REMARK    5  A    between atoms: C_15  and  C_18
REMARK    6  A    between atoms: O_19  and  C_20
REMARK    7  A    between atoms: C_21  and  C_22
REMARK    8  A    between atoms: C_22  and  C_23
REMARK    9  A    between atoms: N_25  and  C_26
REMARK   10  A    between atoms: C_26  and  C_27
REMARK   11  A    between atoms: C_27  and  C_28
REMARK   12  A    between atoms: C_27  and  C_29
REMARK   13  A    between atoms: C_27  and  C_30
REMARK   14  A    between atoms: C_30  and  N_71
REMARK   15  A    between atoms: C_31  and  N_71
REMARK   16  A    between atoms: C_32  and  N_71
REMARK                            x       y       z     vdW  Elec       q    Type
REMARK                         _______ _______ _______ _____ _____    ______ ____
ROOT
ATOM      1  C   UNL     1      -2.509   1.473   4.381  0.00  0.00    +0.045 C 
ATOM      2  C   UNL     1      -2.474   2.880   4.919  0.00  0.00    -0.026 A 
ATOM      3  C   UNL     1      -3.164   3.208   6.043  0.00  0.00    +0.041 A 
ATOM      4  C   UNL     1      -3.122   4.528   6.532  0.00  0.00    +0.341 A 
ATOM      5  O   UNL     1      -3.744   4.814   7.540  0.00  0.00    -0.245 OA
ATOM      6  O   UNL     1      -2.405   5.477   5.906  0.00  0.00    -0.421 OA
ATOM      7  C   UNL     1      -1.705   5.191   4.785  0.00  0.00    +0.149 A 
ATOM      8  C   UNL     1      -1.722   3.886   4.262  0.00  0.00    +0.063 A 
ATOM      9  C   UNL     1      -0.994   3.594   3.096  0.00  0.00    +0.134 A 
ATOM     10  C   UNL     1      -0.265   4.591   2.482  0.00  0.00    +0.092 A 
ATOM     11  C   UNL     1      -0.253   5.886   3.003  0.00  0.00    +0.131 A 
ATOM     12  C   UNL     1      -0.969   6.183   4.149  0.00  0.00    +0.038 A 
ATOM     13  C   UNL     1      -0.976   7.574   4.734  0.00  0.00    +0.046 C 
ATOM     14  C   UNL     1       0.199   8.377   4.172  0.00  0.00    +0.052 C 
ATOM     15  C   UNL     1       0.217   8.200   2.648  0.00  0.00    +0.105 C 
ATOM     16  O   UNL     1       0.483   6.827   2.358  0.00  0.00    -0.486 OA
ATOM     17  C   UNL     1      -1.143   8.595   2.067  0.00  0.00    +0.055 C 
ATOM     18  C   UNL     1       1.312   9.078   2.040  0.00  0.00    +0.055 C 
ENDROOT
BRANCH   9  19
ATOM     19  O   UNL     1      -1.004   2.339   2.580  0.00  0.00    -0.494 OA
ATOM     20  C   UNL     1      -0.240   2.119   1.393  0.00  0.00    +0.277 C 
ENDBRANCH   9  19
BRANCH   3  21
ATOM     21  C   UNL     1      -3.974   2.161   6.764  0.00  0.00    +0.052 C 
BRANCH  21  22
ATOM     22  C   UNL     1      -5.398   2.142   6.203  0.00  0.00    +0.100 C 
BRANCH  22  23
ATOM     23  C   UNL     1      -6.208   1.096   6.924  0.00  0.00    +0.213 C 
ATOM     24  O   UNL     1      -5.697   0.430   7.800  0.00  0.00    -0.276 OA
ATOM     25  N   UNL     1      -7.500   0.899   6.596  0.00  0.00    -0.315 N 
ATOM     26  H   UNL     1      -7.909   1.431   5.895  0.00  0.00    +0.149 HD
BRANCH  25  27
ATOM     27  C   UNL     1      -8.287  -0.118   7.297  0.00  0.00    +0.108 C 
BRANCH  27  28
ATOM     28  C   UNL     1      -9.711  -0.137   6.736  0.00  0.00    -0.034 C 
ATOM     29  C   UNL     1     -10.357   1.236   6.938  0.00  0.00    +0.010 C 
ATOM     30  C   UNL     1      -9.667  -0.466   5.242  0.00  0.00    +0.010 C 
BRANCH  28  31
ATOM     31  C   UNL     1     -10.533  -1.199   7.468  0.00  0.00    -0.072 C 
BRANCH  31  34
ATOM     32  C   UNL     1     -12.005  -2.107   5.773  0.00  0.00    -0.097 C 
ATOM     33  C   UNL     1     -12.869  -1.588   7.974  0.00  0.00    -0.097 C 
ATOM     34  N   UNL     1     -11.908  -1.187   6.925  0.00  0.00    +0.376 N 
ATOM     35  H   UNL     1     -12.134  -0.235   6.612  0.00  0.00    -0.083 HD
ENDBRANCH  31  34
ENDBRANCH  28  31
ENDBRANCH  27  28
ENDBRANCH  25  27
ENDBRANCH  22  23
ENDBRANCH  21  22
ENDBRANCH   3  21
TORSDOF 8
