REMARK  Name = ZINC03359359
REMARK  13 active torsions:
REMARK  status: ('A' for Active; 'I' for Inactive)
REMARK    1  A    between atoms: C_1  and  N_2
REMARK    2  A    between atoms: N_2  and  C_3
REMARK    3  A    between atoms: N_2  and  S_4
REMARK    4  A    between atoms: S_4  and  C_7
REMARK    5  A    between atoms: C_11  and  C_13
REMARK    6  A    between atoms: C_16  and  S_25
REMARK    7  A    between atoms: N_17  and  C_18
REMARK    8  A    between atoms: S_25  and  C_26
REMARK    9  A    between atoms: C_26  and  C_27
REMARK   10  A    between atoms: C_27  and  N_28
REMARK   11  A    between atoms: N_28  and  C_29
REMARK   12  A    between atoms: C_29  and  C_30
REMARK   13  A    between atoms: C_30  and  O_31
REMARK                            x       y       z     vdW  Elec       q    Type
REMARK                         _______ _______ _______ _____ _____    ______ ____
ROOT
ATOM      1  C   UNL     1       4.450  -3.533  -1.302  0.00  0.00    +0.169 A 
ATOM      2  N   UNL     1       3.917  -4.620  -0.795  0.00  0.00    -0.128 NA
ATOM      3  N   UNL     1       4.801  -5.550  -0.721  0.00  0.00    -0.122 NA
ATOM      4  C   UNL     1       5.955  -5.115  -1.176  0.00  0.00    +0.196 A 
ATOM      5  N   UNL     1       5.772  -3.817  -1.567  0.00  0.00    -0.270 N 
ENDROOT
BRANCH   5   6
ATOM      6  C   UNL     1       6.731  -2.955  -2.120  0.00  0.00    +0.051 A 
ATOM      7  C   UNL     1       6.616  -2.544  -3.441  0.00  0.00    +0.029 A 
ATOM      8  C   UNL     1       7.561  -1.695  -3.983  0.00  0.00    +0.040 A 
ATOM      9  C   UNL     1       8.622  -1.254  -3.211  0.00  0.00    +0.124 A 
ATOM     10  C   UNL     1       8.738  -1.663  -1.893  0.00  0.00    +0.040 A 
ATOM     11  C   UNL     1       7.792  -2.507  -1.345  0.00  0.00    +0.029 A 
ATOM     12  F   UNL     1       9.545  -0.424  -3.743  0.00  0.00    -0.205 F 
ENDBRANCH   5   6
BRANCH   1  17
ATOM     13  C   UNL     1       1.730  -0.995  -1.816  0.00  0.00    +0.106 A 
ATOM     14  C   UNL     1       2.471   0.158  -2.009  0.00  0.00    +0.028 A 
ATOM     15  C   UNL     1       3.853   0.114  -1.972  0.00  0.00    +0.003 A 
ATOM     16  C   UNL     1       4.503  -1.081  -1.742  0.00  0.00    +0.012 A 
ATOM     17  C   UNL     1       3.762  -2.248  -1.547  0.00  0.00    +0.021 A 
ATOM     18  C   UNL     1       2.367  -2.196  -1.580  0.00  0.00    +0.040 A 
BRANCH  13  19
ATOM     19  S   UNL     1      -0.030  -0.928  -1.865  0.00  0.00    +0.060 S 
ATOM     20  O   UNL     1      -0.477  -2.236  -2.192  0.00  0.00    -0.153 OA
ATOM     21  O   UNL     1      -0.371   0.211  -2.644  0.00  0.00    -0.153 OA
BRANCH  19  23
ATOM     22  C   UNL     1      -0.728   0.761   0.128  0.00  0.00    +0.131 C 
ATOM     23  N   UNL     1      -0.551  -0.621  -0.324  0.00  0.00    -0.183 NA
ATOM     24  C   UNL     1      -0.836  -1.732   0.588  0.00  0.00    +0.131 C 
ENDBRANCH  19  23
ENDBRANCH  13  19
ENDBRANCH   1  17
BRANCH   4  25
ATOM     25  S   UNL     1       7.455  -6.034  -1.270  0.00  0.00    -0.088 S 
BRANCH  25  26
ATOM     26  C   UNL     1       7.013  -7.664  -0.607  0.00  0.00    +0.058 C 
BRANCH  26  27
ATOM     27  C   UNL     1       8.243  -8.575  -0.632  0.00  0.00    -0.071 C 
BRANCH  27  28
ATOM     28  N   UNL     1       7.885  -9.894  -0.095  0.00  0.00    +0.381 N 
ATOM     29  H   UNL     1       7.560  -9.794   0.855  0.00  0.00    -0.086 HD
ATOM     30  H   UNL     1       7.154 -10.301  -0.659  0.00  0.00    -0.086 HD
BRANCH  28  31
ATOM     31  C   UNL     1       9.065 -10.769  -0.118  0.00  0.00    -0.054 C 
BRANCH  31  32
ATOM     32  C   UNL     1       8.693 -12.143   0.441  0.00  0.00    +0.137 C 
BRANCH  32  33
ATOM     33  O   UNL     1       7.742 -12.768  -0.423  0.00  0.00    -0.397 OA
ATOM     34  H   UNL     1       7.460 -13.645  -0.130  0.00  0.00    +0.209 HD
ENDBRANCH  32  33
ENDBRANCH  31  32
ENDBRANCH  28  31
ENDBRANCH  27  28
ENDBRANCH  26  27
ENDBRANCH  25  26
ENDBRANCH   4  25
TORSDOF 11
