REMARK  Name = ZINC48610402
REMARK  6 active torsions:
REMARK  status: ('A' for Active; 'I' for Inactive)
REMARK    1  A    between atoms: C_1  and  C_2
REMARK    2  A    between atoms: C_2  and  C_3
REMARK    3  A    between atoms: C_2  and  C_4
REMARK    4  A    between atoms: C_4  and  C_20
REMARK    5  A    between atoms: N_7  and  C_11
REMARK    6  A    between atoms: C_11  and  C_12
REMARK                            x       y       z     vdW  Elec       q    Type
REMARK                         _______ _______ _______ _____ _____    ______ ____
ROOT
ATOM      1  C   UNL     1       0.742  -0.511   1.242  0.00  0.00    +0.112 C 
ATOM      2  C   UNL     1       0.872  -2.021   1.205  0.00  0.00    +0.247 C 
ATOM      3  O   UNL     1      -0.029  -2.833   1.195  0.00  0.00    -0.273 OA
ATOM      4  N   UNL     1       2.195  -2.272   1.186  0.00  0.00    -0.220 N 
ATOM      5  C   UNL     1       2.913  -1.143   1.205  0.00  0.00    +0.310 C 
ATOM      6  O   UNL     1       4.128  -1.115   1.194  0.00  0.00    -0.252 OA
ATOM      7  N   UNL     1       2.139  -0.043   1.238  0.00  0.00    -0.285 N 
ATOM      8  C   UNL     1       0.026  -0.059   2.516  0.00  0.00    +0.042 C 
ATOM      9  H   UNL     1       2.442   0.878   1.257  0.00  0.00    +0.151 HD
ENDROOT
BRANCH   1  11
ATOM     10  C   UNL     1      -0.019   1.526   0.010  0.00  0.00    +0.010 C 
ATOM     11  C   UNL     1       0.002  -0.004   0.002  0.00  0.00    +0.015 C 
ATOM     12  C   UNL     1       0.718  -0.497  -1.257  0.00  0.00    +0.010 C 
ENDBRANCH   1  11
BRANCH   4  13
ATOM     13  C   UNL     1       2.777  -3.617   1.150  0.00  0.00    +0.157 C 
BRANCH  13  14
ATOM     14  C   UNL     1       2.962  -4.045  -0.283  0.00  0.00    +0.024 A 
ATOM     15  C   UNL     1       1.945  -4.713  -0.943  0.00  0.00    +0.129 A 
ATOM     16  C   UNL     1       2.116  -5.107  -2.259  0.00  0.00    +0.039 A 
ATOM     17  C   UNL     1       3.302  -4.832  -2.914  0.00  0.00    +0.004 A 
ATOM     18  C   UNL     1       4.318  -4.165  -2.255  0.00  0.00    +0.020 A 
ATOM     19  C   UNL     1       4.146  -3.767  -0.941  0.00  0.00    +0.048 A 
ATOM     20 CL   UNL     1       5.420  -2.922  -0.117  0.00  0.00    -0.083 Cl
ATOM     21  F   UNL     1       0.786  -4.982  -0.303  0.00  0.00    -0.205 F 
ENDBRANCH  13  14
ENDBRANCH   4  13
TORSDOF 3
