REMARK  Name = ZINC61596442
REMARK  7 active torsions:
REMARK  status: ('A' for Active; 'I' for Inactive)
REMARK    1  A    between atoms: C_1  and  C_2
REMARK    2  A    between atoms: C_2  and  C_3
REMARK    3  A    between atoms: C_3  and  C_4
REMARK    4  A    between atoms: C_11  and  C_13
REMARK    5  A    between atoms: C_13  and  C_14
REMARK    6  A    between atoms: C_13  and  N_25
REMARK    7  A    between atoms: C_14  and  C_15
REMARK                            x       y       z     vdW  Elec       q    Type
REMARK                         _______ _______ _______ _____ _____    ______ ____
ROOT
ATOM      1  C   UNL     1       4.395  -5.518  -2.034  0.00  0.00    +0.165 C 
ENDROOT
BRANCH   1   9
ATOM      2  C   UNL     1       0.674  -2.093  -1.248  0.00  0.00    -0.009 C 
ATOM      3  C   UNL     1       1.162  -2.562  -2.616  0.00  0.00    +0.005 C 
ATOM      4  C   UNL     1       0.638  -3.951  -2.885  0.00  0.00    +0.019 C 
ATOM      5  C   UNL     1       1.656  -5.002  -2.408  0.00  0.00    +0.108 C 
ATOM      6  N   UNL     1       2.274  -4.633  -1.119  0.00  0.00    -0.300 N 
ATOM      7  C   UNL     1       1.517  -4.075  -0.021  0.00  0.00    +0.108 C 
ATOM      8  C   UNL     1       1.515  -2.530  -0.123  0.00  0.00    +0.022 C 
ATOM      9  C   UNL     1       3.598  -4.824  -0.959  0.00  0.00    +0.236 C 
ATOM     10  O   UNL     1       4.149  -4.438   0.050  0.00  0.00    -0.274 OA
BRANCH   2  11
ATOM     11  C   UNL     1       0.620  -0.564  -1.250  0.00  0.00    +0.003 C 
BRANCH  11  13
ATOM     12  C   UNL     1      -0.146   1.451   0.013  0.00  0.00    +0.004 C 
ATOM     13  C   UNL     1      -0.092  -0.078   0.014  0.00  0.00    -0.003 C 
ENDBRANCH  11  13
ENDBRANCH   2  11
ENDBRANCH   1   9
BRANCH   1  14
ATOM     14  N   UNL     1       5.825  -5.325  -1.784  0.00  0.00    -0.288 N 
ATOM     15  C   UNL     1       6.374  -5.769  -0.635  0.00  0.00    +0.298 C 
ATOM     16  O   UNL     1       5.681  -6.328   0.193  0.00  0.00    -0.253 OA
ATOM     17  N   UNL     1       7.690  -5.591  -0.405  0.00  0.00    -0.313 N 
ATOM     18  H   UNL     1       6.377  -4.879  -2.445  0.00  0.00    +0.151 HD
ATOM     19  H   UNL     1       8.242  -5.145  -1.065  0.00  0.00    +0.146 HD
ATOM     20  H   UNL     1       8.085  -5.910   0.422  0.00  0.00    +0.146 HD
ENDBRANCH   1  14
BRANCH   1  21
ATOM     21  C   UNL     1       4.072  -7.013  -2.024  0.00  0.00    +0.069 C 
BRANCH  21  22
ATOM     22  C   UNL     1       4.772  -7.687  -3.175  0.00  0.00    -0.020 A 
ATOM     23  C   UNL     1       4.254  -7.941  -4.387  0.00  0.00    +0.087 A 
ATOM     24  N   UNL     1       5.185  -8.564  -5.172  0.00  0.00    -0.360 N 
ATOM     25  H   UNL     1       5.042  -8.847  -6.089  0.00  0.00    +0.165 HD
ATOM     26  C   UNL     1       6.356  -8.731  -4.466  0.00  0.00    +0.047 A 
ATOM     27  C   UNL     1       6.151  -8.183  -3.187  0.00  0.00    +0.003 A 
ATOM     28  C   UNL     1       7.182  -8.205  -2.246  0.00  0.00    +0.010 A 
ATOM     29  C   UNL     1       8.388  -8.756  -2.575  0.00  0.00    +0.001 A 
ATOM     30  C   UNL     1       8.597  -9.295  -3.837  0.00  0.00    +0.002 A 
ATOM     31  C   UNL     1       7.590  -9.292  -4.778  0.00  0.00    +0.026 A 
ENDBRANCH  21  22
ENDBRANCH   1  21
TORSDOF 6
