REMARK  Name = ZINC14466885
REMARK  3 active torsions:
REMARK  status: ('A' for Active; 'I' for Inactive)
REMARK    1  A    between atoms: C_6  and  O_7
REMARK    2  A    between atoms: C_15  and  C_18
REMARK    3  A    between atoms: C_23  and  O_24
REMARK                            x       y       z     vdW  Elec       q    Type
REMARK                         _______ _______ _______ _____ _____    ______ ____
ROOT
ATOM      1  C   UNL     1       5.575   6.393   1.427  0.00  0.00    +0.047 A 
ATOM      2  C   UNL     1       4.580   5.439   1.507  0.00  0.00    +0.027 A 
ATOM      3  C   UNL     1       4.510   4.424   0.562  0.00  0.00    +0.032 A 
ATOM      4  C   UNL     1       5.433   4.356  -0.470  0.00  0.00    -0.016 A 
ATOM      5  C   UNL     1       6.430   5.319  -0.545  0.00  0.00    +0.051 A 
ATOM      6  C   UNL     1       6.502   6.331   0.396  0.00  0.00    +0.117 A 
ATOM      7  C   UNL     1       5.396   3.279  -1.508  0.00  0.00    +0.049 C 
ATOM      8  C   UNL     1       6.482   2.255  -1.276  0.00  0.00    -0.023 C 
ATOM      9  C   UNL     1       6.051   1.056  -1.586  0.00  0.00    -0.030 C 
ATOM     10  C   UNL     1       4.617   1.119  -2.076  0.00  0.00    +0.033 C 
ATOM     11  C   UNL     1       4.092   2.459  -1.482  0.00  0.00    +0.029 C 
ATOM     12  C   UNL     1       3.676   2.185  -0.034  0.00  0.00    +0.109 C 
ATOM     13  N   UNL     1       3.494   3.463   0.661  0.00  0.00    -0.336 N 
ATOM     14  H   UNL     1       2.692   3.640   1.177  0.00  0.00    +0.147 HD
ENDROOT
BRANCH  12  15
ATOM     15  C   UNL     1       2.381   1.415  -0.019  0.00  0.00    +0.017 A 
ATOM     16  C   UNL     1       2.378   0.074   0.315  0.00  0.00    +0.029 A 
ATOM     17  C   UNL     1       1.190  -0.635   0.328  0.00  0.00    +0.043 A 
ATOM     18  C   UNL     1       0.001  -0.003   0.007  0.00  0.00    +0.043 A 
ATOM     19  C   UNL     1      -0.000   1.338  -0.328  0.00  0.00    +0.084 A 
ATOM     20  C   UNL     1       1.191   2.051  -0.342  0.00  0.00    +0.140 A 
ATOM     21 CL   UNL     1      -1.491   2.131  -0.732  0.00  0.00    -0.080 Cl
ATOM     22 CL   UNL     1       1.188  -2.317   0.755  0.00  0.00    -0.083 Cl
BRANCH  20  23
ATOM     23  O   UNL     1       1.192   3.370  -0.671  0.00  0.00    -0.505 OA
ATOM     24  H   UNL     1       0.995   3.960   0.069  0.00  0.00    +0.292 HD
ENDBRANCH  20  23
ENDBRANCH  12  15
BRANCH   6  25
ATOM     25  O   UNL     1       7.484   7.268   0.311  0.00  0.00    -0.507 OA
ATOM     26  H   UNL     1       8.292   7.035   0.788  0.00  0.00    +0.292 HD
ENDBRANCH   6  25
TORSDOF 3
