REMARK  Name = ZINC06586846
REMARK  8 active torsions:
REMARK  status: ('A' for Active; 'I' for Inactive)
REMARK    1  A    between atoms: C_1  and  N_50
REMARK    2  A    between atoms: C_2  and  C_3
REMARK    3  A    between atoms: C_2  and  N_50
REMARK    4  A    between atoms: N_5  and  C_6
REMARK    5  A    between atoms: C_11  and  S_12
REMARK    6  A    between atoms: S_12  and  C_13
REMARK    7  A    between atoms: C_14  and  C_15
REMARK    8  A    between atoms: C_14  and  N_50
REMARK                            x       y       z     vdW  Elec       q    Type
REMARK                         _______ _______ _______ _____ _____    ______ ____
ROOT
ATOM      1  C   UNL     1       2.455   0.285  -1.251  0.00  0.00    -0.095 C 
ATOM      2  N   UNL     1       2.405   1.020   0.030  0.00  0.00    +0.389 N 
ATOM      3  H   UNL     1       2.265   0.349   0.794  0.00  0.00    -0.081 HD
ENDROOT
BRANCH   2   4
ATOM      4  C   UNL     1       1.280   1.979   0.019  0.00  0.00    +0.019 C 
BRANCH   4   5
ATOM      5  C   UNL     1      -0.015   1.208   0.015  0.00  0.00    +0.201 C 
ATOM      6  O   UNL     1       0.001  -0.005   0.005  0.00  0.00    -0.278 OA
ATOM      7  N   UNL     1      -1.191   1.867   0.018  0.00  0.00    -0.286 N 
ATOM      8  H   UNL     1      -1.205   2.834   0.092  0.00  0.00    +0.155 HD
BRANCH   7   9
ATOM      9  C   UNL     1      -2.393   1.154  -0.086  0.00  0.00    +0.047 A 
ATOM     10  C   UNL     1      -2.512  -0.098   0.498  0.00  0.00    +0.024 A 
ATOM     11  C   UNL     1      -3.701  -0.797   0.399  0.00  0.00    +0.002 A 
ATOM     12  C   UNL     1      -4.770  -0.256  -0.291  0.00  0.00    +0.001 A 
ATOM     13  C   UNL     1      -4.659   0.989  -0.881  0.00  0.00    +0.016 A 
ATOM     14  C   UNL     1      -3.472   1.700  -0.782  0.00  0.00    +0.029 A 
BRANCH  14  15
ATOM     15  S   UNL     1      -3.327   3.287  -1.534  0.00  0.00    -0.127 S 
ATOM     16  C   UNL     1      -4.948   3.559  -2.301  0.00  0.00    +0.090 C 
ENDBRANCH  14  15
ENDBRANCH   7   9
ENDBRANCH   4   5
ENDBRANCH   2   4
BRANCH   2  17
ATOM     17  C   UNL     1       3.679   1.738   0.250  0.00  0.00    +0.019 C 
BRANCH  17  18
ATOM     18  C   UNL     1       4.774   0.728   0.476  0.00  0.00    +0.204 C 
ATOM     19  O   UNL     1       4.521  -0.458   0.440  0.00  0.00    -0.277 OA
ATOM     20  N   UNL     1       6.033   1.142   0.719  0.00  0.00    -0.262 N 
ATOM     21  C   UNL     1       6.365   2.574   0.768  0.00  0.00    +0.209 C 
ATOM     22  C   UNL     1       7.671   2.800   0.051  0.00  0.00    +0.235 C 
ATOM     23  O   UNL     1       7.882   3.866  -0.487  0.00  0.00    -0.274 OA
ATOM     24  N   UNL     1       8.607   1.834   0.002  0.00  0.00    -0.283 N 
ATOM     25  C   UNL     1       8.370   0.578   0.572  0.00  0.00    +0.055 A 
ATOM     26  C   UNL     1       7.069   0.221   0.939  0.00  0.00    +0.058 A 
ATOM     27  C   UNL     1       6.816  -1.017   1.502  0.00  0.00    +0.025 A 
ATOM     28  C   UNL     1       7.860  -1.902   1.711  0.00  0.00    +0.002 A 
ATOM     29  C   UNL     1       9.150  -1.551   1.358  0.00  0.00    +0.002 A 
ATOM     30  C   UNL     1       9.410  -0.314   0.780  0.00  0.00    +0.025 A 
ATOM     31  H   UNL     1       9.456   2.010  -0.434  0.00  0.00    +0.155 HD
ENDBRANCH  17  18
ENDBRANCH   2  17
TORSDOF 6
