REMARK  Name = ZINC59884787
REMARK  8 active torsions:
REMARK  status: ('A' for Active; 'I' for Inactive)
REMARK    1  A    between atoms: C_4  and  N_29
REMARK    2  A    between atoms: C_5  and  C_7
REMARK    3  A    between atoms: N_8  and  N_9
REMARK    4  A    between atoms: C_13  and  S_16
REMARK    5  A    between atoms: N_14  and  N_15
REMARK    6  A    between atoms: S_16  and  C_17
REMARK    7  A    between atoms: C_17  and  C_18
REMARK    8  A    between atoms: N_20  and  C_21
REMARK                            x       y       z     vdW  Elec       q    Type
REMARK                         _______ _______ _______ _____ _____    ______ ____
ROOT
ATOM      1  N   UNL     1       2.755  -5.134  -0.051  0.00  0.00    -0.204 N 
ATOM      2  C   UNL     1       3.886  -5.837   0.057  0.00  0.00    +0.254 A 
ATOM      3  N   UNL     1       5.133  -5.333   0.169  0.00  0.00    -0.109 NA
ATOM      4  N   UNL     1       5.980  -6.297   0.252  0.00  0.00    -0.119 NA
ATOM      5  C   UNL     1       5.329  -7.479   0.198  0.00  0.00    +0.210 A 
ATOM      6  N   UNL     1       3.994  -7.205   0.080  0.00  0.00    -0.211 N 
ATOM      7  H   UNL     1       1.904  -5.593  -0.122  0.00  0.00    +0.177 HD
ENDROOT
BRANCH   6   8
ATOM      8  N   UNL     1       2.975  -8.110  -0.001  0.00  0.00    -0.294 N 
ATOM      9  H   UNL     1       2.788  -8.359  -0.961  0.00  0.00    +0.163 HD
ATOM     10  H   UNL     1       3.174  -8.930   0.553  0.00  0.00    +0.163 HD
ENDBRANCH   6   8
BRANCH   1  12
ATOM     11  C   UNL     1       1.682  -3.153  -0.166  0.00  0.00    +0.140 C 
ATOM     12  N   UNL     1       2.795  -3.845  -0.060  0.00  0.00    -0.187 NA
BRANCH  11  17
ATOM     13  C   UNL     1       2.995   0.356  -0.194  0.00  0.00    +0.001 A 
ATOM     14  C   UNL     1       1.814   1.081  -0.195  0.00  0.00    +0.002 A 
ATOM     15  C   UNL     1       0.591   0.431  -0.188  0.00  0.00    +0.033 A 
ATOM     16  C   UNL     1       0.538  -0.945  -0.178  0.00  0.00    +0.135 A 
ATOM     17  C   UNL     1       1.728  -1.689  -0.177  0.00  0.00    +0.025 A 
ATOM     18  C   UNL     1       2.963  -1.021  -0.185  0.00  0.00    +0.012 A 
BRANCH  16  19
ATOM     19  N   UNL     1      -0.771  -1.637  -0.169  0.00  0.00    +0.057 N 
ATOM     20  O   UNL     1      -1.883  -0.941  -0.063  0.00  0.00    -0.126 OA
ATOM     21  O   UNL     1      -0.822  -2.950  -0.268  0.00  0.00    -0.126 OA
ENDBRANCH  16  19
ENDBRANCH  11  17
ENDBRANCH   1  12
BRANCH   5  22
ATOM     22  S   UNL     1       6.020  -8.986   0.269  0.00  0.00    -0.075 S 
BRANCH  22  23
ATOM     23  C   UNL     1       7.795  -8.648   0.431  0.00  0.00    +0.173 C 
BRANCH  23  24
ATOM     24  C   UNL     1       8.549  -9.950   0.506  0.00  0.00    +0.228 C 
ATOM     25  O   UNL     1       7.949 -11.003   0.456  0.00  0.00    -0.275 OA
ATOM     26  N   UNL     1       9.892  -9.945   0.630  0.00  0.00    -0.284 N 
ATOM     27  H   UNL     1      10.364  -9.107   0.753  0.00  0.00    +0.155 HD
BRANCH  26  28
ATOM     28  C   UNL     1      10.604 -11.150   0.580  0.00  0.00    +0.052 A 
ATOM     29  C   UNL     1      10.069 -12.247  -0.081  0.00  0.00    +0.026 A 
ATOM     30  C   UNL     1      10.773 -13.434  -0.128  0.00  0.00    +0.022 A 
ATOM     31  C   UNL     1      12.011 -13.531   0.483  0.00  0.00    +0.042 A 
ATOM     32  C   UNL     1      12.547 -12.439   1.143  0.00  0.00    +0.041 A 
ATOM     33  C   UNL     1      11.849 -11.247   1.188  0.00  0.00    +0.064 A 
ATOM     34 CL   UNL     1      12.525  -9.875   2.010  0.00  0.00    -0.082 Cl
ATOM     35 CL   UNL     1      12.893 -15.025   0.423  0.00  0.00    -0.083 Cl
ENDBRANCH  26  28
ENDBRANCH  23  24
ENDBRANCH  22  23
ENDBRANCH   5  22
TORSDOF 8
