REMARK  Name = ZINC22473219
REMARK  15 active torsions:
REMARK  status: ('A' for Active; 'I' for Inactive)
REMARK    1  A    between atoms: C_1  and  O_2
REMARK    2  A    between atoms: O_2  and  C_3
REMARK    3  A    between atoms: C_5  and  C_13
REMARK    4  A    between atoms: C_7  and  O_11
REMARK    5  A    between atoms: C_8  and  O_9
REMARK    6  A    between atoms: O_9  and  C_10
REMARK    7  A    between atoms: O_11  and  C_12
REMARK    8  A    between atoms: C_14  and  C_15
REMARK    9  A    between atoms: N_17  and  C_18
REMARK   10  A    between atoms: N_17  and  C_33
REMARK   11  A    between atoms: C_18  and  C_19
REMARK   12  A    between atoms: C_19  and  C_20
REMARK   13  A    between atoms: C_20  and  N_21
REMARK   14  A    between atoms: C_24  and  O_25
REMARK   15  A    between atoms: C_33  and  C_34
REMARK                            x       y       z     vdW  Elec       q    Type
REMARK                         _______ _______ _______ _____ _____    ______ ____
ROOT
ATOM      1  C   UNL     1      -6.579   2.964   1.217  0.00  0.00    +0.240 C 
ATOM      2  O   UNL     1      -6.113   2.561   2.267  0.00  0.00    -0.271 OA
ATOM      3  N   UNL     1      -6.074   2.530   0.045  0.00  0.00    -0.294 N 
ENDROOT
BRANCH   1   5
ATOM      4  C   UNL     1      -8.192   4.354   2.401  0.00  0.00    +0.013 C 
ATOM      5  C   UNL     1      -7.687   3.919   1.227  0.00  0.00    +0.068 C 
BRANCH   4   8
ATOM      6  C   UNL     1     -10.877   6.668   3.634  0.00  0.00    +0.166 A 
ATOM      7  C   UNL     1      -9.831   5.765   3.628  0.00  0.00    +0.057 A 
ATOM      8  C   UNL     1      -9.305   5.314   2.412  0.00  0.00    -0.018 A 
ATOM      9  C   UNL     1      -9.838   5.783   1.206  0.00  0.00    +0.057 A 
ATOM     10  C   UNL     1     -10.888   6.681   1.220  0.00  0.00    +0.166 A 
ATOM     11  C   UNL     1     -11.409   7.128   2.432  0.00  0.00    +0.204 A 
BRANCH   6  13
ATOM     12  C   UNL     1     -10.795   6.594   6.010  0.00  0.00    +0.277 C 
ATOM     13  O   UNL     1     -11.388   7.107   4.815  0.00  0.00    -0.491 OA
ENDBRANCH   6  13
BRANCH  11  14
ATOM     14  O   UNL     1     -12.437   8.016   2.442  0.00  0.00    -0.488 OA
ATOM     15  C   UNL     1     -12.096   9.404   2.447  0.00  0.00    +0.277 C 
ENDBRANCH  11  14
BRANCH  10  16
ATOM     16  O   UNL     1     -11.411   7.133   0.048  0.00  0.00    -0.491 OA
ATOM     17  C   UNL     1     -10.829   6.633  -1.157  0.00  0.00    +0.277 C 
ENDBRANCH  10  16
ENDBRANCH   4   8
ENDBRANCH   1   5
BRANCH   3  18
ATOM     18  C   UNL     1      -4.965   1.574   0.034  0.00  0.00    +0.110 C 
BRANCH  18  19
ATOM     19  C   UNL     1      -3.637   2.333   0.032  0.00  0.00    +0.040 C 
BRANCH  19  20
ATOM     20  C   UNL     1      -2.478   1.334   0.021  0.00  0.00    +0.114 C 
BRANCH  20  21
ATOM     21  N   UNL     1      -1.206   2.061   0.019  0.00  0.00    -0.384 N 
ATOM     22  C   UNL     1      -0.017   1.367   0.010  0.00  0.00    +0.053 A 
ATOM     23  C   UNL     1       0.002  -0.004   0.002  0.00  0.00    +0.113 A 
ATOM     24  C   UNL     1       1.228  -0.681  -0.013  0.00  0.00    +0.286 A 
ATOM     25  O   UNL     1       2.400  -0.026  -0.021  0.00  0.00    -0.425 OA
ATOM     26  C   UNL     1       2.460   1.323  -0.014  0.00  0.00    +0.141 A 
ATOM     27  C   UNL     1       1.275   2.075   0.001  0.00  0.00    +0.041 A 
ATOM     28  C   UNL     1       1.332   3.469   0.007  0.00  0.00    +0.013 A 
ATOM     29  C   UNL     1       2.556   4.101  -0.001  0.00  0.00    +0.001 A 
ATOM     30  C   UNL     1       3.727   3.357  -0.017  0.00  0.00    +0.004 A 
ATOM     31  C   UNL     1       3.684   1.979  -0.022  0.00  0.00    +0.047 A 
ATOM     32  H   UNL     1      -1.202   3.161   0.025  0.00  0.00    +0.160 HD
BRANCH  24  33
ATOM     33  O   UNL     1       1.231  -1.900  -0.020  0.00  0.00    -0.480 OA
ATOM     34  H   UNL     1       2.185  -2.448  -0.032  0.00  0.00    +0.295 HD
ENDBRANCH  24  33
ENDBRANCH  20  21
ENDBRANCH  19  20
ENDBRANCH  18  19
ENDBRANCH   3  18
BRANCH   3  35
ATOM     35  C   UNL     1      -6.635   3.016  -1.218  0.00  0.00    +0.143 C 
BRANCH  35  36
ATOM     36  C   UNL     1      -7.755   2.106  -1.653  0.00  0.00    -0.030 A 
ATOM     37  C   UNL     1      -7.488   1.018  -2.463  0.00  0.00    +0.005 A 
ATOM     38  C   UNL     1      -8.514   0.181  -2.857  0.00  0.00    +0.000 A 
ATOM     39  C   UNL     1      -9.811   0.438  -2.451  0.00  0.00    +0.000 A 
ATOM     40  C   UNL     1     -10.079   1.529  -1.645  0.00  0.00    +0.000 A 
ATOM     41  C   UNL     1      -9.051   2.363  -1.246  0.00  0.00    +0.005 A 
ENDBRANCH  35  36
ENDBRANCH   3  35
TORSDOF 12
