REMARK  Name = ZINC15792310
REMARK  8 active torsions:
REMARK  status: ('A' for Active; 'I' for Inactive)
REMARK    1  A    between atoms: C_1  and  C_2
REMARK    2  A    between atoms: C_7  and  N_12
REMARK    3  A    between atoms: C_9  and  C_11
REMARK    4  A    between atoms: C_13  and  C_15
REMARK    5  A    between atoms: C_15  and  C_16
REMARK    6  A    between atoms: C_16  and  C_17
REMARK    7  A    between atoms: N_22  and  S_25
REMARK    8  A    between atoms: S_25  and  C_28
REMARK                            x       y       z     vdW  Elec       q    Type
REMARK                         _______ _______ _______ _____ _____    ______ ____
ROOT
ATOM      1  C   UNL     1       2.182  -6.164   5.690  0.00  0.00    +0.216 C 
ATOM      2  O   UNL     1       3.006  -5.460   6.234  0.00  0.00    -0.276 OA
ATOM      3  N   UNL     1       1.917  -7.392   6.178  0.00  0.00    -0.299 N 
ATOM      4  C   UNL     1       0.925  -8.258   5.525  0.00  0.00    +0.125 C 
ATOM      5  C   UNL     1       1.593  -9.595   5.180  0.00  0.00    +0.128 C 
ATOM      6  N   UNL     1       2.292 -10.093   6.373  0.00  0.00    -0.174 NA
ATOM      7  C   UNL     1       3.284  -9.227   7.025  0.00  0.00    +0.128 C 
ATOM      8  C   UNL     1       2.620  -7.892   7.367  0.00  0.00    +0.125 C 
ENDROOT
BRANCH   6   9
ATOM      9  S   UNL     1       1.966 -11.602   6.972  0.00  0.00    +0.061 S 
ATOM     10  O   UNL     1       2.324 -11.579   8.347  0.00  0.00    -0.153 OA
ATOM     11  O   UNL     1       0.659 -11.941   6.530  0.00  0.00    -0.153 OA
BRANCH   9  12
ATOM     12  C   UNL     1       3.072 -12.725   6.183  0.00  0.00    +0.105 A 
ATOM     13  C   UNL     1       2.707 -13.335   4.997  0.00  0.00    +0.028 A 
ATOM     14  C   UNL     1       3.574 -14.216   4.378  0.00  0.00    +0.002 A 
ATOM     15  C   UNL     1       4.806 -14.486   4.944  0.00  0.00    +0.000 A 
ATOM     16  C   UNL     1       5.171 -13.875   6.129  0.00  0.00    +0.002 A 
ATOM     17  C   UNL     1       4.305 -12.991   6.746  0.00  0.00    +0.028 A 
ENDBRANCH   9  12
ENDBRANCH   6   9
BRANCH   1  18
ATOM     18  C   UNL     1       1.453  -5.665   4.469  0.00  0.00    +0.105 C 
BRANCH  18  19
ATOM     19  C   UNL     1       1.936  -4.254   4.128  0.00  0.00    +0.105 C 
BRANCH  19  21
ATOM     20  N   UNL     1       1.471  -2.526   2.420  0.00  0.00    -0.312 N 
ATOM     21  C   UNL     1       1.207  -3.754   2.907  0.00  0.00    +0.214 C 
ATOM     22  O   UNL     1       0.382  -4.458   2.364  0.00  0.00    -0.276 OA
ATOM     23  H   UNL     1       2.131  -1.963   2.855  0.00  0.00    +0.149 HD
BRANCH  20  29
ATOM     24  C   UNL     1      -0.019   1.526   0.010  0.00  0.00    +0.008 C 
ATOM     25  C   UNL     1       0.002  -0.004   0.002  0.00  0.00    -0.009 C 
ATOM     26  C   UNL     1       0.718  -0.497  -1.257  0.00  0.00    +0.003 C 
ATOM     27  C   UNL     1       0.739  -2.027  -1.265  0.00  0.00    +0.002 C 
ATOM     28  C   UNL     1       1.479  -2.534  -0.026  0.00  0.00    +0.022 C 
ATOM     29  C   UNL     1       0.763  -2.041   1.233  0.00  0.00    +0.076 C 
ATOM     30  C   UNL     1       0.742  -0.511   1.242  0.00  0.00    +0.009 C 
ATOM     31  C   UNL     1       0.026  -0.018   2.500  0.00  0.00    +0.009 C 
ENDBRANCH  20  29
ENDBRANCH  19  21
ENDBRANCH  18  19
ENDBRANCH   1  18
TORSDOF 6
