REMARK  Name = ZINC03250375
REMARK  9 active torsions:
REMARK  status: ('A' for Active; 'I' for Inactive)
REMARK    1  A    between atoms: C_1  and  C_2
REMARK    2  A    between atoms: C_5  and  N_8
REMARK    3  A    between atoms: C_9  and  C_30
REMARK    4  A    between atoms: C_11  and  C_14
REMARK    5  A    between atoms: C_12  and  C_13
REMARK    6  A    between atoms: N_20  and  C_21
REMARK    7  A    between atoms: C_21  and  C_22
REMARK    8  A    between atoms: C_25  and  O_28
REMARK    9  A    between atoms: O_28  and  C_29
REMARK                            x       y       z     vdW  Elec       q    Type
REMARK                         _______ _______ _______ _____ _____    ______ ____
ROOT
ATOM      1  C   UNL     1      -0.261   4.264  -0.388  0.00  0.00    +0.064 C 
ATOM      2  C   UNL     1      -0.684   3.788   0.783  0.00  0.00    +0.073 C 
ATOM      3  S   UNL     1      -0.254   2.152   1.276  0.00  0.00    -0.059 S 
ATOM      4  C   UNL     1       1.062   1.724   0.185  0.00  0.00    +0.176 C 
ATOM      5  N   UNL     1       1.285   2.413  -0.883  0.00  0.00    -0.160 NA
ATOM      6  N   UNL     1       0.524   3.509  -1.266  0.00  0.00    -0.234 N 
ATOM      7  N   UNL     1       1.871   0.639   0.481  0.00  0.00    -0.318 N 
ATOM      8  H   UNL     1       0.541   3.771  -2.200  0.00  0.00    +0.174 HD
ATOM      9  H   UNL     1       1.711   0.119   1.284  0.00  0.00    +0.148 HD
ENDROOT
BRANCH   1  13
ATOM     10  N   UNL     1      -0.528   7.756  -1.398  0.00  0.00    -0.317 N 
ATOM     11  C   UNL     1      -1.851   7.452  -1.242  0.00  0.00    +0.022 A 
ATOM     12  C   UNL     1      -1.953   6.166  -0.860  0.00  0.00    +0.033 A 
ATOM     13  C   UNL     1      -0.636   5.642  -0.773  0.00  0.00    +0.019 A 
ATOM     14  C   UNL     1       0.218   6.651  -1.105  0.00  0.00    +0.030 A 
ATOM     15  C   UNL     1       1.722   6.561  -1.145  0.00  0.00    +0.064 C 
ATOM     16  C   UNL     1      -3.004   8.398  -1.462  0.00  0.00    +0.064 C 
BRANCH  10  21
ATOM     17  C   UNL     1       1.530  12.803  -2.979  0.00  0.00    +0.044 C 
ATOM     18  C   UNL     1       0.983  11.463  -2.559  0.00  0.00    -0.050 A 
ATOM     19  C   UNL     1       0.314  11.337  -1.355  0.00  0.00    +0.005 A 
ATOM     20  C   UNL     1      -0.188  10.110  -0.968  0.00  0.00    +0.026 A 
ATOM     21  C   UNL     1      -0.020   9.003  -1.788  0.00  0.00    +0.047 A 
ATOM     22  C   UNL     1       0.657   9.131  -2.993  0.00  0.00    +0.026 A 
ATOM     23  C   UNL     1       1.152  10.362  -3.378  0.00  0.00    +0.005 A 
ENDBRANCH  10  21
ENDBRANCH   1  13
BRANCH   7  24
ATOM     24  C   UNL     1       2.967   0.275  -0.420  0.00  0.00    +0.138 C 
BRANCH  24  25
ATOM     25  C   UNL     1       3.687  -0.931   0.125  0.00  0.00    -0.030 A 
ATOM     26  C   UNL     1       4.760  -0.766   0.982  0.00  0.00    +0.009 A 
ATOM     27  C   UNL     1       5.418  -1.871   1.487  0.00  0.00    +0.046 A 
ATOM     28  C   UNL     1       5.008  -3.146   1.127  0.00  0.00    +0.120 A 
ATOM     29  C   UNL     1       3.935  -3.309   0.263  0.00  0.00    +0.046 A 
ATOM     30  C   UNL     1       3.276  -2.201  -0.236  0.00  0.00    +0.009 A 
BRANCH  28  31
ATOM     31  O   UNL     1       5.657  -4.234   1.619  0.00  0.00    -0.495 OA
ATOM     32  C   UNL     1       6.753  -3.991   2.503  0.00  0.00    +0.277 C 
ENDBRANCH  28  31
ENDBRANCH  24  25
ENDBRANCH   7  24
TORSDOF 5
