REMARK  Name = ZINC39653277
REMARK  14 active torsions:
REMARK  status: ('A' for Active; 'I' for Inactive)
REMARK    1  A    between atoms: C_1  and  C_2
REMARK    2  A    between atoms: C_2  and  O_3
REMARK    3  A    between atoms: O_3  and  C_4
REMARK    4  A    between atoms: C_6  and  C_12
REMARK    5  A    between atoms: C_9  and  O_10
REMARK    6  A    between atoms: O_10  and  C_11
REMARK    7  A    between atoms: C_12  and  C_13
REMARK    8  A    between atoms: C_13  and  N_14
REMARK    9  A    between atoms: C_15  and  C_17
REMARK   10  A    between atoms: C_28  and  C_30
REMARK   11  A    between atoms: C_33  and  O_38
REMARK   12  A    between atoms: C_35  and  O_36
REMARK   13  A    between atoms: O_36  and  C_37
REMARK   14  A    between atoms: O_38  and  C_39
REMARK                            x       y       z     vdW  Elec       q    Type
REMARK                         _______ _______ _______ _____ _____    ______ ____
ROOT
ATOM      1  C   UNL     1       3.991  -7.454   2.558  0.00  0.00    +0.100 C 
ATOM      2  C   UNL     1       3.615  -8.851   2.017  0.00  0.00    +0.121 C 
ATOM      3  N   UNL     1       4.416  -9.796   2.832  0.00  0.00    -0.296 N 
ATOM      4  C   UNL     1       4.375  -9.229   4.201  0.00  0.00    +0.115 C 
ATOM      5  C   UNL     1       4.488  -7.706   3.992  0.00  0.00    -0.004 C 
ATOM      6  C   UNL     1       3.604  -6.969   4.994  0.00  0.00    -0.010 C 
ATOM      7  C   UNL     1       4.153  -7.187   6.407  0.00  0.00    -0.082 C 
ATOM      8  N   UNL     1       5.532  -6.689   6.481  0.00  0.00    +0.379 N 
ATOM      9  C   UNL     1       6.393  -7.465   5.582  0.00  0.00    -0.082 C 
ATOM     10  C   UNL     1       5.940  -7.260   4.134  0.00  0.00    -0.010 C 
ATOM     11  C   UNL     1       5.042 -10.916   2.420  0.00  0.00    +0.250 C 
ATOM     12  O   UNL     1       5.066 -11.200   1.238  0.00  0.00    -0.270 OA
ATOM     13  H   UNL     1       5.552  -5.718   6.209  0.00  0.00    -0.086 HD
ATOM     14  H   UNL     1       5.870  -6.778   7.428  0.00  0.00    -0.086 HD
ENDROOT
BRANCH  11  15
ATOM     15  C   UNL     1       5.696 -11.798   3.403  0.00  0.00    +0.079 A 
ATOM     16  C   UNL     1       5.140 -11.965   4.675  0.00  0.00    +0.020 A 
ATOM     17  C   UNL     1       5.754 -12.789   5.590  0.00  0.00    +0.046 A 
ATOM     18  C   UNL     1       6.928 -13.458   5.254  0.00  0.00    +0.124 A 
ATOM     19  C   UNL     1       7.487 -13.299   3.995  0.00  0.00    +0.092 A 
ATOM     20  C   UNL     1       6.876 -12.477   3.064  0.00  0.00    +0.136 A 
BRANCH  20  21
ATOM     21  O   UNL     1       7.419 -12.324   1.830  0.00  0.00    -0.494 OA
ATOM     22  C   UNL     1       8.621 -13.047   1.556  0.00  0.00    +0.277 C 
ENDBRANCH  20  21
BRANCH  18  23
ATOM     23  O   UNL     1       7.527 -14.268   6.162  0.00  0.00    -0.495 OA
ATOM     24  C   UNL     1       6.898 -14.387   7.440  0.00  0.00    +0.277 C 
ENDBRANCH  18  23
ENDBRANCH  11  15
BRANCH   1  26
ATOM     25  N   UNL     1       2.938  -5.216   2.601  0.00  0.00    -0.315 N 
ATOM     26  C   UNL     1       2.782  -6.554   2.573  0.00  0.00    +0.218 C 
ATOM     27  O   UNL     1       1.668  -7.035   2.558  0.00  0.00    -0.275 OA
ATOM     28  H   UNL     1       3.828  -4.832   2.613  0.00  0.00    +0.149 HD
BRANCH  25  29
ATOM     29  C   UNL     1       1.762  -4.342   2.615  0.00  0.00    +0.109 C 
BRANCH  29  30
ATOM     30  C   UNL     1       2.214  -2.880   2.648  0.00  0.00    +0.054 C 
BRANCH  30  33
ATOM     31  C   UNL     1      -0.665  -0.768   3.881  0.00  0.00    +0.162 A 
ATOM     32  C   UNL     1       0.447  -1.595   3.866  0.00  0.00    +0.053 A 
ATOM     33  C   UNL     1       1.005  -1.981   2.662  0.00  0.00    -0.042 A 
ATOM     34  C   UNL     1       0.456  -1.544   1.470  0.00  0.00    +0.007 A 
ATOM     35  C   UNL     1      -0.652  -0.718   1.478  0.00  0.00    +0.049 A 
ATOM     36  C   UNL     1      -1.220  -0.332   2.682  0.00  0.00    +0.162 A 
BRANCH  36  37
ATOM     37  O   UNL     1      -2.315   0.475   2.691  0.00  0.00    -0.491 OA
ATOM     38  C   UNL     1      -2.831   0.883   1.422  0.00  0.00    +0.277 C 
ENDBRANCH  36  37
BRANCH  31  39
ATOM     39  O   UNL     1      -1.216  -0.387   5.065  0.00  0.00    -0.489 OA
BRANCH  39  41
ATOM     40  C   UNL     1      -1.346  -0.343   7.478  0.00  0.00    +0.048 C 
ATOM     41  C   UNL     1      -0.592  -0.872   6.256  0.00  0.00    +0.226 C 
ENDBRANCH  39  41
ENDBRANCH  31  39
ENDBRANCH  30  33
ENDBRANCH  29  30
ENDBRANCH  25  29
ENDBRANCH   1  26
TORSDOF 10
