REMARK  Name = ZINC33304911
REMARK  7 active torsions:
REMARK  status: ('A' for Active; 'I' for Inactive)
REMARK    1  A    between atoms: C_4  and  C_7
REMARK    2  A    between atoms: C_7  and  C_8
REMARK    3  A    between atoms: C_8  and  N_9
REMARK    4  A    between atoms: C_10  and  C_12
REMARK    5  A    between atoms: C_12  and  C_22
REMARK    6  A    between atoms: C_13  and  C_14
REMARK    7  A    between atoms: C_17  and  O_21
REMARK                            x       y       z     vdW  Elec       q    Type
REMARK                         _______ _______ _______ _____ _____    ______ ____
ROOT
ATOM      1  C   UNL     1       7.446  -2.534   2.525  0.00  0.00    +0.114 C 
ATOM      2  C   UNL     1       7.998  -2.983   3.705  0.00  0.00    +0.032 C 
ENDROOT
BRANCH   2   3
ATOM      3  C   UNL     1       7.377  -2.634   4.984  0.00  0.00    -0.022 A 
ATOM      4  C   UNL     1       5.989  -2.756   5.149  0.00  0.00    +0.011 A 
ATOM      5  C   UNL     1       5.412  -2.430   6.342  0.00  0.00    +0.047 A 
ATOM      6  C   UNL     1       6.195  -1.976   7.399  0.00  0.00    +0.131 A 
ATOM      7  C   UNL     1       7.573  -1.850   7.248  0.00  0.00    +0.060 A 
ATOM      8  C   UNL     1       8.167  -2.181   6.051  0.00  0.00    +0.027 A 
ATOM      9 BR   UNL     1       8.630  -1.232   8.689  0.00  0.00    -0.047 Br
BRANCH   6  10
ATOM     10  O   UNL     1       5.612  -1.653   8.581  0.00  0.00    -0.506 OA
ATOM     11  H   UNL     1       5.550  -2.391   9.203  0.00  0.00    +0.292 HD
ENDBRANCH   6  10
ENDBRANCH   2   3
BRANCH   1  13
ATOM     12  N   UNL     1       5.742  -1.184   1.412  0.00  0.00    -0.310 N 
ATOM     13  C   UNL     1       6.382  -1.519   2.550  0.00  0.00    +0.254 C 
ATOM     14  O   UNL     1       6.080  -0.980   3.598  0.00  0.00    -0.269 OA
ATOM     15  H   UNL     1       5.984  -1.613   0.576  0.00  0.00    +0.149 HD
BRANCH  12  16
ATOM     16  C   UNL     1       4.683  -0.173   1.437  0.00  0.00    +0.109 C 
BRANCH  16  17
ATOM     17  C   UNL     1       4.126   0.018   0.025  0.00  0.00    +0.054 C 
BRANCH  17  21
ATOM     18  C   UNL     1       1.037   2.967   0.096  0.00  0.00    +0.000 A 
ATOM     19  C   UNL     1       2.349   3.345  -0.120  0.00  0.00    +0.000 A 
ATOM     20  C   UNL     1       3.349   2.391  -0.143  0.00  0.00    +0.004 A 
ATOM     21  C   UNL     1       3.036   1.058   0.051  0.00  0.00    -0.046 A 
ATOM     22  C   UNL     1       1.724   0.680   0.267  0.00  0.00    +0.004 A 
ATOM     23  C   UNL     1       0.725   1.634   0.288  0.00  0.00    +0.000 A 
ENDBRANCH  17  21
ENDBRANCH  16  17
ENDBRANCH  12  16
ENDBRANCH   1  13
BRANCH   1  24
ATOM     24  C   UNL     1       7.907  -3.057   1.274  0.00  0.00    +0.104 C 
ATOM     25  N   UNL     1       8.274  -3.472   0.282  0.00  0.00    -0.191 NA
ENDBRANCH   1  24
TORSDOF 7
