REMARK  Name = ZINC38651918
REMARK  9 active torsions:
REMARK  status: ('A' for Active; 'I' for Inactive)
REMARK    1  A    between atoms: C_5  and  C_7
REMARK    2  A    between atoms: C_12  and  O_21
REMARK    3  A    between atoms: C_16  and  N_20
REMARK    4  A    between atoms: C_17  and  C_18
REMARK    5  A    between atoms: O_21  and  C_22
REMARK    6  A    between atoms: C_22  and  C_24
REMARK    7  A    between atoms: C_24  and  O_25
REMARK    8  A    between atoms: O_25  and  C_26
REMARK    9  A    between atoms: C_31  and  N_32
REMARK                            x       y       z     vdW  Elec       q    Type
REMARK                         _______ _______ _______ _____ _____    ______ ____
ROOT
ATOM      1  C   UNL     1       1.170  -2.176  -0.049  0.00  0.00    +0.101 C 
ATOM      2  C   UNL     1       0.500  -2.693   1.197  0.00  0.00    +0.008 A 
ATOM      3  C   UNL     1       1.210  -2.737   2.383  0.00  0.00    +0.012 A 
ATOM      4  C   UNL     1       0.613  -3.208   3.535  0.00  0.00    +0.047 A 
ATOM      5  C   UNL     1      -0.706  -3.640   3.506  0.00  0.00    +0.135 A 
ATOM      6  C   UNL     1      -1.420  -3.598   2.319  0.00  0.00    +0.093 A 
ATOM      7  C   UNL     1      -0.817  -3.123   1.161  0.00  0.00    +0.138 A 
ATOM      8  O   UNL     1      -1.529  -3.089   0.008  0.00  0.00    -0.441 OA
ATOM      9  C   UNL     1      -0.891  -3.013  -1.171  0.00  0.00    +0.199 C 
ATOM     10  C   UNL     1       0.388  -2.587  -1.264  0.00  0.00    +0.098 C 
ENDROOT
BRANCH   1  15
ATOM     11  C   UNL     1       0.153   1.454   0.153  0.00  0.00    +0.000 A 
ATOM     12  C   UNL     1       1.382   2.088   0.123  0.00  0.00    +0.003 A 
ATOM     13  C   UNL     1       2.542   1.343   0.038  0.00  0.00    +0.038 A 
ATOM     14  C   UNL     1       2.475  -0.038  -0.018  0.00  0.00    +0.127 A 
ATOM     15  C   UNL     1       1.245  -0.672   0.012  0.00  0.00    +0.000 A 
ATOM     16  C   UNL     1       0.085   0.075   0.097  0.00  0.00    +0.007 A 
ATOM     17  F   UNL     1       3.609  -0.768  -0.102  0.00  0.00    -0.205 F 
ENDBRANCH   1  15
BRANCH   9  18
ATOM     18  N   UNL     1      -1.558  -3.377  -2.314  0.00  0.00    -0.328 N 
ATOM     19  H   UNL     1      -2.477  -3.684  -2.263  0.00  0.00    +0.145 HD
ATOM     20  H   UNL     1      -1.111  -3.328  -3.174  0.00  0.00    +0.145 HD
ENDBRANCH   9  18
BRANCH  10  21
ATOM     21  C   UNL     1       1.010  -2.527  -2.553  0.00  0.00    +0.101 C 
ATOM     22  N   UNL     1       1.504  -2.480  -3.575  0.00  0.00    -0.191 NA
ENDBRANCH  10  21
BRANCH   5  23
ATOM     23  O   UNL     1      -1.296  -4.104   4.639  0.00  0.00    -0.423 OA
BRANCH  23  24
ATOM     24  C   UNL     1      -1.583  -5.414   4.709  0.00  0.00    +0.350 C 
ATOM     25  O   UNL     1      -1.225  -6.159   3.827  0.00  0.00    -0.247 OA
BRANCH  24  26
ATOM     26  C   UNL     1      -2.353  -5.954   5.886  0.00  0.00    +0.349 C 
BRANCH  26  27
ATOM     27  O   UNL     1      -2.532  -7.364   5.731  0.00  0.00    -0.478 OA
BRANCH  27  28
ATOM     28  C   UNL     1      -3.212  -8.011   6.714  0.00  0.00    +0.151 A 
ATOM     29  C   UNL     1      -3.701  -7.303   7.803  0.00  0.00    +0.048 A 
ATOM     30  C   UNL     1      -4.392  -7.963   8.800  0.00  0.00    +0.004 A 
ATOM     31  C   UNL     1      -4.596  -9.328   8.715  0.00  0.00    +0.002 A 
ATOM     32  C   UNL     1      -4.109 -10.036   7.632  0.00  0.00    +0.036 A 
ATOM     33  C   UNL     1      -3.422  -9.379   6.628  0.00  0.00    +0.168 A 
BRANCH  33  34
ATOM     34  N   UNL     1      -2.907 -10.136   5.466  0.00  0.00    +0.060 N 
ATOM     35  O   UNL     1      -3.090 -11.329   5.392  0.00  0.00    -0.126 OA
ATOM     36  O   UNL     1      -2.301  -9.562   4.591  0.00  0.00    -0.126 OA
ENDBRANCH  33  34
ENDBRANCH  27  28
ENDBRANCH  26  27
ENDBRANCH  24  26
ENDBRANCH  23  24
ENDBRANCH   5  23
TORSDOF 9
