REMARK  Name = ZINC58170281
REMARK  5 active torsions:
REMARK  status: ('A' for Active; 'I' for Inactive)
REMARK    1  A    between atoms: C_1  and  C_2
REMARK    2  A    between atoms: C_15  and  C_17
REMARK    3  A    between atoms: C_17  and  N_18
REMARK    4  A    between atoms: N_21  and  C_24
REMARK    5  A    between atoms: C_29  and  O_30
REMARK                            x       y       z     vdW  Elec       q    Type
REMARK                         _______ _______ _______ _____ _____    ______ ____
ROOT
ATOM      1  C   UNL     1      -0.019   1.526   0.010  0.00  0.00    +0.029 C 
ATOM      2  C   UNL     1       0.002  -0.004   0.002  0.00  0.00    +0.087 C 
ATOM      3  C   UNL     1       0.715  -0.496  -1.259  0.00  0.00    +0.118 C 
ATOM      4  C   UNL     1       1.097  -1.944  -1.106  0.00  0.00    +0.219 C 
ATOM      5  O   UNL     1       0.459  -2.800  -1.683  0.00  0.00    -0.275 OA
ATOM      6  N   UNL     1       2.146  -2.297  -0.332  0.00  0.00    -0.284 N 
ATOM      7  C   UNL     1       2.832  -1.333   0.416  0.00  0.00    +0.055 A 
ATOM      8  C   UNL     1       4.214  -1.255   0.377  0.00  0.00    +0.025 A 
ATOM      9  C   UNL     1       4.871  -0.309   1.143  0.00  0.00    +0.002 A 
ATOM     10  C   UNL     1       4.154   0.557   1.947  0.00  0.00    +0.002 A 
ATOM     11  C   UNL     1       2.773   0.492   1.984  0.00  0.00    +0.025 A 
ATOM     12  C   UNL     1       2.107  -0.445   1.211  0.00  0.00    +0.058 A 
ATOM     13  N   UNL     1       0.707  -0.488   1.190  0.00  0.00    -0.265 N 
ATOM     14  C   UNL     1       0.022  -0.966   2.248  0.00  0.00    +0.234 C 
ATOM     15  O   UNL     1      -1.190  -0.998   2.221  0.00  0.00    -0.274 OA
ATOM     16  H   UNL     1       2.425  -3.225  -0.293  0.00  0.00    +0.155 HD
ENDROOT
BRANCH  14  17
ATOM     17  C   UNL     1       0.762  -1.460   3.464  0.00  0.00    +0.181 C 
BRANCH  17  18
ATOM     18  N   UNL     1      -0.203  -1.925   4.469  0.00  0.00    -0.291 NA
ATOM     19  C   UNL     1      -1.016  -0.810   4.974  0.00  0.00    +0.104 C 
ATOM     20  C   UNL     1      -2.125  -1.360   5.879  0.00  0.00    +0.120 C 
ATOM     21  N   UNL     1      -1.508  -2.200   6.916  0.00  0.00    -0.325 N 
ATOM     22  C   UNL     1      -0.572  -3.253   6.494  0.00  0.00    +0.120 C 
ATOM     23  C   UNL     1       0.476  -2.629   5.565  0.00  0.00    +0.104 C 
BRANCH  21  24
ATOM     24  C   UNL     1      -1.804  -2.003   8.270  0.00  0.00    +0.072 A 
ATOM     25  C   UNL     1      -2.859  -2.686   8.858  0.00  0.00    +0.027 A 
ATOM     26  C   UNL     1      -3.149  -2.490  10.195  0.00  0.00    +0.002 A 
ATOM     27  C   UNL     1      -2.390  -1.615  10.949  0.00  0.00    +0.004 A 
ATOM     28  C   UNL     1      -1.337  -0.931  10.370  0.00  0.00    +0.047 A 
ATOM     29  C   UNL     1      -1.036  -1.126   9.033  0.00  0.00    +0.138 A 
BRANCH  29  30
ATOM     30  O   UNL     1       0.003  -0.458   8.463  0.00  0.00    -0.505 OA
ATOM     31  H   UNL     1      -0.240   0.398   8.084  0.00  0.00    +0.292 HD
ENDBRANCH  29  30
ENDBRANCH  21  24
ENDBRANCH  17  18
ENDBRANCH  14  17
TORSDOF 4
