REMARK  Name = ZINC39237598
REMARK  9 active torsions:
REMARK  status: ('A' for Active; 'I' for Inactive)
REMARK    1  A    between atoms: C_1  and  C_2
REMARK    2  A    between atoms: C_5  and  N_8
REMARK    3  A    between atoms: C_11  and  C_16
REMARK    4  A    between atoms: C_12  and  C_15
REMARK    5  A    between atoms: C_16  and  C_17
REMARK    6  A    between atoms: C_18  and  C_31
REMARK    7  A    between atoms: N_20  and  C_24
REMARK    8  A    between atoms: C_21  and  O_23
REMARK    9  A    between atoms: C_27  and  C_30
REMARK                            x       y       z     vdW  Elec       q    Type
REMARK                         _______ _______ _______ _____ _____    ______ ____
ROOT
ATOM      1  C   UNL     1       0.103  -7.541   1.475  0.00  0.00    +0.079 C 
ENDROOT
BRANCH   1   5
ATOM      2  N   UNL     1       0.059  -4.169  -0.021  0.00  0.00    -0.219 N 
ATOM      3  C   UNL     1       0.069  -4.971   1.063  0.00  0.00    +0.275 A 
ATOM      4  O   UNL     1       0.065  -4.608   2.226  0.00  0.00    -0.266 OA
ATOM      5  C   UNL     1       0.086  -6.309   0.606  0.00  0.00    +0.043 A 
ATOM      6  C   UNL     1       0.086  -6.291  -0.742  0.00  0.00    +0.039 A 
ATOM      7  N   UNL     1       0.063  -4.990  -1.157  0.00  0.00    -0.294 N 
ATOM      8  H   UNL     1       0.054  -4.686  -2.078  0.00  0.00    +0.187 HD
ATOM      9  C   UNL     1       0.101  -7.502  -1.639  0.00  0.00    +0.065 C 
BRANCH   2  14
ATOM     10  C   UNL     1      -0.018   1.503   0.010  0.00  0.00    +0.044 C 
ATOM     11  C   UNL     1       0.002  -0.004   0.002  0.00  0.00    -0.050 A 
ATOM     12  C   UNL     1       0.006  -0.687  -1.200  0.00  0.00    +0.005 A 
ATOM     13  C   UNL     1       0.025  -2.068  -1.211  0.00  0.00    +0.028 A 
ATOM     14  C   UNL     1       0.040  -2.771  -0.013  0.00  0.00    +0.067 A 
ATOM     15  C   UNL     1       0.037  -2.081   1.192  0.00  0.00    +0.028 A 
ATOM     16  C   UNL     1       0.023  -0.700   1.197  0.00  0.00    +0.005 A 
ENDBRANCH   2  14
ENDBRANCH   1   5
BRANCH   1  17
ATOM     17  C   UNL     1       1.523  -7.861   1.865  0.00  0.00    +0.001 C 
ATOM     18  C   UNL     1       2.124  -7.499   2.978  0.00  0.00    +0.023 C 
ATOM     19  N   UNL     1       3.428  -7.954   3.031  0.00  0.00    -0.266 N 
ATOM     20  N   UNL     1       3.738  -8.678   1.872  0.00  0.00    -0.221 N 
ATOM     21  C   UNL     1       2.514  -8.663   1.052  0.00  0.00    +0.249 C 
ATOM     22  C   UNL     1       1.470  -6.685   4.065  0.00  0.00    +0.062 C 
ATOM     23  H   UNL     1       4.041  -7.794   3.766  0.00  0.00    +0.170 HD
BRANCH  20  24
ATOM     24  C   UNL     1       4.954  -9.291   1.561  0.00  0.00    +0.051 A 
ATOM     25  C   UNL     1       5.103  -9.970   0.358  0.00  0.00    +0.025 A 
ATOM     26  C   UNL     1       6.307 -10.575   0.054  0.00  0.00    +0.005 A 
ATOM     27  C   UNL     1       7.363 -10.505   0.944  0.00  0.00    -0.050 A 
ATOM     28  C   UNL     1       7.217  -9.829   2.142  0.00  0.00    +0.005 A 
ATOM     29  C   UNL     1       6.018  -9.217   2.450  0.00  0.00    +0.025 A 
ATOM     30  C   UNL     1       8.675 -11.166   0.608  0.00  0.00    +0.044 C 
ENDBRANCH  20  24
BRANCH  21  31
ATOM     31  O   UNL     1       2.032  -9.993   0.848  0.00  0.00    -0.369 OA
ATOM     32  H   UNL     1       2.628 -10.553   0.332  0.00  0.00    +0.212 HD
ENDBRANCH  21  31
ENDBRANCH   1  17
TORSDOF 5
