REMARK  Name = ZINC35374466
REMARK  8 active torsions:
REMARK  status: ('A' for Active; 'I' for Inactive)
REMARK    1  A    between atoms: C_1  and  C_2
REMARK    2  A    between atoms: C_2  and  C_3
REMARK    3  A    between atoms: C_3  and  C_5
REMARK    4  A    between atoms: C_3  and  C_6
REMARK    5  A    between atoms: C_6  and  N_7
REMARK    6  A    between atoms: C_8  and  C_10
REMARK    7  A    between atoms: C_21  and  C_23
REMARK    8  A    between atoms: C_27  and  N_29
REMARK                            x       y       z     vdW  Elec       q    Type
REMARK                         _______ _______ _______ _____ _____    ______ ____
ROOT
ATOM      1  C   UNL     1      -5.657  -4.378   1.476  0.00  0.00    +0.028 C 
ATOM      2  C   UNL     1      -6.333  -4.178   2.867  0.00  0.00    +0.061 C 
ATOM      3  S   UNL     1      -7.368  -5.707   2.919  0.00  0.00    -0.174 S 
ATOM      4  C   UNL     1      -6.451  -6.687   1.666  0.00  0.00    -0.016 C 
ATOM      5  N   UNL     1      -5.317  -5.807   1.319  0.00  0.00    +0.397 N 
ATOM      6  C   UNL     1      -5.961  -7.987   2.286  0.00  0.00    +0.017 C 
ATOM      7  C   UNL     1      -5.173  -8.786   1.242  0.00  0.00    +0.107 C 
ATOM      8  N   UNL     1      -6.003  -8.938   0.039  0.00  0.00    -0.298 N 
ATOM      9  C   UNL     1      -6.558  -7.734  -0.595  0.00  0.00    +0.107 C 
ATOM     10  C   UNL     1      -7.340  -6.940   0.458  0.00  0.00    +0.017 C 
ATOM     11  C   UNL     1      -6.250 -10.159  -0.474  0.00  0.00    +0.247 C 
ATOM     12  O   UNL     1      -5.730 -11.142   0.018  0.00  0.00    -0.270 OA
ATOM     13  H   UNL     1      -5.054  -5.977   0.359  0.00  0.00    -0.083 HD
ATOM     14  H   UNL     1      -4.534  -6.026   1.916  0.00  0.00    -0.083 HD
ENDROOT
BRANCH  11  15
ATOM     15  C   UNL     1      -7.155 -10.305  -1.634  0.00  0.00    +0.039 A 
ATOM     16  C   UNL     1      -6.959  -9.528  -2.777  0.00  0.00    +0.013 A 
ATOM     17  C   UNL     1      -7.806  -9.668  -3.857  0.00  0.00    +0.003 A 
ATOM     18  C   UNL     1      -8.849 -10.577  -3.808  0.00  0.00    +0.033 A 
ATOM     19  C   UNL     1      -9.049 -11.350  -2.678  0.00  0.00    +0.127 A 
ATOM     20  C   UNL     1      -8.205 -11.223  -1.594  0.00  0.00    +0.045 A 
BRANCH  19  21
ATOM     21  N   UNL     1     -10.167 -12.319  -2.634  0.00  0.00    +0.056 N 
ATOM     22  O   UNL     1     -10.904 -12.434  -3.585  0.00  0.00    -0.126 OA
ATOM     23  O   UNL     1     -10.343 -12.995  -1.647  0.00  0.00    -0.126 OA
ENDBRANCH  19  21
ENDBRANCH  11  15
BRANCH   1  25
ATOM     24  N   UNL     1      -4.475  -2.206   1.512  0.00  0.00    -0.316 N 
ATOM     25  C   UNL     1      -4.403  -3.547   1.398  0.00  0.00    +0.200 C 
ATOM     26  O   UNL     1      -3.328  -4.085   1.234  0.00  0.00    -0.278 OA
ATOM     27  H   UNL     1      -5.335  -1.776   1.644  0.00  0.00    +0.149 HD
BRANCH  24  28
ATOM     28  C   UNL     1      -3.256  -1.398   1.436  0.00  0.00    +0.107 C 
BRANCH  28  29
ATOM     29  C   UNL     1      -3.613   0.081   1.593  0.00  0.00    +0.003 C 
ATOM     30  C   UNL     1      -4.469   0.528   0.406  0.00  0.00    +0.009 C 
BRANCH  29  32
ATOM     31  C   UNL     1      -2.682   2.377   1.920  0.00  0.00    +0.004 C 
ATOM     32  C   UNL     1      -2.331   0.914   1.639  0.00  0.00    +0.001 C 
ENDBRANCH  29  32
ENDBRANCH  28  29
ENDBRANCH  24  28
ENDBRANCH   1  25
TORSDOF 6
