REMARK  Name = ZINC34749326
REMARK  12 active torsions:
REMARK  status: ('A' for Active; 'I' for Inactive)
REMARK    1  A    between atoms: C_1  and  C_2
REMARK    2  A    between atoms: C_2  and  C_3
REMARK    3  A    between atoms: C_4  and  C_37
REMARK    4  A    between atoms: N_10  and  C_27
REMARK    5  A    between atoms: N_16  and  C_19
REMARK    6  A    between atoms: C_19  and  C_20
REMARK    7  A    between atoms: N_22  and  C_23
REMARK    8  A    between atoms: N_22  and  C_25
REMARK    9  A    between atoms: C_23  and  C_24
REMARK   10  A    between atoms: C_25  and  C_26
REMARK   11  A    between atoms: C_27  and  C_28
REMARK   12  A    between atoms: N_30  and  C_31
REMARK                            x       y       z     vdW  Elec       q    Type
REMARK                         _______ _______ _______ _____ _____    ______ ____
ROOT
ATOM      1  C   UNL     1       0.715  -0.434  -1.297  0.00  0.00    -0.023 A 
ATOM      2  C   UNL     1       0.058  -0.582  -2.457  0.00  0.00    -0.007 A 
ATOM      3  S   UNL     1       1.332  -1.098  -3.592  0.00  0.00    -0.073 S 
ATOM      4  C   UNL     1       2.711  -1.100  -2.475  0.00  0.00    +0.117 A 
ATOM      5  C   UNL     1       2.144  -0.694  -1.253  0.00  0.00    +0.076 A 
ATOM      6  C   UNL     1       3.048  -0.601  -0.148  0.00  0.00    +0.264 A 
ATOM      7  O   UNL     1       2.646  -0.261   0.952  0.00  0.00    -0.267 OA
ATOM      8  N   UNL     1       4.347  -0.893  -0.339  0.00  0.00    -0.271 N 
ATOM      9  C   UNL     1       4.815  -1.274  -1.562  0.00  0.00    +0.202 A 
ATOM     10  N   UNL     1       4.004  -1.379  -2.594  0.00  0.00    -0.208 NA
ATOM     11  N   UNL     1       6.148  -1.563  -1.716  0.00  0.00    -0.304 N 
ATOM     12  C   UNL     1       6.652  -2.932  -1.526  0.00  0.00    +0.089 C 
ATOM     13  C   UNL     1       7.503  -3.310  -2.742  0.00  0.00    -0.059 C 
ATOM     14  N   UNL     1       8.551  -2.301  -2.938  0.00  0.00    +0.387 N 
ATOM     15  C   UNL     1       7.943  -1.006  -3.269  0.00  0.00    -0.059 C 
ATOM     16  C   UNL     1       7.112  -0.515  -2.084  0.00  0.00    +0.089 C 
ATOM     17  C   UNL     1      -1.407  -0.364  -2.734  0.00  0.00    +0.052 C 
ATOM     18  H   UNL     1       9.092  -2.210  -2.091  0.00  0.00    -0.081 HD
ENDROOT
BRANCH   1  20
ATOM     19  C   UNL     1      -0.006   1.530   0.034  0.00  0.00    +0.009 C 
ATOM     20  C   UNL     1      -0.019   0.003  -0.055  0.00  0.00    +0.033 C 
ENDBRANCH   1  20
BRANCH  14  21
ATOM     21  C   UNL     1       9.434  -2.720  -4.035  0.00  0.00    +0.019 C 
BRANCH  21  22
ATOM     22  C   UNL     1      10.579  -1.748  -4.157  0.00  0.00    +0.199 C 
ATOM     23  O   UNL     1      10.654  -0.800  -3.404  0.00  0.00    -0.278 OA
ATOM     24  N   UNL     1      11.522  -1.933  -5.103  0.00  0.00    -0.304 N 
BRANCH  24  25
ATOM     25  C   UNL     1      11.432  -3.078  -6.012  0.00  0.00    +0.104 C 
ATOM     26  C   UNL     1      10.629  -2.682  -7.253  0.00  0.00    +0.024 C 
ENDBRANCH  24  25
BRANCH  24  27
ATOM     27  C   UNL     1      12.635  -0.989  -5.221  0.00  0.00    +0.104 C 
ATOM     28  C   UNL     1      13.795  -1.454  -4.339  0.00  0.00    +0.024 C 
ENDBRANCH  24  27
ENDBRANCH  21  22
ENDBRANCH  14  21
BRANCH   8  29
ATOM     29  C   UNL     1       5.278  -0.799   0.789  0.00  0.00    +0.223 C 
BRANCH  29  30
ATOM     30  C   UNL     1       5.269  -2.096   1.556  0.00  0.00    +0.233 C 
ATOM     31  O   UNL     1       4.556  -3.009   1.197  0.00  0.00    -0.274 OA
ATOM     32  N   UNL     1       6.054  -2.241   2.642  0.00  0.00    -0.311 N 
ATOM     33  H   UNL     1       6.624  -1.511   2.930  0.00  0.00    +0.149 HD
BRANCH  32  34
ATOM     34  C   UNL     1       6.046  -3.502   3.388  0.00  0.00    +0.073 C 
ATOM     35  C   UNL     1       7.018  -4.487   2.736  0.00  0.00    +0.022 C 
ATOM     36  C   UNL     1       7.009  -5.804   3.515  0.00  0.00    +0.002 C 
ATOM     37  C   UNL     1       7.440  -5.544   4.960  0.00  0.00    +0.000 C 
ATOM     38  C   UNL     1       6.468  -4.559   5.612  0.00  0.00    +0.002 C 
ATOM     39  C   UNL     1       6.477  -3.242   4.833  0.00  0.00    +0.022 C 
ENDBRANCH  32  34
ENDBRANCH  29  30
ENDBRANCH   8  29
TORSDOF 8
