REMARK  Name = ZINC20763754
REMARK  10 active torsions:
REMARK  status: ('A' for Active; 'I' for Inactive)
REMARK    1  A    between atoms: C_1  and  C_2
REMARK    2  A    between atoms: C_2  and  C_4
REMARK    3  A    between atoms: C_2  and  N_11
REMARK    4  A    between atoms: C_4  and  C_5
REMARK    5  A    between atoms: N_11  and  C_12
REMARK    6  A    between atoms: C_12  and  C_13
REMARK    7  A    between atoms: N_15  and  C_16
REMARK    8  A    between atoms: C_18  and  N_26
REMARK    9  A    between atoms: N_26  and  C_27
REMARK   10  A    between atoms: N_26  and  C_28
REMARK                            x       y       z     vdW  Elec       q    Type
REMARK                         _______ _______ _______ _____ _____    ______ ____
ROOT
ATOM      1  C   UNL     1       0.623  -0.573  -3.634  0.00  0.00    +0.200 C 
ATOM      2  O   UNL     1       1.666  -1.183  -3.537  0.00  0.00    -0.278 OA
ATOM      3  N   UNL     1       0.089  -0.339  -4.849  0.00  0.00    -0.286 N 
ATOM      4  H   UNL     1      -0.784   0.077  -4.923  0.00  0.00    +0.155 HD
ENDROOT
BRANCH   3   5
ATOM      5  C   UNL     1       0.789  -0.695  -5.997  0.00  0.00    +0.046 A 
ATOM      6  C   UNL     1       2.166  -0.806  -5.984  0.00  0.00    +0.067 A 
ATOM      7  C   UNL     1       2.842  -1.166  -7.154  0.00  0.00    +0.123 A 
ATOM      8  N   UNL     1       2.198  -1.404  -8.279  0.00  0.00    -0.232 NA
ATOM      9  C   UNL     1       0.865  -1.313  -8.357  0.00  0.00    +0.075 A 
ATOM     10  C   UNL     1       0.112  -0.961  -7.212  0.00  0.00    +0.022 A 
ATOM     11  C   UNL     1      -1.284  -0.874  -7.300  0.00  0.00    +0.012 A 
ATOM     12  C   UNL     1      -1.903  -1.136  -8.486  0.00  0.00    +0.001 A 
ATOM     13  C   UNL     1      -1.165  -1.490  -9.612  0.00  0.00    +0.002 A 
ATOM     14  C   UNL     1       0.193  -1.570  -9.564  0.00  0.00    +0.028 A 
BRANCH   7  15
ATOM     15  N   UNL     1       4.225  -1.274  -7.129  0.00  0.00    -0.321 N 
ATOM     16  C   UNL     1       4.950  -1.121  -5.865  0.00  0.00    +0.130 C 
ATOM     17  C   UNL     1       4.960  -1.542  -8.368  0.00  0.00    +0.130 C 
ENDBRANCH   7  15
ENDBRANCH   3   5
BRANCH   1  18
ATOM     18  C   UNL     1      -0.077  -0.076  -2.395  0.00  0.00    +0.015 C 
BRANCH  18  19
ATOM     19  N   UNL     1       0.701  -0.455  -1.208  0.00  0.00    +0.387 N 
ATOM     20  H   UNL     1       1.621  -0.044  -1.263  0.00  0.00    -0.085 HD
ATOM     21  H   UNL     1       0.784  -1.460  -1.167  0.00  0.00    -0.085 HD
BRANCH  19  23
ATOM     22  C   UNL     1       0.005   1.560  -0.002  0.00  0.00    -0.013 C 
ATOM     23  C   UNL     1       0.019   0.030  -0.000  0.00  0.00    -0.070 C 
BRANCH  23  24
ATOM     24  C   UNL     1       0.761  -0.472   1.240  0.00  0.00    +0.019 C 
BRANCH  24  25
ATOM     25  C   UNL     1       0.670  -1.974   1.307  0.00  0.00    -0.049 A 
ATOM     26  C   UNL     1      -0.383  -2.574   1.972  0.00  0.00    +0.003 A 
ATOM     27  C   UNL     1      -0.467  -3.953   2.034  0.00  0.00    +0.000 A 
ATOM     28  C   UNL     1       0.503  -4.731   1.430  0.00  0.00    +0.000 A 
ATOM     29  C   UNL     1       1.555  -4.132   0.764  0.00  0.00    +0.000 A 
ATOM     30  C   UNL     1       1.637  -2.753   0.699  0.00  0.00    +0.003 A 
ENDBRANCH  24  25
ENDBRANCH  23  24
ENDBRANCH  19  23
ENDBRANCH  18  19
ENDBRANCH   1  18
TORSDOF 7
