REMARK  Name = ZINC08140641
REMARK  9 active torsions:
REMARK  status: ('A' for Active; 'I' for Inactive)
REMARK    1  A    between atoms: C_1  and  C_2
REMARK    2  A    between atoms: C_7  and  N_12
REMARK    3  A    between atoms: C_9  and  C_11
REMARK    4  A    between atoms: C_13  and  C_15
REMARK    5  A    between atoms: C_15  and  C_17
REMARK    6  A    between atoms: C_15  and  S_18
REMARK    7  A    between atoms: S_18  and  C_19
REMARK    8  A    between atoms: C_22  and  C_25
REMARK    9  A    between atoms: N_23  and  N_24
REMARK                            x       y       z     vdW  Elec       q    Type
REMARK                         _______ _______ _______ _____ _____    ______ ____
ROOT
ATOM      1  C   UNL     1      -2.989   3.658   5.098  0.00  0.00    +0.137 C 
ATOM      2  C   UNL     1      -4.030   2.575   4.808  0.00  0.00    +0.029 C 
ENDROOT
BRANCH   1   4
ATOM      3  N   UNL     1      -3.531   4.464   7.372  0.00  0.00    -0.311 N 
ATOM      4  C   UNL     1      -3.572   4.677   6.042  0.00  0.00    +0.226 C 
ATOM      5  O   UNL     1      -4.078   5.689   5.605  0.00  0.00    -0.275 OA
ATOM      6  H   UNL     1      -3.126   3.655   7.722  0.00  0.00    +0.149 HD
BRANCH   3  12
ATOM      7  C   UNL     1      -6.324   6.441   9.920  0.00  0.00    +0.008 C 
ATOM      8  C   UNL     1      -5.089   5.803  10.558  0.00  0.00    -0.009 C 
ATOM      9  C   UNL     1      -4.047   6.885  10.847  0.00  0.00    +0.003 C 
ATOM     10  C   UNL     1      -3.648   7.572   9.539  0.00  0.00    +0.002 C 
ATOM     11  C   UNL     1      -3.056   6.537   8.580  0.00  0.00    +0.022 C 
ATOM     12  C   UNL     1      -4.098   5.455   8.291  0.00  0.00    +0.076 C 
ATOM     13  C   UNL     1      -4.496   4.768   9.599  0.00  0.00    +0.009 C 
ATOM     14  C   UNL     1      -5.538   3.685   9.309  0.00  0.00    +0.009 C 
ENDBRANCH   3  12
ENDBRANCH   1   4
BRANCH   1  15
ATOM     15  S   UNL     1      -2.517   4.470   3.550  0.00  0.00    -0.072 S 
BRANCH  15  16
ATOM     16  C   UNL     1      -1.749   3.120   2.718  0.00  0.00    +0.209 A 
ATOM     17  N   UNL     1      -1.606   1.899   3.178  0.00  0.00    -0.121 NA
ATOM     18  N   UNL     1      -1.005   1.171   2.305  0.00  0.00    -0.123 NA
ATOM     19  C   UNL     1      -0.722   1.881   1.250  0.00  0.00    +0.255 A 
ATOM     20  N   UNL     1      -1.189   3.147   1.473  0.00  0.00    -0.220 N 
BRANCH  19  21
ATOM     21  C   UNL     1      -0.017   1.395   0.010  0.00  0.00    +0.454 C 
ATOM     22  F   UNL     1       0.002  -0.004   0.002  0.00  0.00    -0.163 F 
ATOM     23  F   UNL     1       1.296   1.879  -0.000  0.00  0.00    -0.163 F 
ATOM     24  F   UNL     1      -0.694   1.858  -1.124  0.00  0.00    -0.163 F 
ENDBRANCH  19  21
BRANCH  20  25
ATOM     25  N   UNL     1      -1.111   4.216   0.626  0.00  0.00    -0.295 N 
ATOM     26  H   UNL     1      -1.920   4.260   0.024  0.00  0.00    +0.163 HD
ATOM     27  H   UNL     1      -0.996   5.076   1.140  0.00  0.00    +0.163 HD
ENDBRANCH  20  25
ENDBRANCH  15  16
ENDBRANCH   1  15
TORSDOF 6
