REMARK  Name = ZINC06408717
REMARK  12 active torsions:
REMARK  status: ('A' for Active; 'I' for Inactive)
REMARK    1  A    between atoms: C_1  and  C_2
REMARK    2  A    between atoms: C_9  and  C_14
REMARK    3  A    between atoms: C_14  and  C_16
REMARK    4  A    between atoms: C_14  and  N_64
REMARK    5  A    between atoms: N_20  and  C_21
REMARK    6  A    between atoms: C_21  and  C_22
REMARK    7  A    between atoms: C_22  and  O_23
REMARK    8  A    between atoms: O_23  and  C_24
REMARK    9  A    between atoms: C_25  and  C_26
REMARK   10  A    between atoms: C_25  and  N_64
REMARK   11  A    between atoms: C_32  and  C_33
REMARK   12  A    between atoms: C_32  and  N_64
REMARK                            x       y       z     vdW  Elec       q    Type
REMARK                         _______ _______ _______ _____ _____    ______ ____
ROOT
ATOM      1  C   UNL     1       5.411  -1.415  -1.714  0.00  0.00    +0.040 C 
ENDROOT
BRANCH   1  10
ATOM      2  C   UNL     1       5.707  -7.133   3.065  0.00  0.00    +0.044 C 
ATOM      3  C   UNL     1       5.511  -6.593   1.671  0.00  0.00    -0.050 A 
ATOM      4  C   UNL     1       5.243  -7.467   0.626  0.00  0.00    +0.005 A 
ATOM      5  C   UNL     1       5.060  -6.996  -0.655  0.00  0.00    +0.026 A 
ATOM      6  C   UNL     1       5.146  -5.631  -0.908  0.00  0.00    +0.049 A 
ATOM      7  C   UNL     1       5.419  -4.748   0.154  0.00  0.00    -0.001 A 
ATOM      8  C   UNL     1       5.601  -5.249   1.447  0.00  0.00    +0.013 A 
ATOM      9  C   UNL     1       5.514  -3.313  -0.123  0.00  0.00    +0.017 A 
ATOM     10  C   UNL     1       5.325  -2.885  -1.395  0.00  0.00    +0.011 A 
ATOM     11  C   UNL     1       5.054  -3.812  -2.424  0.00  0.00    +0.251 A 
ATOM     12  O   UNL     1       4.891  -3.407  -3.562  0.00  0.00    -0.268 OA
ATOM     13  N   UNL     1       4.969  -5.132  -2.181  0.00  0.00    -0.322 N 
ATOM     14  H   UNL     1       4.781  -5.742  -2.911  0.00  0.00    +0.169 HD
ENDBRANCH   1  10
BRANCH   1  15
ATOM     15  C   UNL     1       6.138  -1.225  -3.020  0.00  0.00    +0.143 A 
ATOM     16  N   UNL     1       5.662  -1.452  -4.220  0.00  0.00    -0.115 NA
ATOM     17  N   UNL     1       6.585  -1.170  -5.074  0.00  0.00    -0.023 NA
ATOM     18  N   UNL     1       7.637  -0.769  -4.449  0.00  0.00    -0.044 NA
ATOM     19  N   UNL     1       7.399  -0.784  -3.181  0.00  0.00    -0.228 N 
BRANCH  19  20
ATOM     20  C   UNL     1       8.329  -0.397  -2.117  0.00  0.00    +0.175 C 
BRANCH  20  21
ATOM     21  C   UNL     1       9.136  -1.619  -1.675  0.00  0.00    +0.183 C 
BRANCH  21  22
ATOM     22  O   UNL     1      10.042  -1.242  -0.637  0.00  0.00    -0.381 OA
ATOM     23  C   UNL     1      10.848  -2.317  -0.150  0.00  0.00    +0.194 C 
ENDBRANCH  21  22
ENDBRANCH  20  21
ENDBRANCH  19  20
ENDBRANCH   1  15
BRANCH   1  24
ATOM     24  N   UNL     1       4.059  -0.830  -1.831  0.00  0.00    +0.395 N 
ATOM     25  H   UNL     1       4.139   0.125  -2.200  0.00  0.00    -0.079 HD
BRANCH  24  26
ATOM     26  C   UNL     1       3.413  -0.779  -0.503  0.00  0.00    -0.041 C 
BRANCH  26  27
ATOM     27  C   UNL     1       3.982   0.385   0.266  0.00  0.00    -0.064 A 
ATOM     28  C   UNL     1       3.473   1.656   0.074  0.00  0.00    +0.002 A 
ATOM     29  C   UNL     1       3.995   2.724   0.780  0.00  0.00    +0.000 A 
ATOM     30  C   UNL     1       5.027   2.521   1.677  0.00  0.00    +0.000 A 
ATOM     31  C   UNL     1       5.536   1.250   1.869  0.00  0.00    +0.000 A 
ATOM     32  C   UNL     1       5.014   0.182   1.164  0.00  0.00    +0.002 A 
ENDBRANCH  26  27
ENDBRANCH  24  26
BRANCH  24  33
ATOM     33  C   UNL     1       3.239  -1.636  -2.761  0.00  0.00    -0.034 C 
BRANCH  33  34
ATOM     34  C   UNL     1       1.949  -0.906  -3.029  0.00  0.00    -0.027 A 
ATOM     35  C   UNL     1       1.650  -0.039  -4.027  0.00  0.00    +0.009 A 
ATOM     36  C   UNL     1       0.385   0.516  -4.077  0.00  0.00    +0.008 A 
ATOM     37  C   UNL     1      -0.519   0.177  -3.126  0.00  0.00    +0.045 A 
ATOM     38  S   UNL     1       0.413  -0.965  -2.120  0.00  0.00    -0.103 S 
ENDBRANCH  33  34
ENDBRANCH  24  33
ENDBRANCH   1  24
TORSDOF 10
