REMARK  Name = ZINC09638937
REMARK  7 active torsions:
REMARK  status: ('A' for Active; 'I' for Inactive)
REMARK    1  A    between atoms: C_1  and  C_2
REMARK    2  A    between atoms: C_2  and  O_3
REMARK    3  A    between atoms: O_3  and  C_4
REMARK    4  A    between atoms: C_12  and  N_17
REMARK    5  A    between atoms: C_13  and  C_14
REMARK    6  A    between atoms: C_18  and  C_20
REMARK    7  A    between atoms: C_24  and  N_29
REMARK                            x       y       z     vdW  Elec       q    Type
REMARK                         _______ _______ _______ _____ _____    ______ ____
ROOT
ATOM      1  C   UNL     1      -8.036  -5.214   1.116  0.00  0.00    +0.403 C 
ATOM      2  O   UNL     1      -9.211  -4.973   1.308  0.00  0.00    -0.226 OA
ATOM      3  N   UNL     1      -7.316  -4.437   0.283  0.00  0.00    -0.262 N 
ATOM      4  C   UNL     1      -7.924  -3.290  -0.407  0.00  0.00    +0.116 C 
ATOM      5  C   UNL     1      -7.269  -1.994   0.075  0.00  0.00    +0.056 C 
ATOM      6  C   UNL     1      -5.754  -2.159   0.049  0.00  0.00    -0.020 A 
ATOM      7  C   UNL     1      -5.181  -3.382   0.034  0.00  0.00    +0.013 A 
ATOM      8  S   UNL     1      -3.440  -3.070   0.013  0.00  0.00    -0.076 S 
ATOM      9  C   UNL     1      -3.467  -1.337   0.030  0.00  0.00    +0.085 A 
ATOM     10  C   UNL     1      -4.823  -1.043   0.044  0.00  0.00    +0.068 A 
ATOM     11  C   UNL     1      -5.886  -4.705   0.030  0.00  0.00    +0.153 C 
ENDROOT
BRANCH  10  12
ATOM     12  C   UNL     1      -5.299   0.344   0.055  0.00  0.00    +0.244 C 
ATOM     13  O   UNL     1      -5.507   0.924  -0.995  0.00  0.00    -0.270 OA
ATOM     14  N   UNL     1      -5.507   0.977   1.226  0.00  0.00    -0.325 N 
ATOM     15  H   UNL     1      -5.341   0.514   2.063  0.00  0.00    +0.145 HD
ATOM     16  H   UNL     1      -5.822   1.894   1.233  0.00  0.00    +0.145 HD
ENDBRANCH  10  12
BRANCH   9  17
ATOM     17  N   UNL     1      -2.395  -0.459   0.023  0.00  0.00    -0.275 N 
ATOM     18  C   UNL     1      -1.135  -0.935   0.009  0.00  0.00    +0.255 C 
ATOM     19  O   UNL     1      -0.937  -2.136   0.001  0.00  0.00    -0.269 OA
ATOM     20  H   UNL     1      -2.553   0.498   0.030  0.00  0.00    +0.156 HD
BRANCH  18  21
ATOM     21  C   UNL     1       0.002  -0.004   0.002  0.00  0.00    +0.075 A 
ATOM     22  C   UNL     1       1.331  -0.290  -0.012  0.00  0.00    +0.029 A 
ATOM     23  C   UNL     1       2.274   0.754  -0.016  0.00  0.00    -0.008 A 
ATOM     24  C   UNL     1       3.689   0.660  -0.030  0.00  0.00    +0.041 A 
ATOM     25  C   UNL     1       4.460   1.778  -0.032  0.00  0.00    +0.127 A 
ATOM     26  C   UNL     1       3.899   3.050  -0.020  0.00  0.00    +0.034 A 
ATOM     27  C   UNL     1       2.526   3.187  -0.005  0.00  0.00    +0.018 A 
ATOM     28  C   UNL     1       1.730   2.061  -0.003  0.00  0.00    +0.020 A 
ATOM     29  S   UNL     1      -0.022   1.780   0.012  0.00  0.00    -0.084 S 
BRANCH  25  30
ATOM     30  N   UNL     1       5.933   1.639  -0.048  0.00  0.00    +0.056 N 
ATOM     31  O   UNL     1       6.639   2.632  -0.050  0.00  0.00    -0.126 OA
ATOM     32  O   UNL     1       6.441   0.532  -0.058  0.00  0.00    -0.126 OA
ENDBRANCH  25  30
ENDBRANCH  18  21
ENDBRANCH   9  17
BRANCH   1  33
ATOM     33  O   UNL     1      -7.454  -6.258   1.735  0.00  0.00    -0.451 OA
BRANCH  33  35
ATOM     34  C   UNL     1      -7.460  -8.184   3.225  0.00  0.00    +0.048 C 
ATOM     35  C   UNL     1      -8.290  -7.052   2.618  0.00  0.00    +0.230 C 
ENDBRANCH  33  35
ENDBRANCH   1  33
TORSDOF 6
