REMARK  Name = ZINC39677797
REMARK  10 active torsions:
REMARK  status: ('A' for Active; 'I' for Inactive)
REMARK    1  A    between atoms: C_1  and  O_2
REMARK    2  A    between atoms: O_2  and  C_3
REMARK    3  A    between atoms: C_5  and  C_11
REMARK    4  A    between atoms: C_7  and  O_9
REMARK    5  A    between atoms: O_9  and  C_10
REMARK    6  A    between atoms: C_15  and  C_24
REMARK    7  A    between atoms: N_26  and  C_27
REMARK    8  A    between atoms: C_27  and  C_28
REMARK    9  A    between atoms: N_31  and  C_35
REMARK   10  A    between atoms: C_35  and  C_36
REMARK                            x       y       z     vdW  Elec       q    Type
REMARK                         _______ _______ _______ _____ _____    ______ ____
ROOT
ATOM      1  C   UNL     1       1.389  -4.114   2.218  0.00  0.00    +0.247 C 
ATOM      2  O   UNL     1       0.794  -4.784   1.397  0.00  0.00    -0.270 OA
ATOM      3  N   UNL     1       2.095  -4.716   3.195  0.00  0.00    -0.296 N 
ATOM      4  C   UNL     1       2.774  -4.080   4.349  0.00  0.00    +0.121 C 
ATOM      5  C   UNL     1       2.518  -5.043   5.531  0.00  0.00    +0.100 C 
ATOM      6  C   UNL     1       2.255  -6.409   4.875  0.00  0.00    -0.004 C 
ATOM      7  C   UNL     1       2.363  -6.165   3.362  0.00  0.00    +0.115 C 
ATOM      8  C   UNL     1       0.855  -6.902   5.224  0.00  0.00    -0.010 C 
ATOM      9  C   UNL     1       0.637  -8.287   4.608  0.00  0.00    -0.082 C 
ATOM     10  N   UNL     1       1.649  -9.218   5.123  0.00  0.00    +0.379 N 
ATOM     11  C   UNL     1       2.987  -8.786   4.703  0.00  0.00    -0.082 C 
ATOM     12  C   UNL     1       3.304  -7.422   5.323  0.00  0.00    -0.010 C 
ATOM     13  H   UNL     1       1.604  -9.237   6.130  0.00  0.00    -0.086 HD
ATOM     14  H   UNL     1       1.467 -10.143   4.763  0.00  0.00    -0.086 HD
ENDROOT
BRANCH   1  17
ATOM     15  C   UNL     1       2.313  -0.492   2.631  0.00  0.00    +0.124 A 
ATOM     16  C   UNL     1       2.364  -1.874   2.703  0.00  0.00    +0.059 A 
ATOM     17  C   UNL     1       1.339  -2.638   2.144  0.00  0.00    +0.044 A 
ATOM     18  C   UNL     1       0.266  -2.005   1.516  0.00  0.00    +0.059 A 
ATOM     19  C   UNL     1       0.223  -0.622   1.449  0.00  0.00    +0.124 A 
ATOM     20  C   UNL     1       1.242   0.134   2.010  0.00  0.00    +0.091 A 
BRANCH  15  22
ATOM     21  C   UNL     1       3.192   1.673   3.071  0.00  0.00    +0.277 C 
ATOM     22  O   UNL     1       3.311   0.253   3.175  0.00  0.00    -0.495 OA
ENDBRANCH  15  22
BRANCH  19  23
ATOM     23  O   UNL     1      -0.822  -0.005   0.837  0.00  0.00    -0.495 OA
ATOM     24  C   UNL     1      -0.802   1.424   0.804  0.00  0.00    +0.277 C 
ENDBRANCH  19  23
ENDBRANCH   1  17
BRANCH   5  25
ATOM     25  C   UNL     1       1.315  -4.597   6.321  0.00  0.00    +0.218 C 
ATOM     26  O   UNL     1       0.373  -4.086   5.753  0.00  0.00    -0.275 OA
ATOM     27  N   UNL     1       1.286  -4.766   7.657  0.00  0.00    -0.313 N 
ATOM     28  H   UNL     1       2.039  -5.175   8.111  0.00  0.00    +0.149 HD
BRANCH  27  29
ATOM     29  C   UNL     1       0.116  -4.333   8.425  0.00  0.00    +0.137 C 
BRANCH  29  30
ATOM     30  C   UNL     1       0.338  -4.637   9.908  0.00  0.00    +0.149 C 
ATOM     31  C   UNL     1      -0.885  -4.186  10.711  0.00  0.00    +0.118 C 
ATOM     32  N   UNL     1      -0.700  -4.551  12.123  0.00  0.00    -0.293 NA
ATOM     33  C   UNL     1      -0.510  -6.002  12.266  0.00  0.00    +0.113 C 
ATOM     34  C   UNL     1       0.709  -6.434  11.447  0.00  0.00    +0.175 C 
ATOM     35  O   UNL     1       0.526  -6.044  10.084  0.00  0.00    -0.372 OA
BRANCH  32  36
ATOM     36  C   UNL     1      -1.829  -4.085  12.940  0.00  0.00    +0.119 C 
BRANCH  36  37
ATOM     37  C   UNL     1      -1.496  -4.254  14.400  0.00  0.00    -0.033 A 
ATOM     38  C   UNL     1      -1.807  -5.435  15.048  0.00  0.00    +0.005 A 
ATOM     39  C   UNL     1      -1.502  -5.590  16.387  0.00  0.00    +0.000 A 
ATOM     40  C   UNL     1      -0.884  -4.564  17.078  0.00  0.00    +0.000 A 
ATOM     41  C   UNL     1      -0.572  -3.384  16.430  0.00  0.00    +0.000 A 
ATOM     42  C   UNL     1      -0.873  -3.231  15.090  0.00  0.00    +0.005 A 
ENDBRANCH  36  37
ENDBRANCH  32  36
ENDBRANCH  29  30
ENDBRANCH  27  29
ENDBRANCH   5  25
TORSDOF 8
