REMARK  Name = ZINC06184328
REMARK  5 active torsions:
REMARK  status: ('A' for Active; 'I' for Inactive)
REMARK    1  A    between atoms: C_1  and  C_2
REMARK    2  A    between atoms: C_3  and  C_15
REMARK    3  A    between atoms: C_4  and  O_14
REMARK    4  A    between atoms: N_5  and  C_7
REMARK    5  A    between atoms: C_17  and  O_25
REMARK                            x       y       z     vdW  Elec       q    Type
REMARK                         _______ _______ _______ _____ _____    ______ ____
ROOT
ATOM      1  C   UNL     1       0.794  -4.483  -2.007  0.00  0.00    +0.068 C 
ATOM      2  C   UNL     1      -0.137  -4.006  -0.922  0.00  0.00    +0.071 A 
ATOM      3  C   UNL     1       0.080  -2.896  -0.070  0.00  0.00    +0.060 A 
ATOM      4  C   UNL     1      -1.024  -2.810   0.775  0.00  0.00    +0.223 A 
ATOM      5  N   UNL     1      -1.855  -3.822   0.446  0.00  0.00    -0.200 N 
ATOM      6  N   UNL     1      -1.280  -4.546  -0.604  0.00  0.00    -0.168 NA
ENDROOT
BRANCH   3   7
ATOM      7  C   UNL     1       1.241  -2.004  -0.079  0.00  0.00    +0.028 C 
ATOM      8  C   UNL     1       2.024  -1.899   1.022  0.00  0.00    +0.062 C 
ATOM      9  C   UNL     1       3.135  -0.870   1.109  0.00  0.00    +0.238 C 
ATOM     10  N   UNL     1       3.920  -0.850   2.355  0.00  0.00    -0.298 N 
ATOM     11  C   UNL     1       3.615  -1.727   3.329  0.00  0.00    +0.139 C 
ATOM     12  S   UNL     1       4.535  -1.693   4.773  0.00  0.00    -0.018 S 
ATOM     13  N   UNL     1       2.629  -2.623   3.223  0.00  0.00    -0.264 N 
ATOM     14  C   UNL     1       1.840  -2.746   2.144  0.00  0.00    +0.250 C 
ATOM     15  O   UNL     1       0.963  -3.590   2.129  0.00  0.00    -0.270 OA
ATOM     16  H   UNL     1       4.644  -0.215   2.472  0.00  0.00    +0.150 HD
ATOM     17  H   UNL     1       2.471  -3.217   3.973  0.00  0.00    +0.157 HD
BRANCH   9  18
ATOM     18  O   UNL     1       4.036  -1.099   0.023  0.00  0.00    -0.370 OA
ATOM     19  H   UNL     1       4.783  -0.486  -0.004  0.00  0.00    +0.212 HD
ENDBRANCH   9  18
ENDBRANCH   3   7
BRANCH   5  20
ATOM     20  C   UNL     1      -3.088  -4.100   1.053  0.00  0.00    +0.069 A 
ATOM     21  C   UNL     1      -3.256  -3.884   2.414  0.00  0.00    +0.029 A 
ATOM     22  C   UNL     1      -4.473  -4.153   3.010  0.00  0.00    +0.022 A 
ATOM     23  C   UNL     1      -5.520  -4.650   2.253  0.00  0.00    +0.041 A 
ATOM     24  C   UNL     1      -5.353  -4.872   0.897  0.00  0.00    +0.022 A 
ATOM     25  C   UNL     1      -4.140  -4.598   0.296  0.00  0.00    +0.029 A 
ATOM     26 CL   UNL     1      -7.046  -4.994   3.006  0.00  0.00    -0.084 Cl
ENDBRANCH   5  20
BRANCH   4  27
ATOM     27  O   UNL     1      -1.226  -1.886   1.743  0.00  0.00    -0.492 OA
ATOM     28  H   UNL     1      -1.731  -1.114   1.451  0.00  0.00    +0.294 HD
ENDBRANCH   4  27
TORSDOF 4
