REMARK  Name = ZINC65117151
REMARK  8 active torsions:
REMARK  status: ('A' for Active; 'I' for Inactive)
REMARK    1  A    between atoms: C_1  and  C_2
REMARK    2  A    between atoms: C_2  and  C_3
REMARK    3  A    between atoms: C_2  and  N_11
REMARK    4  A    between atoms: C_3  and  C_4
REMARK    5  A    between atoms: C_12  and  C_14
REMARK    6  A    between atoms: C_14  and  C_15
REMARK    7  A    between atoms: C_14  and  N_22
REMARK    8  A    between atoms: C_15  and  C_16
REMARK                            x       y       z     vdW  Elec       q    Type
REMARK                         _______ _______ _______ _____ _____    ______ ____
ROOT
ATOM      1  C   UNL     1       2.783  -1.099   2.395  0.00  0.00    +0.165 C 
ENDROOT
BRANCH   1   2
ATOM      2  N   UNL     1       4.188  -0.692   2.325  0.00  0.00    -0.288 N 
ATOM      3  C   UNL     1       4.958  -1.100   1.296  0.00  0.00    +0.298 C 
ATOM      4  O   UNL     1       4.485  -1.807   0.427  0.00  0.00    -0.253 OA
ATOM      5  N   UNL     1       6.251  -0.726   1.232  0.00  0.00    -0.313 N 
ATOM      6  H   UNL     1       4.565  -0.129   3.018  0.00  0.00    +0.151 HD
ATOM      7  H   UNL     1       6.628  -0.163   1.926  0.00  0.00    +0.146 HD
ATOM      8  H   UNL     1       6.805  -1.020   0.492  0.00  0.00    +0.146 HD
ENDBRANCH   1   2
BRANCH   1  10
ATOM      9  N   UNL     1       0.711  -0.489   1.189  0.00  0.00    -0.311 N 
ATOM     10  C   UNL     1       2.054  -0.600   1.174  0.00  0.00    +0.234 C 
ATOM     11  O   UNL     1       2.676  -0.297   0.177  0.00  0.00    -0.274 OA
ATOM     12  H   UNL     1       0.213  -0.731   1.986  0.00  0.00    +0.149 HD
BRANCH   9  14
ATOM     13  C   UNL     1      -0.019   1.526   0.010  0.00  0.00    +0.028 C 
ATOM     14  C   UNL     1       0.002  -0.004   0.002  0.00  0.00    +0.074 C 
BRANCH  14  15
ATOM     15  C   UNL     1      -1.433  -0.534   0.013  0.00  0.00    +0.060 C 
BRANCH  15  16
ATOM     16  C   UNL     1      -1.416  -2.035  -0.119  0.00  0.00    -0.010 A 
ATOM     17  C   UNL     1      -1.554  -2.621  -1.363  0.00  0.00    +0.006 A 
ATOM     18  C   UNL     1      -1.538  -3.998  -1.485  0.00  0.00    +0.000 A 
ATOM     19  C   UNL     1      -1.384  -4.790  -0.362  0.00  0.00    +0.003 A 
ATOM     20  C   UNL     1      -1.246  -4.206   0.883  0.00  0.00    +0.038 A 
ATOM     21  C   UNL     1      -1.256  -2.827   1.005  0.00  0.00    +0.127 A 
ATOM     22  F   UNL     1      -1.116  -2.255   2.221  0.00  0.00    -0.205 F 
ENDBRANCH  15  16
ENDBRANCH  14  15
ENDBRANCH   9  14
ENDBRANCH   1  10
BRANCH   1  23
ATOM     23  C   UNL     1       2.696  -2.626   2.452  0.00  0.00    +0.067 C 
BRANCH  23  24
ATOM     24  C   UNL     1       3.317  -3.116   3.734  0.00  0.00    -0.045 A 
ATOM     25  C   UNL     1       4.666  -3.417   3.777  0.00  0.00    +0.004 A 
ATOM     26  C   UNL     1       5.236  -3.867   4.954  0.00  0.00    +0.000 A 
ATOM     27  C   UNL     1       4.458  -4.016   6.086  0.00  0.00    +0.000 A 
ATOM     28  C   UNL     1       3.109  -3.715   6.043  0.00  0.00    +0.000 A 
ATOM     29  C   UNL     1       2.540  -3.261   4.868  0.00  0.00    +0.004 A 
ENDBRANCH  23  24
ENDBRANCH   1  23
TORSDOF 7
