REMARK  Name = ZINC15018486
REMARK  7 active torsions:
REMARK  status: ('A' for Active; 'I' for Inactive)
REMARK    1  A    between atoms: C_4  and  C_7
REMARK    2  A    between atoms: C_8  and  C_9
REMARK    3  A    between atoms: C_10  and  C_11
REMARK    4  A    between atoms: C_10  and  N_28
REMARK    5  A    between atoms: N_13  and  N_14
REMARK    6  A    between atoms: C_18  and  N_25
REMARK    7  A    between atoms: C_29  and  C_31
REMARK                            x       y       z     vdW  Elec       q    Type
REMARK                         _______ _______ _______ _____ _____    ______ ____
ROOT
ATOM      1  C   UNL     1       5.096  -2.793  -0.104  0.00  0.00    +0.028 C 
ATOM      2  C   UNL     1       4.921  -4.145  -0.099  0.00  0.00    +0.098 C 
ENDROOT
BRANCH   2   3
ATOM      3  C   UNL     1       6.085  -5.033  -0.154  0.00  0.00    +0.277 C 
ATOM      4  O   UNL     1       6.654  -5.355   0.872  0.00  0.00    -0.267 OA
ATOM      5  N   UNL     1       6.524  -5.495  -1.342  0.00  0.00    -0.201 N 
ATOM      6  H   UNL     1       6.116  -5.183  -2.165  0.00  0.00    +0.178 HD
BRANCH   5   7
ATOM      7  N   UNL     1       7.569  -6.427  -1.388  0.00  0.00    -0.174 NA
ATOM      8  C   UNL     1       7.931  -6.951  -2.535  0.00  0.00    +0.153 C 
ATOM      9  C   UNL     1       8.928  -8.023  -2.762  0.00  0.00    +0.030 A 
ATOM     10  C   UNL     1       9.741  -8.764  -1.912  0.00  0.00    +0.044 A 
ATOM     11  C   UNL     1      10.591  -9.717  -2.435  0.00  0.00    +0.127 A 
ATOM     12  C   UNL     1      10.632  -9.935  -3.802  0.00  0.00    +0.034 A 
ATOM     13  C   UNL     1       9.829  -9.204  -4.655  0.00  0.00    +0.026 A 
ATOM     14  C   UNL     1       8.967  -8.239  -4.146  0.00  0.00    +0.043 A 
ATOM     15  N   UNL     1       8.069  -7.380  -4.771  0.00  0.00    -0.280 N 
ATOM     16  C   UNL     1       7.428  -6.606  -3.879  0.00  0.00    +0.269 C 
ATOM     17  O   UNL     1       6.585  -5.767  -4.135  0.00  0.00    -0.268 OA
ATOM     18  H   UNL     1       7.921  -7.348  -5.729  0.00  0.00    +0.155 HD
BRANCH  11  19
ATOM     19  N   UNL     1      11.458 -10.509  -1.534  0.00  0.00    +0.056 N 
ATOM     20  O   UNL     1      11.423 -10.319  -0.341  0.00  0.00    -0.126 OA
ATOM     21  O   UNL     1      12.203 -11.344  -1.992  0.00  0.00    -0.126 OA
ENDBRANCH  11  19
ENDBRANCH   5   7
ENDBRANCH   2   3
BRANCH   2  22
ATOM     22  N   UNL     1       3.634  -4.683  -0.041  0.00  0.00    -0.277 N 
ATOM     23  C   UNL     1       3.464  -6.014   0.080  0.00  0.00    +0.248 C 
ATOM     24  O   UNL     1       4.428  -6.737   0.241  0.00  0.00    -0.270 OA
ATOM     25  H   UNL     1       2.861  -4.098  -0.087  0.00  0.00    +0.155 HD
BRANCH  23  26
ATOM     26  C   UNL     1       2.107  -6.595   0.015  0.00  0.00    +0.037 A 
ATOM     27  C   UNL     1       1.010  -5.784  -0.283  0.00  0.00    +0.013 A 
ATOM     28  C   UNL     1      -0.254  -6.333  -0.341  0.00  0.00    +0.001 A 
ATOM     29  C   UNL     1      -0.437  -7.684  -0.104  0.00  0.00    +0.000 A 
ATOM     30  C   UNL     1       0.646  -8.493   0.192  0.00  0.00    +0.001 A 
ATOM     31  C   UNL     1       1.916  -7.959   0.247  0.00  0.00    +0.013 A 
ENDBRANCH  23  26
ENDBRANCH   2  22
BRANCH   1  33
ATOM     32  C   UNL     1       4.149  -0.596  -0.056  0.00  0.00    +0.008 C 
ATOM     33  C   UNL     1       3.976  -1.938  -0.051  0.00  0.00    +0.003 C 
BRANCH  32  37
ATOM     34  C   UNL     1       0.782   1.977   0.102  0.00  0.00    +0.000 A 
ATOM     35  C   UNL     1       2.056   2.514   0.046  0.00  0.00    +0.001 A 
ATOM     36  C   UNL     1       3.156   1.685  -0.006  0.00  0.00    +0.008 A 
ATOM     37  C   UNL     1       2.982   0.297  -0.001  0.00  0.00    -0.025 A 
ATOM     38  C   UNL     1       1.690  -0.238   0.057  0.00  0.00    +0.008 A 
ATOM     39  C   UNL     1       0.601   0.605   0.108  0.00  0.00    +0.001 A 
ENDBRANCH  32  37
ENDBRANCH   1  33
TORSDOF 7
