REMARK  Name = ZINC40986964
REMARK  11 active torsions:
REMARK  status: ('A' for Active; 'I' for Inactive)
REMARK    1  A    between atoms: C_1  and  C_2
REMARK    2  A    between atoms: C_2  and  C_3
REMARK    3  A    between atoms: C_3  and  C_4
REMARK    4  A    between atoms: C_4  and  S_5
REMARK    5  A    between atoms: S_5  and  C_6
REMARK    6  A    between atoms: C_11  and  C_20
REMARK    7  A    between atoms: C_13  and  C_17
REMARK    8  A    between atoms: C_14  and  C_16
REMARK    9  A    between atoms: C_24  and  O_26
REMARK   10  A    between atoms: O_26  and  C_27
REMARK   11  A    between atoms: C_27  and  C_28
REMARK                            x       y       z     vdW  Elec       q    Type
REMARK                         _______ _______ _______ _____ _____    ______ ____
ROOT
ATOM      1  C   UNL     1       1.968  -4.421   2.311  0.00  0.00    +0.210 A 
ATOM      2  N   UNL     1       1.349  -5.097   1.333  0.00  0.00    -0.187 NA
ATOM      3  C   UNL     1       1.317  -6.367   1.633  0.00  0.00    +0.219 A 
ATOM      4  N   UNL     1       1.924  -6.531   2.834  0.00  0.00    -0.220 N 
ATOM      5  N   UNL     1       2.342  -5.267   3.247  0.00  0.00    -0.141 NA
ATOM      6  C   UNL     1       2.068  -7.825   3.497  0.00  0.00    +0.177 C 
ATOM      7  C   UNL     1       1.725  -8.925   2.528  0.00  0.00    +0.060 C 
ATOM      8  C   UNL     1       1.127  -8.702   1.349  0.00  0.00    +0.018 C 
ATOM      9  N   UNL     1       0.790  -7.440   0.927  0.00  0.00    -0.287 N 
ATOM     10  C   UNL     1       0.816  -9.876   0.457  0.00  0.00    +0.061 C 
ATOM     11  H   UNL     1       0.205  -7.303   0.165  0.00  0.00    +0.155 HD
ENDROOT
BRANCH   6  12
ATOM     12  C   UNL     1       1.138  -7.890   4.681  0.00  0.00    -0.015 A 
ATOM     13  C   UNL     1      -0.227  -7.765   4.495  0.00  0.00    +0.006 A 
ATOM     14  C   UNL     1      -1.083  -7.824   5.578  0.00  0.00    +0.004 A 
ATOM     15  C   UNL     1      -0.577  -8.007   6.851  0.00  0.00    +0.045 A 
ATOM     16  C   UNL     1       0.792  -8.133   7.040  0.00  0.00    +0.121 A 
ATOM     17  C   UNL     1       1.648  -8.079   5.950  0.00  0.00    +0.051 A 
BRANCH  16  18
ATOM     18  O   UNL     1       1.292  -8.313   8.291  0.00  0.00    -0.487 OA
BRANCH  18  19
ATOM     19  C   UNL     1       0.351  -8.364   9.365  0.00  0.00    +0.266 C 
BRANCH  19  20
ATOM     20  C   UNL     1       1.084  -8.568  10.666  0.00  0.00    +0.008 A 
ATOM     21  C   UNL     1       2.463  -8.668  10.674  0.00  0.00    +0.008 A 
ATOM     22  C   UNL     1       3.135  -8.855  11.867  0.00  0.00    +0.000 A 
ATOM     23  C   UNL     1       2.429  -8.943  13.053  0.00  0.00    +0.001 A 
ATOM     24  C   UNL     1       1.051  -8.843  13.046  0.00  0.00    +0.020 A 
ATOM     25  C   UNL     1       0.378  -8.650  11.852  0.00  0.00    +0.047 A 
ATOM     26 CL   UNL     1      -1.353  -8.518  11.844  0.00  0.00    -0.083 Cl
ENDBRANCH  19  20
ENDBRANCH  18  19
ENDBRANCH  16  18
ENDBRANCH   6  12
BRANCH   7  27
ATOM     27  C   UNL     1       2.049 -10.258   2.879  0.00  0.00    +0.241 C 
ATOM     28  O   UNL     1       3.206 -10.634   2.837  0.00  0.00    -0.271 OA
ATOM     29  N   UNL     1       1.077 -11.110   3.259  0.00  0.00    -0.325 N 
ATOM     30  H   UNL     1       0.155 -10.810   3.292  0.00  0.00    +0.145 HD
ATOM     31  H   UNL     1       1.299 -12.023   3.499  0.00  0.00    +0.145 HD
ENDBRANCH   7  27
BRANCH   1  32
ATOM     32  S   UNL     1       2.245  -2.681   2.335  0.00  0.00    -0.084 S 
BRANCH  32  33
ATOM     33  C   UNL     1       1.504  -2.097   0.786  0.00  0.00    +0.077 C 
BRANCH  33  34
ATOM     34  C   UNL     1       1.676  -0.581   0.678  0.00  0.00    +0.011 C 
BRANCH  34  36
ATOM     35  C   UNL     1       1.222   1.428  -0.736  0.00  0.00    +0.004 C 
ATOM     36  C   UNL     1       1.050  -0.088  -0.628  0.00  0.00    -0.003 C 
ENDBRANCH  34  36
ENDBRANCH  33  34
ENDBRANCH  32  33
ENDBRANCH   1  32
TORSDOF 9
