REMARK  Name = ZINC32806079
REMARK  9 active torsions:
REMARK  status: ('A' for Active; 'I' for Inactive)
REMARK    1  A    between atoms: C_1  and  C_2
REMARK    2  A    between atoms: C_2  and  C_3
REMARK    3  A    between atoms: C_4  and  C_12
REMARK    4  A    between atoms: C_12  and  N_13
REMARK    5  A    between atoms: N_13  and  C_14
REMARK    6  A    between atoms: N_13  and  C_15
REMARK    7  A    between atoms: C_15  and  C_16
REMARK    8  A    between atoms: N_18  and  N_19
REMARK    9  A    between atoms: C_25  and  C_28
REMARK                            x       y       z     vdW  Elec       q    Type
REMARK                         _______ _______ _______ _____ _____    ______ ____
ROOT
ATOM      1  C   UNL     1       4.031   5.688  -2.994  0.00  0.00    +0.213 C 
ATOM      2  O   UNL     1       3.557   4.985  -3.861  0.00  0.00    -0.276 OA
ATOM      3  N   UNL     1       5.113   6.447  -3.258  0.00  0.00    -0.225 N 
ATOM      4  H   UNL     1       5.542   7.085  -2.471  0.00  0.00    +0.173 HD
ENDROOT
BRANCH   3   5
ATOM      5  N   UNL     1       5.690   6.425  -4.534  0.00  0.00    -0.137 N 
ATOM      6  C   UNL     1       5.559   7.413  -5.443  0.00  0.00    +0.263 C 
ATOM      7  O   UNL     1       4.942   8.449  -5.317  0.00  0.00    -0.271 OA
ATOM      8  C   UNL     1       6.342   6.956  -6.652  0.00  0.00    +0.114 C 
ATOM      9  C   UNL     1       7.478   7.929  -6.948  0.00  0.00    +0.035 C 
ATOM     10  C   UNL     1       8.275   7.434  -8.158  0.00  0.00    +0.006 C 
ATOM     11  C   UNL     1       7.347   7.324  -9.369  0.00  0.00    -0.014 C 
ATOM     12  C   UNL     1       6.227   6.327  -9.066  0.00  0.00    +0.006 C 
ATOM     13  C   UNL     1       5.421   6.817  -7.860  0.00  0.00    +0.035 C 
ATOM     14  C   UNL     1       8.145   6.841 -10.581  0.00  0.00    +0.007 C 
ATOM     15  N   UNL     1       6.875   5.646  -6.258  0.00  0.00    -0.284 N 
ATOM     16  C   UNL     1       6.445   5.423  -5.001  0.00  0.00    +0.326 C 
ATOM     17  O   UNL     1       6.710   4.423  -4.363  0.00  0.00    -0.251 OA
ATOM     18  H   UNL     1       7.494   5.069  -6.961  0.00  0.00    +0.151 HD
ENDBRANCH   3   5
BRANCH   1  19
ATOM     19  C   UNL     1       3.410   5.712  -1.621  0.00  0.00    +0.020 C 
BRANCH  19  20
ATOM     20  N   UNL     1       2.254   4.806  -1.591  0.00  0.00    +0.386 N 
ATOM     21  C   UNL     1       1.181   5.292  -2.468  0.00  0.00    -0.095 C 
ATOM     22  H   UNL     1       2.582   3.826  -1.969  0.00  0.00    -0.081 HD
BRANCH  20  23
ATOM     23  C   UNL     1       1.767   4.620  -0.217  0.00  0.00    -0.039 C 
BRANCH  23  25
ATOM     24  C   UNL     1       1.384   2.111   0.010  0.00  0.00    +0.107 A 
ATOM     25  C   UNL     1       0.936   3.365  -0.144  0.00  0.00    -0.015 A 
ATOM     26  C   UNL     1      -0.526   3.269  -0.228  0.00  0.00    +0.022 A 
ATOM     27  C   UNL     1      -1.556   4.196  -0.387  0.00  0.00    +0.012 A 
ATOM     28  C   UNL     1      -2.853   3.766  -0.427  0.00  0.00    +0.001 A 
ATOM     29  C   UNL     1      -3.150   2.416  -0.311  0.00  0.00    +0.004 A 
ATOM     30  C   UNL     1      -2.145   1.486  -0.153  0.00  0.00    +0.047 A 
ATOM     31  C   UNL     1      -0.820   1.901  -0.110  0.00  0.00    +0.135 A 
ATOM     32  O   UNL     1       0.352   1.250   0.036  0.00  0.00    -0.459 OA
BRANCH  24  34
ATOM     33  C   UNL     1       3.237   1.744   1.617  0.00  0.00    +0.012 C 
ATOM     34  C   UNL     1       2.834   1.723   0.141  0.00  0.00    +0.071 C 
ENDBRANCH  24  34
ENDBRANCH  23  25
ENDBRANCH  20  23
ENDBRANCH  19  20
ENDBRANCH   1  19
TORSDOF 6
