REMARK  Name = ZINC22130792
REMARK  10 active torsions:
REMARK  status: ('A' for Active; 'I' for Inactive)
REMARK    1  A    between atoms: C_1  and  N_2
REMARK    2  A    between atoms: N_2  and  S_3
REMARK    3  A    between atoms: S_3  and  C_6
REMARK    4  A    between atoms: C_9  and  N_15
REMARK    5  A    between atoms: C_10  and  N_12
REMARK    6  A    between atoms: N_18  and  C_21
REMARK    7  A    between atoms: C_21  and  C_23
REMARK    8  A    between atoms: C_21  and  C_30
REMARK    9  A    between atoms: C_30  and  O_32
REMARK   10  A    between atoms: O_32  and  C_33
REMARK                            x       y       z     vdW  Elec       q    Type
REMARK                         _______ _______ _______ _____ _____    ______ ____
ROOT
ATOM      1  N   UNL     1      -1.819   4.442  -5.425  0.00  0.00    -0.326 N 
ATOM      2  C   UNL     1      -0.488   4.802  -5.934  0.00  0.00    +0.120 C 
ATOM      3  C   UNL     1      -0.641   5.638  -7.207  0.00  0.00    +0.104 C 
ATOM      4  N   UNL     1      -1.430   6.841  -6.909  0.00  0.00    -0.283 NA
ATOM      5  C   UNL     1      -2.761   6.481  -6.400  0.00  0.00    +0.104 C 
ATOM      6  C   UNL     1      -2.608   5.646  -5.127  0.00  0.00    +0.120 C 
ENDROOT
BRANCH   1  10
ATOM      7  C   UNL     1      -1.522   1.984  -2.078  0.00  0.00    +0.108 A 
ATOM      8  C   UNL     1      -1.039   3.279  -2.028  0.00  0.00    +0.030 A 
ATOM      9  C   UNL     1      -1.131   4.095  -3.138  0.00  0.00    +0.027 A 
ATOM     10  C   UNL     1      -1.720   3.618  -4.302  0.00  0.00    +0.060 A 
ATOM     11  C   UNL     1      -2.208   2.318  -4.347  0.00  0.00    +0.149 A 
ATOM     12  C   UNL     1      -2.108   1.506  -3.235  0.00  0.00    +0.063 A 
BRANCH   7  13
ATOM     13  S   UNL     1      -1.396   0.943  -0.661  0.00  0.00    +0.058 S 
ATOM     14  O   UNL     1      -2.416  -0.038  -0.787  0.00  0.00    -0.153 OA
ATOM     15  O   UNL     1      -1.300   1.802   0.466  0.00  0.00    -0.153 OA
BRANCH  13  17
ATOM     16  C   UNL     1       1.308   0.888  -0.708  0.00  0.00    +0.127 C 
ATOM     17  N   UNL     1       0.049   0.141  -0.770  0.00  0.00    -0.193 NA
ATOM     18  H   UNL     1       0.053  -0.922  -1.052  0.00  0.00    +0.148 HD
ENDBRANCH  13  17
ENDBRANCH   7  13
BRANCH  11  19
ATOM     19  N   UNL     1      -2.836   1.806  -5.586  0.00  0.00    +0.058 N 
ATOM     20  O   UNL     1      -3.264   0.666  -5.625  0.00  0.00    -0.126 OA
ATOM     21  O   UNL     1      -2.924   2.523  -6.566  0.00  0.00    -0.126 OA
ENDBRANCH  11  19
ENDBRANCH   1  10
BRANCH   4  22
ATOM     22  C   UNL     1      -1.534   7.708  -8.090  0.00  0.00    +0.198 C 
BRANCH  22  23
ATOM     23  C   UNL     1      -0.154   8.108  -8.543  0.00  0.00    -0.001 A 
ATOM     24  C   UNL     1       0.412   7.505  -9.650  0.00  0.00    +0.007 A 
ATOM     25  C   UNL     1       1.678   7.871 -10.066  0.00  0.00    +0.000 A 
ATOM     26  C   UNL     1       2.379   8.842  -9.375  0.00  0.00    +0.001 A 
ATOM     27  C   UNL     1       1.815   9.446  -8.268  0.00  0.00    +0.020 A 
ATOM     28  C   UNL     1       0.545   9.083  -7.854  0.00  0.00    +0.046 A 
ATOM     29 CL   UNL     1      -0.168   9.847  -6.468  0.00  0.00    -0.083 Cl
ENDBRANCH  22  23
BRANCH  22  30
ATOM     30  C   UNL     1      -2.232   6.964  -9.199  0.00  0.00    +0.329 C 
ATOM     31  O   UNL     1      -2.603   5.828  -9.024  0.00  0.00    -0.249 OA
BRANCH  30  32
ATOM     32  O   UNL     1      -2.440   7.564 -10.382  0.00  0.00    -0.467 OA
ATOM     33  C   UNL     1      -3.118   6.787 -11.405  0.00  0.00    +0.280 C 
ENDBRANCH  30  32
ENDBRANCH  22  30
ENDBRANCH   4  22
TORSDOF 8
