REMARK  Name = ZINC32104647
REMARK  5 active torsions:
REMARK  status: ('A' for Active; 'I' for Inactive)
REMARK    1  A    between atoms: C_5  and  C_7
REMARK    2  A    between atoms: C_7  and  N_8
REMARK    3  A    between atoms: C_9  and  C_11
REMARK    4  A    between atoms: C_11  and  C_12
REMARK    5  A    between atoms: C_14  and  O_25
REMARK                            x       y       z     vdW  Elec       q    Type
REMARK                         _______ _______ _______ _____ _____    ______ ____
ROOT
ATOM      1  C   UNL     1       1.840  -6.041   2.952  0.00  0.00    +0.167 C 
ATOM      2  C   UNL     1       2.220  -6.548   4.315  0.00  0.00    +0.209 C 
ATOM      3  N   UNL     1       1.593  -6.207   5.379  0.00  0.00    -0.215 NA
ATOM      4  C   UNL     1       0.544  -5.348   5.447  0.00  0.00    +0.079 A 
ATOM      5  C   UNL     1       0.524  -4.438   6.516  0.00  0.00    +0.028 A 
ATOM      6  C   UNL     1      -0.513  -3.547   6.657  0.00  0.00    +0.002 A 
ATOM      7  C   UNL     1      -1.556  -3.539   5.744  0.00  0.00    +0.001 A 
ATOM      8  C   UNL     1      -1.556  -4.418   4.686  0.00  0.00    +0.015 A 
ATOM      9  C   UNL     1      -0.504  -5.332   4.518  0.00  0.00    +0.062 A 
ATOM     10  C   UNL     1      -0.555  -6.223   3.354  0.00  0.00    +0.247 C 
ATOM     11  O   UNL     1      -1.632  -6.696   3.043  0.00  0.00    -0.270 OA
ATOM     12  N   UNL     1       0.509  -6.548   2.613  0.00  0.00    -0.299 N 
ATOM     13  H   UNL     1       0.400  -7.127   1.843  0.00  0.00    +0.150 HD
ENDROOT
BRANCH   2  14
ATOM     14  O   UNL     1       3.262  -7.395   4.423  0.00  0.00    -0.494 OA
ATOM     15  H   UNL     1       3.447  -7.678   5.328  0.00  0.00    +0.293 HD
ENDBRANCH   2  14
BRANCH   1  16
ATOM     16  C   UNL     1       1.819  -4.511   2.961  0.00  0.00    +0.127 C 
BRANCH  16  18
ATOM     17  N   UNL     1       1.489  -2.679   1.333  0.00  0.00    -0.311 N 
ATOM     18  C   UNL     1       1.552  -4.005   1.567  0.00  0.00    +0.216 C 
ATOM     19  O   UNL     1       1.393  -4.790   0.657  0.00  0.00    -0.276 OA
ATOM     20  H   UNL     1       1.615  -2.051   2.062  0.00  0.00    +0.149 HD
BRANCH  17  21
ATOM     21  C   UNL     1       1.229  -2.186  -0.022  0.00  0.00    +0.141 C 
BRANCH  21  26
ATOM     22  C   UNL     1      -0.017   1.378   0.010  0.00  0.00    +0.000 A 
ATOM     23  C   UNL     1       1.171   2.086   0.002  0.00  0.00    +0.001 A 
ATOM     24  C   UNL     1       2.377   1.412  -0.013  0.00  0.00    +0.020 A 
ATOM     25  C   UNL     1       2.397   0.029  -0.021  0.00  0.00    +0.046 A 
ATOM     26  C   UNL     1       1.208  -0.679  -0.013  0.00  0.00    -0.012 A 
ATOM     27  C   UNL     1       0.002  -0.004   0.002  0.00  0.00    +0.006 A 
ATOM     28 CL   UNL     1       3.912  -0.818  -0.041  0.00  0.00    -0.083 Cl
ENDBRANCH  21  26
ENDBRANCH  17  21
ENDBRANCH  16  18
ENDBRANCH   1  16
TORSDOF 5
