REMARK  Name = ZINC36531351
REMARK  17 active torsions:
REMARK  status: ('A' for Active; 'I' for Inactive)
REMARK    1  A    between atoms: C_1  and  C_2
REMARK    2  A    between atoms: C_2  and  C_3
REMARK    3  A    between atoms: C_2  and  C_4
REMARK    4  A    between atoms: C_2  and  C_5
REMARK    5  A    between atoms: C_5  and  C_6
REMARK    6  A    between atoms: C_6  and  C_7
REMARK    7  A    between atoms: C_6  and  C_8
REMARK    8  A    between atoms: C_6  and  N_9
REMARK    9  A    between atoms: C_10  and  C_12
REMARK   10  A    between atoms: C_12  and  C_14
REMARK   11  A    between atoms: C_12  and  N_26
REMARK   12  A    between atoms: C_23  and  O_24
REMARK   13  A    between atoms: O_24  and  C_25
REMARK   14  A    between atoms: N_26  and  C_27
REMARK   15  A    between atoms: C_28  and  C_30
REMARK   16  A    between atoms: C_34  and  O_37
REMARK   17  A    between atoms: C_35  and  O_36
REMARK                            x       y       z     vdW  Elec       q    Type
REMARK                         _______ _______ _______ _____ _____    ______ ____
ROOT
ATOM      1  C   UNL     1       5.584  -1.230  -3.352  0.00  0.00    +0.196 C 
ENDROOT
BRANCH   1   2
ATOM      2  C   UNL     1       5.625  -2.577  -4.027  0.00  0.00    +0.031 A 
ATOM      3  C   UNL     1       5.355  -2.686  -5.402  0.00  0.00    -0.009 A 
ATOM      4  C   UNL     1       5.043  -1.555  -6.176  0.00  0.00    +0.009 A 
ATOM      5  C   UNL     1       4.787  -1.698  -7.505  0.00  0.00    +0.001 A 
ATOM      6  C   UNL     1       4.829  -2.951  -8.112  0.00  0.00    +0.001 A 
ATOM      7  C   UNL     1       5.127  -4.069  -7.395  0.00  0.00    +0.008 A 
ATOM      8  C   UNL     1       5.398  -3.961  -6.020  0.00  0.00    -0.017 A 
ATOM      9  C   UNL     1       5.710  -5.093  -5.247  0.00  0.00    +0.012 A 
ATOM     10  C   UNL     1       5.966  -4.954  -3.919  0.00  0.00    +0.046 A 
ATOM     11  C   UNL     1       5.929  -3.697  -3.308  0.00  0.00    +0.126 A 
BRANCH  11  12
ATOM     12  O   UNL     1       6.196  -3.589  -1.980  0.00  0.00    -0.495 OA
ATOM     13  C   UNL     1       6.508  -4.795  -1.281  0.00  0.00    +0.277 C 
ENDBRANCH  11  12
ENDBRANCH   1   2
BRANCH   1  15
ATOM     14  N   UNL     1       3.643  -1.803  -1.931  0.00  0.00    -0.308 N 
ATOM     15  C   UNL     1       4.914  -1.361  -2.009  0.00  0.00    +0.239 C 
ATOM     16  O   UNL     1       5.518  -1.070  -0.999  0.00  0.00    -0.273 OA
ATOM     17  H   UNL     1       3.160  -2.037  -2.739  0.00  0.00    +0.149 HD
BRANCH  14  18
ATOM     18  C   UNL     1       2.991  -1.931  -0.625  0.00  0.00    +0.030 C 
ATOM     19  C   UNL     1       2.957  -0.565   0.064  0.00  0.00    +0.031 C 
ATOM     20  C   UNL     1       3.774  -2.920   0.241  0.00  0.00    +0.031 C 
BRANCH  18  21
ATOM     21  C   UNL     1       1.561  -2.441  -0.816  0.00  0.00    +0.031 C 
BRANCH  21  23
ATOM     22  C   UNL     1       1.066  -2.491  -3.264  0.00  0.00    +0.010 C 
ATOM     23  C   UNL     1       0.902  -1.688  -1.973  0.00  0.00    -0.036 C 
ATOM     24  C   UNL     1       1.567  -0.320  -2.136  0.00  0.00    +0.010 C 
ATOM     25  C   UNL     1      -0.587  -1.499  -1.676  0.00  0.00    +0.010 C 
ENDBRANCH  21  23
ENDBRANCH  18  21
ENDBRANCH  14  18
ENDBRANCH   1  15
BRANCH   1  26
ATOM     26  N   UNL     1       6.950  -0.734  -3.170  0.00  0.00    -0.285 N 
ATOM     27  C   UNL     1       7.853  -1.403  -2.229  0.00  0.00    +0.133 C 
ATOM     28  C   UNL     1       7.377   0.337  -3.867  0.00  0.00    +0.251 C 
ATOM     29  O   UNL     1       6.601   0.954  -4.570  0.00  0.00    -0.270 OA
BRANCH  28  30
ATOM     30  C   UNL     1       8.787   0.763  -3.776  0.00  0.00    +0.082 A 
ATOM     31  C   UNL     1       9.815  -0.164  -3.973  0.00  0.00    +0.017 A 
ATOM     32  C   UNL     1      11.130   0.236  -3.888  0.00  0.00    +0.005 A 
ATOM     33  C   UNL     1      11.443   1.556  -3.607  0.00  0.00    +0.049 A 
ATOM     34  C   UNL     1      10.436   2.486  -3.408  0.00  0.00    +0.159 A 
ATOM     35  C   UNL     1       9.103   2.098  -3.497  0.00  0.00    +0.171 A 
BRANCH  35  36
ATOM     36  O   UNL     1       8.113   3.007  -3.309  0.00  0.00    -0.503 OA
ATOM     37  H   UNL     1       7.825   3.091  -2.389  0.00  0.00    +0.292 HD
ENDBRANCH  35  36
BRANCH  34  38
ATOM     38  O   UNL     1      10.751   3.780  -3.132  0.00  0.00    -0.503 OA
ATOM     39  H   UNL     1      10.841   4.339  -3.917  0.00  0.00    +0.292 HD
ENDBRANCH  34  38
ENDBRANCH  28  30
ENDBRANCH   1  26
TORSDOF 10
