REMARK  Name = ZINC02915921
REMARK  8 active torsions:
REMARK  status: ('A' for Active; 'I' for Inactive)
REMARK    1  A    between atoms: C_1  and  O_2
REMARK    2  A    between atoms: O_2  and  C_3
REMARK    3  A    between atoms: C_7  and  C_9
REMARK    4  A    between atoms: C_11  and  C_23
REMARK    5  A    between atoms: C_27  and  O_31
REMARK    6  A    between atoms: C_28  and  O_29
REMARK    7  A    between atoms: O_29  and  C_30
REMARK    8  A    between atoms: O_31  and  C_32
REMARK                            x       y       z     vdW  Elec       q    Type
REMARK                         _______ _______ _______ _____ _____    ______ ____
ROOT
ATOM      1  C   UNL     1      -2.209   5.344   3.819  0.00  0.00    +0.039 C 
ATOM      2  C   UNL     1      -2.292   6.659   3.953  0.00  0.00    +0.026 C 
ATOM      3  C   UNL     1      -2.970   7.334   5.113  0.00  0.00    +0.149 C 
ATOM      4  N   UNL     1      -3.223   6.359   6.175  0.00  0.00    -0.300 N 
ATOM      5  C   UNL     1      -3.595   6.562   7.474  0.00  0.00    +0.071 A 
ATOM      6  C   UNL     1      -3.845   7.709   8.216  0.00  0.00    +0.028 A 
ATOM      7  C   UNL     1      -4.212   7.536   9.541  0.00  0.00    +0.002 A 
ATOM      8  C   UNL     1      -4.328   6.281  10.112  0.00  0.00    +0.002 A 
ATOM      9  C   UNL     1      -4.084   5.124   9.395  0.00  0.00    +0.030 A 
ATOM     10  C   UNL     1      -3.712   5.274   8.055  0.00  0.00    +0.091 A 
ATOM     11  N   UNL     1      -3.407   4.373   7.099  0.00  0.00    -0.214 NA
ATOM     12  C   UNL     1      -3.114   4.999   5.991  0.00  0.00    +0.202 A 
ATOM     13  N   UNL     1      -2.739   4.463   4.770  0.00  0.00    -0.285 N 
ATOM     14  H   UNL     1      -2.839   3.517   4.582  0.00  0.00    +0.155 HD
ENDROOT
BRANCH   1  19
ATOM     15  C   UNL     1      -0.787   2.892   1.346  0.00  0.00    +0.121 A 
ATOM     16  C   UNL     1      -0.252   3.750   0.395  0.00  0.00    +0.045 A 
ATOM     17  C   UNL     1      -0.362   5.119   0.553  0.00  0.00    +0.004 A 
ATOM     18  C   UNL     1      -0.994   5.641   1.663  0.00  0.00    +0.010 A 
ATOM     19  C   UNL     1      -1.530   4.786   2.626  0.00  0.00    -0.001 A 
ATOM     20  C   UNL     1      -1.424   3.406   2.463  0.00  0.00    +0.055 A 
BRANCH  15  22
ATOM     21  C   UNL     1      -0.013   1.086   0.008  0.00  0.00    +0.277 C 
ATOM     22  O   UNL     1      -0.682   1.547   1.184  0.00  0.00    -0.495 OA
ENDBRANCH  15  22
ENDBRANCH   1  19
BRANCH   3  23
ATOM     23  C   UNL     1      -4.277   7.930   4.658  0.00  0.00    +0.025 A 
ATOM     24  C   UNL     1      -5.262   7.115   4.131  0.00  0.00    +0.010 A 
ATOM     25  C   UNL     1      -6.464   7.657   3.718  0.00  0.00    +0.004 A 
ATOM     26  C   UNL     1      -6.683   9.019   3.819  0.00  0.00    +0.049 A 
ATOM     27  C   UNL     1      -5.698   9.842   4.342  0.00  0.00    +0.162 A 
ATOM     28  C   UNL     1      -4.490   9.294   4.763  0.00  0.00    +0.167 A 
BRANCH  28  29
ATOM     29  O   UNL     1      -3.520  10.098   5.276  0.00  0.00    -0.491 OA
ATOM     30  C   UNL     1      -2.576  10.646   4.354  0.00  0.00    +0.277 C 
ENDBRANCH  28  29
BRANCH  27  31
ATOM     31  O   UNL     1      -5.912  11.181   4.443  0.00  0.00    -0.491 OA
ATOM     32  C   UNL     1      -7.175  11.672   3.991  0.00  0.00    +0.277 C 
ENDBRANCH  27  31
ENDBRANCH   3  23
TORSDOF 5
