REMARK  Name = ZINC39545645
REMARK  8 active torsions:
REMARK  status: ('A' for Active; 'I' for Inactive)
REMARK    1  A    between atoms: C_1  and  S_2
REMARK    2  A    between atoms: S_2  and  C_3
REMARK    3  A    between atoms: C_6  and  C_18
REMARK    4  A    between atoms: N_20  and  C_21
REMARK    5  A    between atoms: N_20  and  S_28
REMARK    6  A    between atoms: C_26  and  O_27
REMARK    7  A    between atoms: S_28  and  O_31
REMARK    8  A    between atoms: O_31  and  C_32
REMARK                            x       y       z     vdW  Elec       q    Type
REMARK                         _______ _______ _______ _____ _____    ______ ____
ROOT
ATOM      1  C   UNL     1       2.569  -4.156  -2.230  0.00  0.00    +0.264 C 
ATOM      2  O   UNL     1       3.366  -4.213  -3.142  0.00  0.00    -0.271 OA
ATOM      3  N   UNL     1       2.030  -5.288  -1.733  0.00  0.00    -0.105 N 
ENDROOT
BRANCH   1   6
ATOM      4  C   UNL     1       1.442  -0.687  -2.424  0.00  0.00    +0.110 C 
ATOM      5  C   UNL     1       1.049  -2.183  -2.488  0.00  0.00    +0.056 C 
ATOM      6  C   UNL     1       2.181  -2.820  -1.651  0.00  0.00    +0.173 C 
ATOM      7  N   UNL     1       3.308  -1.880  -1.736  0.00  0.00    -0.346 N 
ATOM      8  C   UNL     1       2.928  -0.711  -2.156  0.00  0.00    +0.089 C 
ATOM      9  N   UNL     1       3.790   0.349  -2.334  0.00  0.00    -0.303 N 
ATOM     10  C   UNL     1       5.164   0.073  -2.363  0.00  0.00    +0.037 A 
ATOM     11  C   UNL     1       6.049   1.032  -2.840  0.00  0.00    +0.023 A 
ATOM     12  C   UNL     1       7.403   0.763  -2.875  0.00  0.00    +0.002 A 
ATOM     13  C   UNL     1       7.875  -0.461  -2.436  0.00  0.00    +0.000 A 
ATOM     14  C   UNL     1       6.996  -1.415  -1.960  0.00  0.00    +0.007 A 
ATOM     15  C   UNL     1       5.637  -1.153  -1.919  0.00  0.00    -0.007 A 
ATOM     16  C   UNL     1       4.696  -2.212  -1.385  0.00  0.00    +0.155 C 
ATOM     17  H   UNL     1       3.458   1.255  -2.435  0.00  0.00    +0.153 HD
BRANCH   4  19
ATOM     18  C   UNL     1       1.078   1.878  -1.215  0.00  0.00    +0.085 C 
ATOM     19  S   UNL     1       0.565   0.144  -1.071  0.00  0.00    -0.153 S 
ENDBRANCH   4  19
ENDBRANCH   1   6
BRANCH   3  20
ATOM     20  C   UNL     1       2.429  -6.533  -2.237  0.00  0.00    +0.104 A 
ATOM     21  C   UNL     1       3.156  -7.405  -1.441  0.00  0.00    +0.029 A 
ATOM     22  C   UNL     1       3.548  -8.633  -1.940  0.00  0.00    +0.002 A 
ATOM     23  C   UNL     1       3.216  -8.995  -3.233  0.00  0.00    +0.004 A 
ATOM     24  C   UNL     1       2.491  -8.132  -4.032  0.00  0.00    +0.047 A 
ATOM     25  C   UNL     1       2.090  -6.901  -3.538  0.00  0.00    +0.140 A 
BRANCH  25  26
ATOM     26  O   UNL     1       1.371  -6.053  -4.321  0.00  0.00    -0.505 OA
ATOM     27  H   UNL     1       1.912  -5.502  -4.903  0.00  0.00    +0.292 HD
ENDBRANCH  25  26
ENDBRANCH   3  20
BRANCH   3  28
ATOM     28  S   UNL     1       0.898  -5.206  -0.528  0.00  0.00    +0.217 S 
ATOM     29  O   UNL     1       0.394  -6.524  -0.354  0.00  0.00    -0.115 OA
ATOM     30  O   UNL     1       1.488  -4.470   0.535  0.00  0.00    -0.115 OA
BRANCH  28  31
ATOM     31  O   UNL     1      -0.257  -4.364  -1.052  0.00  0.00    -0.331 OA
BRANCH  31  32
ATOM     32  C   UNL     1      -1.021  -4.992  -1.984  0.00  0.00    +0.158 A 
ATOM     33  C   UNL     1      -0.777  -4.787  -3.334  0.00  0.00    +0.048 A 
ATOM     34  C   UNL     1      -1.555  -5.427  -4.280  0.00  0.00    +0.004 A 
ATOM     35  C   UNL     1      -2.575  -6.271  -3.882  0.00  0.00    +0.000 A 
ATOM     36  C   UNL     1      -2.820  -6.477  -2.537  0.00  0.00    +0.004 A 
ATOM     37  C   UNL     1      -2.041  -5.844  -1.587  0.00  0.00    +0.048 A 
ENDBRANCH  31  32
ENDBRANCH  28  31
ENDBRANCH   3  28
TORSDOF 7
