REMARK  Name = ZINC19663709
REMARK  7 active torsions:
REMARK  status: ('A' for Active; 'I' for Inactive)
REMARK    1  A    between atoms: C_1  and  C_2
REMARK    2  A    between atoms: N_5  and  C_8
REMARK    3  A    between atoms: C_8  and  C_9
REMARK    4  A    between atoms: C_9  and  N_15
REMARK    5  A    between atoms: C_16  and  C_18
REMARK    6  A    between atoms: N_23  and  C_25
REMARK    7  A    between atoms: C_25  and  C_26
REMARK                            x       y       z     vdW  Elec       q    Type
REMARK                         _______ _______ _______ _____ _____    ______ ____
ROOT
ATOM      1  N   UNL     1       0.416   0.024   3.051  0.00  0.00    -0.311 N 
ATOM      2  C   UNL     1       1.193   0.075   1.951  0.00  0.00    +0.215 C 
ATOM      3  O   UNL     1       2.286  -0.451   1.956  0.00  0.00    -0.276 OA
ATOM      4  H   UNL     1      -0.540   0.568   3.075  0.00  0.00    +0.149 HD
ENDROOT
BRANCH   2   5
ATOM      5  C   UNL     1       0.703   0.784   0.715  0.00  0.00    +0.058 C 
ATOM      6  C   UNL     1      -0.588   0.124   0.224  0.00  0.00    +0.009 C 
ATOM      7  C   UNL     1      -1.047   0.810  -1.065  0.00  0.00    -0.018 C 
ATOM      8  C   UNL     1       0.067   0.716  -2.111  0.00  0.00    -0.078 C 
ATOM      9  N   UNL     1       1.280   1.363  -1.595  0.00  0.00    +0.386 N 
ATOM     10  C   UNL     1       1.766   0.692  -0.383  0.00  0.00    -0.065 C 
ATOM     11  H   UNL     1       1.019   2.397  -1.324  0.00  0.00    -0.081 HD
BRANCH   9  12
ATOM     12  C   UNL     1       2.327   1.415  -2.624  0.00  0.00    +0.018 C 
BRANCH  12  13
ATOM     13  C   UNL     1       2.779   0.015  -2.951  0.00  0.00    +0.194 C 
ATOM     14  O   UNL     1       2.278  -0.932  -2.383  0.00  0.00    -0.278 OA
ATOM     15  N   UNL     1       3.740  -0.184  -3.875  0.00  0.00    -0.331 N 
ATOM     16  H   UNL     1       4.070  -1.206  -4.114  0.00  0.00    +0.145 HD
ATOM     17  H   UNL     1       4.194   0.675  -4.391  0.00  0.00    +0.145 HD
ENDBRANCH  12  13
ENDBRANCH   9  12
ENDBRANCH   2   5
BRANCH   1  18
ATOM     18  C   UNL     1       0.845  -0.755   4.215  0.00  0.00    +0.020 C 
ATOM     19  C   UNL     1      -0.183  -0.601   5.338  0.00  0.00    +0.024 C 
ATOM     20  C   UNL     1      -0.296   0.875   5.726  0.00  0.00    +0.002 C 
ATOM     21  C   UNL     1       1.065   1.382   6.207  0.00  0.00    +0.000 C 
ATOM     22  C   UNL     1       2.092   1.228   5.083  0.00  0.00    +0.002 C 
ATOM     23  C   UNL     1       2.206  -0.248   4.696  0.00  0.00    +0.024 C 
BRANCH  18  24
ATOM     24  C   UNL     1       0.958  -2.231   3.827  0.00  0.00    -0.053 C 
BRANCH  24  29
ATOM     25  C   UNL     1      -3.801  -4.751   1.912  0.00  0.00    +0.007 C 
ATOM     26  C   UNL     1      -2.347  -4.305   2.080  0.00  0.00    -0.018 C 
ATOM     27  C   UNL     1      -2.262  -2.781   1.955  0.00  0.00    -0.016 C 
ATOM     28  C   UNL     1      -0.816  -2.336   2.183  0.00  0.00    -0.078 C 
ATOM     29  N   UNL     1      -0.377  -2.761   3.519  0.00  0.00    +0.381 N 
ATOM     30  C   UNL     1      -0.405  -4.223   3.647  0.00  0.00    -0.078 C 
ATOM     31  C   UNL     1      -1.839  -4.725   3.462  0.00  0.00    -0.016 C 
ATOM     32  H   UNL     1      -1.084  -2.346   4.252  0.00  0.00    -0.082 HD
ENDBRANCH  24  29
ENDBRANCH  18  24
ENDBRANCH   1  18
TORSDOF 6
