REMARK  Name = ZINC36206911
REMARK  15 active torsions:
REMARK  status: ('A' for Active; 'I' for Inactive)
REMARK    1  A    between atoms: C_1  and  C_2
REMARK    2  A    between atoms: C_8  and  C_17
REMARK    3  A    between atoms: C_12  and  C_13
REMARK    4  A    between atoms: C_13  and  O_15
REMARK    5  A    between atoms: O_15  and  C_16
REMARK    6  A    between atoms: C_17  and  N_18
REMARK    7  A    between atoms: N_18  and  C_19
REMARK    8  A    between atoms: N_18  and  C_23
REMARK    9  A    between atoms: C_19  and  C_20
REMARK   10  A    between atoms: C_20  and  O_21
REMARK   11  A    between atoms: O_21  and  C_22
REMARK   12  A    between atoms: C_23  and  C_24
REMARK   13  A    between atoms: C_24  and  C_26
REMARK   14  A    between atoms: C_24  and  O_33
REMARK   15  A    between atoms: C_26  and  C_27
REMARK                            x       y       z     vdW  Elec       q    Type
REMARK                         _______ _______ _______ _____ _____    ______ ____
ROOT
ATOM      1  C   UNL     1       0.211  -3.216  -4.225  0.00  0.00    -0.003 C 
ENDROOT
BRANCH   1   9
ATOM      2  C   UNL     1      -0.294   0.776   1.073  0.00  0.00    +0.046 C 
ATOM      3  C   UNL     1      -0.320  -0.708   0.810  0.00  0.00    -0.015 A 
ATOM      4  C   UNL     1      -0.176  -1.190  -0.492  0.00  0.00    +0.076 A 
ATOM      5  C   UNL     1       0.012  -0.438  -1.753  0.00  0.00    +0.260 A 
ATOM      6  O   UNL     1       0.061   0.779  -1.754  0.00  0.00    -0.267 OA
ATOM      7  N   UNL     1       0.128  -1.135  -2.901  0.00  0.00    -0.312 N 
ATOM      8  H   UNL     1       0.253  -0.657  -3.736  0.00  0.00    +0.170 HD
ATOM      9  C   UNL     1       0.076  -2.490  -2.912  0.00  0.00    +0.094 A 
ATOM     10  N   UNL     1      -0.089  -3.183  -1.819  0.00  0.00    -0.229 NA
ATOM     11  C   UNL     1      -0.214  -2.597  -0.635  0.00  0.00    +0.116 A 
ATOM     12  S   UNL     1      -0.446  -3.170   1.029  0.00  0.00    -0.062 S 
ATOM     13  C   UNL     1      -0.479  -1.583   1.846  0.00  0.00    +0.102 A 
BRANCH  13  14
ATOM     14  C   UNL     1      -0.639  -1.292   3.272  0.00  0.00    +0.346 C 
ATOM     15  O   UNL     1      -0.641  -0.140   3.661  0.00  0.00    -0.244 OA
BRANCH  14  16
ATOM     16  O   UNL     1      -0.785  -2.303   4.154  0.00  0.00    -0.464 OA
ATOM     17  C   UNL     1      -0.937  -1.946   5.529  0.00  0.00    +0.280 C 
ENDBRANCH  14  16
ENDBRANCH  13  14
ENDBRANCH   1   9
BRANCH   1  18
ATOM     18  N   UNL     1       0.124  -4.664  -3.995  0.00  0.00    +0.388 N 
ATOM     19  H   UNL     1       0.814  -4.938  -3.311  0.00  0.00    -0.081 HD
BRANCH  18  20
ATOM     20  C   UNL     1      -1.217  -5.002  -3.501  0.00  0.00    -0.050 C 
BRANCH  20  21
ATOM     21  C   UNL     1      -1.260  -6.482  -3.113  0.00  0.00    +0.141 C 
BRANCH  21  22
ATOM     22  O   UNL     1      -0.353  -6.718  -2.035  0.00  0.00    -0.385 OA
ATOM     23  C   UNL     1      -0.316  -8.077  -1.594  0.00  0.00    +0.193 C 
ENDBRANCH  21  22
ENDBRANCH  20  21
ENDBRANCH  18  20
BRANCH  18  24
ATOM     24  C   UNL     1       0.376  -5.376  -5.255  0.00  0.00    -0.046 C 
BRANCH  24  25
ATOM     25  C   UNL     1       1.821  -5.138  -5.697  0.00  0.00    +0.102 C 
BRANCH  25  26
ATOM     26  O   UNL     1       2.712  -5.627  -4.692  0.00  0.00    -0.393 OA
ATOM     27  H   UNL     1       2.673  -6.585  -4.564  0.00  0.00    +0.210 HD
ENDBRANCH  25  26
BRANCH  25  28
ATOM     28  C   UNL     1       2.081  -5.876  -7.012  0.00  0.00    +0.064 C 
BRANCH  28  29
ATOM     29  C   UNL     1       3.464  -5.543  -7.509  0.00  0.00    -0.045 A 
ATOM     30  C   UNL     1       3.656  -4.456  -8.342  0.00  0.00    +0.004 A 
ATOM     31  C   UNL     1       4.925  -4.151  -8.799  0.00  0.00    +0.000 A 
ATOM     32  C   UNL     1       6.001  -4.932  -8.422  0.00  0.00    +0.000 A 
ATOM     33  C   UNL     1       5.809  -6.018  -7.588  0.00  0.00    +0.000 A 
ATOM     34  C   UNL     1       4.542  -6.320  -7.128  0.00  0.00    +0.004 A 
ENDBRANCH  28  29
ENDBRANCH  25  28
ENDBRANCH  24  25
ENDBRANCH  18  24
ENDBRANCH   1  18
TORSDOF 12
