REMARK  Name = ZINC38847361
REMARK  10 active torsions:
REMARK  status: ('A' for Active; 'I' for Inactive)
REMARK    1  A    between atoms: C_1  and  C_2
REMARK    2  A    between atoms: C_2  and  N_3
REMARK    3  A    between atoms: N_3  and  C_4
REMARK    4  A    between atoms: N_3  and  C_6
REMARK    5  A    between atoms: C_4  and  C_5
REMARK    6  A    between atoms: C_6  and  C_7
REMARK    7  A    between atoms: C_7  and  N_8
REMARK    8  A    between atoms: C_18  and  C_20
REMARK    9  A    between atoms: N_23  and  S_26
REMARK   10  A    between atoms: S_26  and  C_29
REMARK                            x       y       z     vdW  Elec       q    Type
REMARK                         _______ _______ _______ _____ _____    ______ ____
ROOT
ATOM      1  N   UNL     1      -1.591  -3.422  -1.862  0.00  0.00    -0.252 N 
ATOM      2  C   UNL     1      -2.113  -4.177  -0.824  0.00  0.00    +0.168 A 
ATOM      3  N   UNL     1      -2.593  -3.771   0.329  0.00  0.00    -0.224 NA
ATOM      4  C   UNL     1      -3.074  -4.627   1.257  0.00  0.00    +0.080 A 
ATOM      5  C   UNL     1      -3.614  -4.323   2.528  0.00  0.00    +0.029 A 
ATOM      6  C   UNL     1      -4.061  -5.320   3.355  0.00  0.00    +0.002 A 
ATOM      7  C   UNL     1      -4.001  -6.655   2.980  0.00  0.00    +0.001 A 
ATOM      8  C   UNL     1      -3.478  -6.988   1.744  0.00  0.00    +0.017 A 
ATOM      9  C   UNL     1      -3.028  -5.996   0.909  0.00  0.00    +0.041 A 
ATOM     10  S   UNL     1      -2.311  -5.950  -0.716  0.00  0.00    -0.052 S 
ATOM     11  C   UNL     1      -1.028  -4.034  -2.922  0.00  0.00    +0.224 C 
ATOM     12  O   UNL     1      -0.480  -3.376  -3.781  0.00  0.00    -0.275 OA
ENDROOT
BRANCH  11  13
ATOM     13  C   UNL     1      -1.078  -5.535  -3.041  0.00  0.00    +0.078 C 
ATOM     14  C   UNL     1      -0.068  -6.157  -2.075  0.00  0.00    +0.030 C 
ATOM     15  C   UNL     1      -0.147  -7.684  -2.173  0.00  0.00    +0.110 C 
ATOM     16  N   UNL     1       0.039  -8.078  -3.576  0.00  0.00    -0.177 NA
ATOM     17  C   UNL     1      -0.821  -7.469  -4.601  0.00  0.00    +0.110 C 
ATOM     18  C   UNL     1      -0.734  -5.945  -4.475  0.00  0.00    +0.030 C 
BRANCH  16  19
ATOM     19  S   UNL     1       1.197  -9.185  -3.995  0.00  0.00    +0.061 S 
ATOM     20  O   UNL     1       1.514  -8.945  -5.359  0.00  0.00    -0.153 OA
ATOM     21  O   UNL     1       2.178  -9.156  -2.968  0.00  0.00    -0.153 OA
BRANCH  19  22
ATOM     22  C   UNL     1       0.444 -10.777  -3.927  0.00  0.00    +0.106 A 
ATOM     23  C   UNL     1       0.463 -11.500  -2.749  0.00  0.00    +0.031 A 
ATOM     24  C   UNL     1      -0.128 -12.748  -2.693  0.00  0.00    +0.040 A 
ATOM     25  C   UNL     1      -0.739 -13.274  -3.819  0.00  0.00    +0.124 A 
ATOM     26  C   UNL     1      -0.758 -12.549  -4.998  0.00  0.00    +0.040 A 
ATOM     27  C   UNL     1      -0.171 -11.299  -5.050  0.00  0.00    +0.031 A 
ATOM     28  F   UNL     1      -1.317 -14.495  -3.766  0.00  0.00    -0.205 F 
ENDBRANCH  19  22
ENDBRANCH  16  19
ENDBRANCH  11  13
BRANCH   1  29
ATOM     29  C   UNL     1      -1.652  -1.960  -1.806  0.00  0.00    +0.097 C 
BRANCH  29  30
ATOM     30  C   UNL     1      -0.393  -1.422  -1.123  0.00  0.00    -0.059 C 
BRANCH  30  31
ATOM     31  N   UNL     1      -0.453   0.044  -1.068  0.00  0.00    +0.380 N 
ATOM     32  H   UNL     1      -0.594   0.411  -1.997  0.00  0.00    -0.082 HD
BRANCH  31  34
ATOM     33  C   UNL     1      -1.711   1.979  -0.247  0.00  0.00    -0.017 C 
ATOM     34  C   UNL     1      -1.569   0.456  -0.205  0.00  0.00    -0.082 C 
ENDBRANCH  31  34
BRANCH  31  35
ATOM     35  C   UNL     1       0.806   0.566  -0.521  0.00  0.00    -0.082 C 
ATOM     36  C   UNL     1       1.951   0.249  -1.486  0.00  0.00    -0.017 C 
ENDBRANCH  31  35
ENDBRANCH  30  31
ENDBRANCH  29  30
ENDBRANCH   1  29
TORSDOF 8
