REMARK  Name = ZINC40138966
REMARK  6 active torsions:
REMARK  status: ('A' for Active; 'I' for Inactive)
REMARK    1  A    between atoms: N_9  and  C_10
REMARK    2  A    between atoms: C_10  and  C_11
REMARK    3  A    between atoms: C_11  and  C_13
REMARK    4  A    between atoms: C_11  and  N_20
REMARK    5  A    between atoms: N_23  and  C_24
REMARK    6  A    between atoms: C_24  and  C_25
REMARK                            x       y       z     vdW  Elec       q    Type
REMARK                         _______ _______ _______ _____ _____    ______ ____
ROOT
ATOM      1  C   UNL     1       5.367  -0.389   1.384  0.00  0.00    +0.124 C 
ENDROOT
BRANCH   1   2
ATOM      2  C   UNL     1       6.817   0.022   1.362  0.00  0.00    -0.025 A 
ATOM      3  C   UNL     1       7.803  -0.933   1.198  0.00  0.00    +0.008 A 
ATOM      4  C   UNL     1       9.133  -0.558   1.177  0.00  0.00    +0.038 A 
ATOM      5  C   UNL     1       9.478   0.775   1.321  0.00  0.00    +0.123 A 
ATOM      6  C   UNL     1       8.489   1.731   1.486  0.00  0.00    +0.038 A 
ATOM      7  C   UNL     1       7.160   1.354   1.500  0.00  0.00    +0.008 A 
ATOM      8  F   UNL     1      10.777   1.143   1.302  0.00  0.00    -0.205 F 
ENDBRANCH   1   2
BRANCH   1   9
ATOM      9  N   UNL     1       5.224  -1.635   2.140  0.00  0.00    -0.291 N 
ATOM     10  C   UNL     1       5.099  -1.598   3.482  0.00  0.00    +0.300 C 
ATOM     11  O   UNL     1       5.107  -0.531   4.064  0.00  0.00    -0.253 OA
ATOM     12  N   UNL     1       4.968  -2.744   4.178  0.00  0.00    -0.296 N 
ATOM     13  H   UNL     1       5.218  -2.486   1.676  0.00  0.00    +0.151 HD
ATOM     14  H   UNL     1       4.962  -3.596   3.713  0.00  0.00    +0.150 HD
BRANCH  12  15
ATOM     15  C   UNL     1       4.832  -2.705   5.636  0.00  0.00    +0.153 C 
BRANCH  15  16
ATOM     16  C   UNL     1       4.699  -4.130   6.175  0.00  0.00    +0.228 C 
ATOM     17  C   UNL     1       4.447  -4.090   7.689  0.00  0.00    +0.275 C 
ATOM     18  O   UNL     1       4.341  -5.437   8.162  0.00  0.00    -0.485 OA
ATOM     19  C   UNL     1       5.288  -6.314   7.727  0.00  0.00    +0.162 A 
ATOM     20  C   UNL     1       5.469  -7.510   8.405  0.00  0.00    +0.049 A 
ATOM     21  C   UNL     1       6.424  -8.412   7.973  0.00  0.00    +0.004 A 
ATOM     22  C   UNL     1       7.200  -8.124   6.866  0.00  0.00    +0.004 A 
ATOM     23  C   UNL     1       7.024  -6.933   6.187  0.00  0.00    +0.049 A 
ATOM     24  C   UNL     1       6.070  -6.023   6.616  0.00  0.00    +0.163 A 
ATOM     25  O   UNL     1       5.914  -4.851   5.941  0.00  0.00    -0.480 OA
ENDBRANCH  15  16
ENDBRANCH  12  15
ENDBRANCH   1   9
BRANCH   1  26
ATOM     26  C   UNL     1       4.876  -0.603  -0.050  0.00  0.00    +0.150 C 
BRANCH  26  35
ATOM     27  C   UNL     1      -0.016   1.362   0.009  0.00  0.00    +0.002 A 
ATOM     28  C   UNL     1       1.167   2.086   0.002  0.00  0.00    +0.002 A 
ATOM     29  C   UNL     1       2.383   1.437  -0.013  0.00  0.00    +0.028 A 
ATOM     30  C   UNL     1       2.422   0.049  -0.021  0.00  0.00    +0.069 A 
ATOM     31  C   UNL     1       1.223  -0.684  -0.013  0.00  0.00    +0.089 A 
ATOM     32  C   UNL     1       0.002  -0.004   0.002  0.00  0.00    +0.030 A 
ATOM     33  N   UNL     1       1.563  -1.998  -0.024  0.00  0.00    -0.236 NA
ATOM     34  C   UNL     1       2.858  -2.115  -0.037  0.00  0.00    +0.200 A 
ATOM     35  N   UNL     1       3.439  -0.885  -0.036  0.00  0.00    -0.328 N 
ENDBRANCH  26  35
ENDBRANCH   1  26
TORSDOF 6
