REMARK  Name = ZINC20831753
REMARK  6 active torsions:
REMARK  status: ('A' for Active; 'I' for Inactive)
REMARK    1  A    between atoms: C_4  and  C_7
REMARK    2  A    between atoms: N_8  and  N_9
REMARK    3  A    between atoms: C_12  and  S_15
REMARK    4  A    between atoms: S_15  and  C_16
REMARK    5  A    between atoms: C_16  and  C_17
REMARK    6  A    between atoms: C_17  and  C_18
REMARK                            x       y       z     vdW  Elec       q    Type
REMARK                         _______ _______ _______ _____ _____    ______ ____
ROOT
ATOM      1  S   UNL     1      -0.890   1.687  -1.462  0.00  0.00    -0.084 S 
ENDROOT
BRANCH   1   5
ATOM      2  N   UNL     1       0.812   0.514  -6.242  0.00  0.00    -0.205 N 
ATOM      3  C   UNL     1       0.731   0.570  -4.858  0.00  0.00    +0.232 A 
ATOM      4  N   UNL     1      -0.226   1.228  -4.135  0.00  0.00    -0.186 NA
ATOM      5  C   UNL     1       0.045   1.043  -2.809  0.00  0.00    +0.210 A 
ATOM      6  N   UNL     1       1.127   0.307  -2.715  0.00  0.00    -0.144 NA
ATOM      7  N   UNL     1       1.558   0.004  -4.013  0.00  0.00    -0.245 N 
ATOM      8  H   UNL     1       0.061   1.029  -6.858  0.00  0.00    +0.177 HD
ATOM      9  H   UNL     1       2.409  -0.585  -4.388  0.00  0.00    +0.192 HD
BRANCH   2  11
ATOM     10  C   UNL     1       1.927  -0.253  -8.149  0.00  0.00    +0.138 C 
ATOM     11  N   UNL     1       1.851  -0.200  -6.853  0.00  0.00    -0.188 NA
BRANCH  10  15
ATOM     12  C   UNL     1       5.074  -2.414 -10.002  0.00  0.00    +0.000 A 
ATOM     13  C   UNL     1       4.131  -1.767 -10.781  0.00  0.00    +0.001 A 
ATOM     14  C   UNL     1       3.106  -1.063 -10.186  0.00  0.00    +0.009 A 
ATOM     15  C   UNL     1       3.021  -1.004  -8.793  0.00  0.00    -0.005 A 
ATOM     16  C   UNL     1       3.980  -1.654  -8.012  0.00  0.00    +0.009 A 
ATOM     17  C   UNL     1       4.996  -2.360  -8.622  0.00  0.00    +0.001 A 
ENDBRANCH  10  15
ENDBRANCH   2  11
ENDBRANCH   1   5
BRANCH   1  18
ATOM     18  C   UNL     1      -0.013   1.086   0.008  0.00  0.00    +0.086 C 
BRANCH  18  19
ATOM     19  C   UNL     1      -0.729   1.579   1.267  0.00  0.00    +0.107 C 
BRANCH  19  20
ATOM     20  C   UNL     1       0.000   1.080   2.488  0.00  0.00    +0.219 C 
ATOM     21  O   UNL     1       0.994   0.397   2.363  0.00  0.00    -0.275 OA
ATOM     22  N   UNL     1      -0.453   1.393   3.718  0.00  0.00    -0.265 N 
ATOM     23  C   UNL     1       0.217   0.934   4.840  0.00  0.00    +0.165 A 
ATOM     24  N   UNL     1      -0.067   1.131   6.106  0.00  0.00    -0.225 NA
ATOM     25  C   UNL     1       0.681   0.617   7.107  0.00  0.00    +0.080 A 
ATOM     26  C   UNL     1       0.486   0.752   8.501  0.00  0.00    +0.030 A 
ATOM     27  C   UNL     1       1.346   0.162   9.389  0.00  0.00    +0.017 A 
ATOM     28  C   UNL     1       2.433  -0.587   8.958  0.00  0.00    +0.019 A 
ATOM     29  C   UNL     1       2.654  -0.740   7.601  0.00  0.00    +0.032 A 
ATOM     30  C   UNL     1       1.797  -0.151   6.704  0.00  0.00    +0.042 A 
ATOM     31  S   UNL     1       1.684  -0.083   4.933  0.00  0.00    -0.052 S 
ATOM     32 BR   UNL     1       3.600  -1.388  10.212  0.00  0.00    -0.050 Br
ATOM     33  H   UNL     1      -1.355   2.012   3.831  0.00  0.00    +0.157 HD
ENDBRANCH  19  20
ENDBRANCH  18  19
ENDBRANCH   1  18
TORSDOF 6
