REMARK  Name = ZINC63562670
REMARK  8 active torsions:
REMARK  status: ('A' for Active; 'I' for Inactive)
REMARK    1  A    between atoms: C_8  and  S_10
REMARK    2  A    between atoms: S_10  and  C_11
REMARK    3  A    between atoms: C_11  and  C_12
REMARK    4  A    between atoms: N_14  and  N_15
REMARK    5  A    between atoms: C_16  and  C_18
REMARK    6  A    between atoms: C_18  and  S_19
REMARK    7  A    between atoms: S_19  and  C_20
REMARK    8  A    between atoms: C_26  and  N_30
REMARK                            x       y       z     vdW  Elec       q    Type
REMARK                         _______ _______ _______ _____ _____    ______ ____
ROOT
ATOM      1  N   UNL     1       8.584  -5.255  -0.113  0.00  0.00    -0.234 N 
ATOM      2  C   UNL     1       9.923  -5.104  -0.126  0.00  0.00    +0.239 C 
ATOM      3  O   UNL     1      10.407  -3.992  -0.124  0.00  0.00    -0.273 OA
ATOM      4  H   UNL     1       8.196  -6.144  -0.114  0.00  0.00    +0.173 HD
ENDROOT
BRANCH   1   7
ATOM      5  C   UNL     1       6.412  -4.280  -0.086  0.00  0.00    +0.239 C 
ATOM      6  O   UNL     1       5.928  -5.392  -0.087  0.00  0.00    -0.273 OA
ATOM      7  N   UNL     1       7.751  -4.128  -0.098  0.00  0.00    -0.234 N 
ATOM      8  H   UNL     1       8.139  -3.239  -0.097  0.00  0.00    +0.173 HD
BRANCH   5   9
ATOM      9  C   UNL     1       5.517  -3.068  -0.070  0.00  0.00    +0.176 C 
BRANCH   9  10
ATOM     10  S   UNL     1       3.782  -3.598  -0.055  0.00  0.00    -0.058 S 
BRANCH  10  18
ATOM     11  C   UNL     1      -0.017   1.373   0.010  0.00  0.00    +0.002 A 
ATOM     12  C   UNL     1       1.170   2.091   0.002  0.00  0.00    +0.004 A 
ATOM     13  C   UNL     1       2.384   1.435  -0.013  0.00  0.00    +0.048 A 
ATOM     14  C   UNL     1       2.421   0.051  -0.021  0.00  0.00    +0.156 A 
ATOM     15  C   UNL     1       1.223  -0.680  -0.013  0.00  0.00    +0.110 A 
ATOM     16  C   UNL     1       0.002  -0.004   0.002  0.00  0.00    +0.031 A 
ATOM     17  N   UNL     1       1.569  -1.996  -0.024  0.00  0.00    -0.203 NA
ATOM     18  C   UNL     1       2.875  -2.087  -0.038  0.00  0.00    +0.258 A 
ATOM     19  O   UNL     1       3.423  -0.859  -0.036  0.00  0.00    -0.431 OA
ENDBRANCH  10  18
ENDBRANCH   9  10
ENDBRANCH   5   9
ENDBRANCH   1   7
BRANCH   2  20
ATOM     20  C   UNL     1      10.818  -6.316  -0.141  0.00  0.00    +0.170 C 
BRANCH  20  21
ATOM     21  S   UNL     1      12.553  -5.786  -0.156  0.00  0.00    -0.106 S 
BRANCH  21  22
ATOM     22  C   UNL     1      13.486  -7.341  -0.174  0.00  0.00    +0.236 C 
ATOM     23  N   UNL     1      13.128  -8.158   0.992  0.00  0.00    -0.355 N 
ATOM     24  C   UNL     1      12.627  -9.274   0.548  0.00  0.00    +0.061 A 
ATOM     25  C   UNL     1      12.097 -10.469   1.220  0.00  0.00    +0.029 A 
ATOM     26  C   UNL     1      11.634 -11.497   0.481  0.00  0.00    +0.035 A 
ATOM     27  C   UNL     1      11.634 -11.480  -0.925  0.00  0.00    +0.128 A 
ATOM     28  C   UNL     1      12.097 -10.436  -1.640  0.00  0.00    +0.060 A 
ATOM     29  C   UNL     1      12.627  -9.257  -0.941  0.00  0.00    +0.063 A 
ATOM     30  N   UNL     1      13.129  -8.130  -1.360  0.00  0.00    -0.355 N 
ATOM     31  H   UNL     1      13.244  -7.861  -2.284  0.00  0.00    +0.162 HD
ATOM     32  H   UNL     1      13.243  -7.911   1.923  0.00  0.00    +0.162 HD
BRANCH  27  33
ATOM     33  N   UNL     1      11.104 -12.658  -1.650  0.00  0.00    +0.056 N 
ATOM     34  O   UNL     1      10.683 -13.608  -1.032  0.00  0.00    -0.126 OA
ATOM     35  O   UNL     1      11.093 -12.669  -2.858  0.00  0.00    -0.126 OA
ENDBRANCH  27  33
ENDBRANCH  21  22
ENDBRANCH  20  21
ENDBRANCH   2  20
TORSDOF 8
