REMARK  Name = ZINC12276752
REMARK  7 active torsions:
REMARK  status: ('A' for Active; 'I' for Inactive)
REMARK    1  A    between atoms: C_1  and  C_2
REMARK    2  A    between atoms: C_2  and  N_3
REMARK    3  A    between atoms: C_4  and  C_26
REMARK    4  A    between atoms: C_5  and  C_8
REMARK    5  A    between atoms: C_8  and  N_51
REMARK    6  A    between atoms: C_16  and  C_18
REMARK    7  A    between atoms: C_16  and  O_25
REMARK                            x       y       z     vdW  Elec       q    Type
REMARK                         _______ _______ _______ _____ _____    ______ ____
ROOT
ATOM      1  C   UNL     1       1.942  -0.309  -0.905  0.00  0.00    -0.065 C 
ATOM      2  C   UNL     1       2.168  -0.767   0.554  0.00  0.00    -0.017 C 
ATOM      3  C   UNL     1       0.810  -0.503   1.274  0.00  0.00    -0.017 C 
ATOM      4  C   UNL     1      -0.093   0.088   0.167  0.00  0.00    -0.065 C 
ATOM      5  C   UNL     1       0.104   1.612   0.162  0.00  0.00    +0.024 C 
ATOM      6  C   UNL     1       1.605   1.917   0.171  0.00  0.00    +0.088 C 
ATOM      7  C   UNL     1       2.290   1.185  -1.004  0.00  0.00    +0.024 C 
ATOM      8  N   UNL     1       0.498  -0.414  -1.077  0.00  0.00    +0.386 N 
ATOM      9  H   UNL     1       0.194   0.163  -1.871  0.00  0.00    -0.081 HD
ENDROOT
BRANCH   6  10
ATOM     10  C   UNL     1       2.202   1.458   1.476  0.00  0.00    -0.014 A 
ATOM     11  C   UNL     1       1.432   1.453   2.624  0.00  0.00    +0.006 A 
ATOM     12  C   UNL     1       1.977   1.027   3.821  0.00  0.00    +0.003 A 
ATOM     13  C   UNL     1       3.296   0.615   3.873  0.00  0.00    +0.038 A 
ATOM     14  C   UNL     1       4.069   0.624   2.724  0.00  0.00    +0.124 A 
ATOM     15  C   UNL     1       3.520   1.046   1.525  0.00  0.00    +0.044 A 
ATOM     16  F   UNL     1       5.357   0.222   2.774  0.00  0.00    -0.205 F 
ENDBRANCH   6  10
BRANCH   6  17
ATOM     17  O   UNL     1       1.804   3.325   0.028  0.00  0.00    -0.384 OA
ATOM     18  H   UNL     1       2.733   3.593   0.025  0.00  0.00    +0.211 HD
ENDBRANCH   6  17
BRANCH   8  19
ATOM     19  C   UNL     1       0.089  -1.836  -1.317  0.00  0.00    -0.039 C 
BRANCH  19  22
ATOM     20  N   UNL     1       1.264  -2.723  -4.653  0.00  0.00    -0.269 N 
ATOM     21  C   UNL     1       0.426  -2.052  -3.835  0.00  0.00    +0.037 A 
ATOM     22  C   UNL     1       0.761  -2.359  -2.561  0.00  0.00    -0.024 A 
ATOM     23  C   UNL     1       1.845  -3.242  -2.601  0.00  0.00    +0.136 A 
ATOM     24  N   UNL     1       2.143  -3.465  -3.855  0.00  0.00    -0.179 NA
ATOM     25  C   UNL     1      -0.685  -1.129  -4.265  0.00  0.00    +0.065 C 
BRANCH  20  27
ATOM     26  C   UNL     1       2.169  -1.553  -6.601  0.00  0.00    +0.029 C 
ATOM     27  C   UNL     1       1.256  -2.681  -6.118  0.00  0.00    +0.140 C 
ENDBRANCH  20  27
ENDBRANCH  19  22
ENDBRANCH   8  19
TORSDOF 5
