REMARK  Name = ZINC39073097
REMARK  2 active torsions:
REMARK  status: ('A' for Active; 'I' for Inactive)
REMARK    1  A    between atoms: C_3  and  C_6
REMARK    2  A    between atoms: N_8  and  N_9
REMARK                            x       y       z     vdW  Elec       q    Type
REMARK                         _______ _______ _______ _____ _____    ______ ____
ROOT
ATOM      1  N   UNL     1       6.035   1.138  -0.050  0.00  0.00    -0.091 NA
ATOM      2  S   UNL     1       6.857   0.321   1.299  0.00  0.00    -0.012 S 
ATOM      3  C   UNL     1       5.633   0.256   2.563  0.00  0.00    +0.025 C 
ATOM      4  C   UNL     1       4.918   1.284   3.044  0.00  0.00    +0.013 C 
ATOM      5  C   UNL     1       4.003   0.829   4.087  0.00  0.00    -0.002 C 
ATOM      6  C   UNL     1       4.126  -0.481   4.283  0.00  0.00    -0.002 C 
ATOM      7  C   UNL     1       5.187  -0.971   3.325  0.00  0.00    +0.126 C 
ATOM      8  N   UNL     1       4.604  -1.965   2.393  0.00  0.00    -0.238 NA
ATOM      9  S   UNL     1       5.854  -3.145   1.950  0.00  0.00    +0.017 S 
ATOM     10  N   UNL     1       5.817  -3.127   0.175  0.00  0.00    -0.180 NA
ATOM     11  S   UNL     1       7.095  -2.053  -0.431  0.00  0.00    +0.028 S 
ATOM     12  N   UNL     1       6.270  -1.113  -1.691  0.00  0.00    -0.178 NA
ATOM     13  S   UNL     1       6.755   0.589  -1.580  0.00  0.00    +0.049 S 
ATOM     14  H   UNL     1       4.375  -1.432   1.527  0.00  0.00    +0.137 HD
ATOM     15  H   UNL     1       4.909  -2.688  -0.097  0.00  0.00    +0.151 HD
ATOM     16  H   UNL     1       5.251  -1.156  -1.472  0.00  0.00    +0.151 HD
ENDROOT
BRANCH   1  19
ATOM     17  C   UNL     1       3.725   1.670  -0.025  0.00  0.00    +0.266 C 
ATOM     18  O   UNL     1       4.008   2.853  -0.021  0.00  0.00    -0.268 OA
ATOM     19  N   UNL     1       4.703   0.743  -0.039  0.00  0.00    -0.223 N 
ATOM     20  H   UNL     1       4.477  -0.201  -0.042  0.00  0.00    +0.171 HD
BRANCH  17  23
ATOM     21  C   UNL     1      -0.016   1.352   0.009  0.00  0.00    +0.008 A 
ATOM     22  C   UNL     1       1.175   2.036   0.002  0.00  0.00    +0.021 A 
ATOM     23  C   UNL     1       2.320   1.253  -0.013  0.00  0.00    +0.075 A 
ATOM     24  S   UNL     1       1.636  -0.394  -0.016  0.00  0.00    -0.092 S 
ATOM     25  C   UNL     1       0.002  -0.004   0.002  0.00  0.00    +0.046 A 
ENDBRANCH  17  23
ENDBRANCH   1  19
TORSDOF 2
