REMARK  Name = ZINC06653344
REMARK  7 active torsions:
REMARK  status: ('A' for Active; 'I' for Inactive)
REMARK    1  A    between atoms: C_1  and  C_2
REMARK    2  A    between atoms: C_15  and  C_17
REMARK    3  A    between atoms: C_17  and  C_19
REMARK    4  A    between atoms: C_17  and  N_20
REMARK    5  A    between atoms: N_20  and  C_21
REMARK    6  A    between atoms: C_24  and  N_27
REMARK    7  A    between atoms: C_28  and  C_30
REMARK                            x       y       z     vdW  Elec       q    Type
REMARK                         _______ _______ _______ _____ _____    ______ ____
ROOT
ATOM      1  C   UNL     1       7.432  -5.191   3.918  0.00  0.00    +0.008 C 
ATOM      2  C   UNL     1       6.582  -3.952   3.631  0.00  0.00    -0.009 C 
ATOM      3  C   UNL     1       7.294  -3.068   2.602  0.00  0.00    +0.008 C 
ATOM      4  C   UNL     1       6.581  -1.719   2.494  0.00  0.00    +0.037 C 
ATOM      5  C   UNL     1       5.097  -1.966   2.236  0.00  0.00    -0.023 A 
ATOM      6  C   UNL     1       4.542  -3.167   2.501  0.00  0.00    -0.004 A 
ATOM      7  S   UNL     1       2.835  -2.994   2.054  0.00  0.00    -0.073 S 
ATOM      8  C   UNL     1       2.873  -1.304   1.512  0.00  0.00    +0.116 A 
ATOM      9  C   UNL     1       4.214  -0.932   1.696  0.00  0.00    +0.075 A 
ATOM     10  C   UNL     1       4.540   0.415   1.331  0.00  0.00    +0.260 A 
ATOM     11  O   UNL     1       5.679   0.832   1.454  0.00  0.00    -0.267 OA
ATOM     12  N   UNL     1       3.568   1.211   0.849  0.00  0.00    -0.309 N 
ATOM     13  H   UNL     1       3.788   2.152   0.592  0.00  0.00    +0.170 HD
ATOM     14  C   UNL     1       2.294   0.763   0.705  0.00  0.00    +0.131 A 
ATOM     15  N   UNL     1       1.965  -0.457   1.034  0.00  0.00    -0.225 NA
ATOM     16  C   UNL     1       5.225  -4.381   3.055  0.00  0.00    +0.046 C 
ENDROOT
BRANCH  14  17
ATOM     17  C   UNL     1       1.239   1.693   0.162  0.00  0.00    +0.133 C 
ATOM     18  C   UNL     1       1.697   2.250  -1.187  0.00  0.00    +0.036 C 
BRANCH  17  19
ATOM     19  N   UNL     1      -0.016   0.958  -0.014  0.00  0.00    -0.334 N 
ATOM     20  H   UNL     1      -0.001  -0.004  -0.144  0.00  0.00    +0.147 HD
BRANCH  19  21
ATOM     21  C   UNL     1      -1.236   1.643   0.001  0.00  0.00    +0.028 A 
ATOM     22  C   UNL     1      -1.258   3.018   0.194  0.00  0.00    +0.025 A 
ATOM     23  C   UNL     1      -2.461   3.695   0.202  0.00  0.00    +0.025 A 
ATOM     24  C   UNL     1      -3.650   2.999   0.030  0.00  0.00    +0.033 A 
ATOM     25  C   UNL     1      -3.629   1.623  -0.156  0.00  0.00    +0.025 A 
ATOM     26  C   UNL     1      -2.425   0.947  -0.171  0.00  0.00    +0.025 A 
BRANCH  24  27
ATOM     27  N   UNL     1      -4.872   3.685   0.044  0.00  0.00    -0.286 N 
ATOM     28  C   UNL     1      -5.974   3.088   0.539  0.00  0.00    +0.214 C 
ATOM     29  O   UNL     1      -5.891   1.996   1.060  0.00  0.00    -0.276 OA
ATOM     30  C   UNL     1      -7.311   3.778   0.447  0.00  0.00    +0.109 C 
ATOM     31  H   UNL     1      -4.924   4.589  -0.302  0.00  0.00    +0.155 HD
ENDBRANCH  24  27
ENDBRANCH  19  21
ENDBRANCH  17  19
ENDBRANCH  14  17
TORSDOF 4
