REMARK  Name = ZINC29021304
REMARK  8 active torsions:
REMARK  status: ('A' for Active; 'I' for Inactive)
REMARK    1  A    between atoms: C_1  and  C_2
REMARK    2  A    between atoms: C_2  and  C_4
REMARK    3  A    between atoms: C_2  and  N_16
REMARK    4  A    between atoms: C_7  and  C_10
REMARK    5  A    between atoms: C_17  and  C_19
REMARK    6  A    between atoms: C_22  and  S_25
REMARK    7  A    between atoms: S_25  and  N_28
REMARK    8  A    between atoms: N_28  and  C_29
REMARK                            x       y       z     vdW  Elec       q    Type
REMARK                         _______ _______ _______ _____ _____    ______ ____
ROOT
ATOM      1  N   UNL     1      -0.334   4.277   0.522  0.00  0.00    -0.305 N 
ATOM      2  C   UNL     1      -0.556   2.950   0.453  0.00  0.00    +0.245 C 
ATOM      3  O   UNL     1      -1.694   2.522   0.482  0.00  0.00    -0.270 OA
ATOM      4  H   UNL     1       0.696   4.664   0.496  0.00  0.00    +0.150 HD
ENDROOT
BRANCH   2   5
ATOM      5  C   UNL     1       0.583   2.014   0.344  0.00  0.00    +0.037 A 
ATOM      6  C   UNL     1       1.890   2.502   0.305  0.00  0.00    +0.015 A 
ATOM      7  C   UNL     1       2.948   1.624   0.197  0.00  0.00    +0.029 A 
ATOM      8  C   UNL     1       2.716   0.262   0.128  0.00  0.00    +0.109 A 
ATOM      9  C   UNL     1       1.423  -0.229   0.165  0.00  0.00    +0.029 A 
ATOM     10  C   UNL     1       0.356   0.638   0.273  0.00  0.00    +0.015 A 
BRANCH   8  11
ATOM     11  S   UNL     1       4.074  -0.853  -0.010  0.00  0.00    +0.072 S 
ATOM     12  O   UNL     1       5.229  -0.140   0.408  0.00  0.00    -0.150 OA
ATOM     13  O   UNL     1       3.665  -2.068   0.605  0.00  0.00    -0.150 OA
BRANCH  11  14
ATOM     14  N   UNL     1       4.277  -1.182  -1.620  0.00  0.00    -0.216 N 
ATOM     15  H   UNL     1       4.136  -2.207  -1.994  0.00  0.00    +0.174 HD
BRANCH  14  16
ATOM     16  C   UNL     1       4.624  -0.162  -2.500  0.00  0.00    +0.051 A 
ATOM     17  C   UNL     1       3.688   0.366  -3.390  0.00  0.00    +0.042 A 
ATOM     18  C   UNL     1       4.072   1.380  -4.242  0.00  0.00    +0.084 A 
ATOM     19  N   UNL     1       5.307   1.844  -4.229  0.00  0.00    -0.367 N 
ATOM     20  C   UNL     1       6.223   1.367  -3.406  0.00  0.00    +0.084 A 
ATOM     21  C   UNL     1       5.919   0.356  -2.519  0.00  0.00    +0.042 A 
ATOM     22  H   UNL     1       5.599   2.650  -4.918  0.00  0.00    +0.165 HD
ENDBRANCH  14  16
ENDBRANCH  11  14
ENDBRANCH   8  11
ENDBRANCH   2   5
BRANCH   1  24
ATOM     23  C   UNL     1      -2.003   5.516  -0.767  0.00  0.00    +0.033 C 
ATOM     24  C   UNL     1      -1.463   5.205   0.630  0.00  0.00    +0.100 C 
BRANCH  24  25
ATOM     25  C   UNL     1      -1.003   6.481   1.286  0.00  0.00    -0.027 A 
ATOM     26  C   UNL     1       0.234   7.013   0.968  0.00  0.00    +0.006 A 
ATOM     27  C   UNL     1       0.657   8.184   1.562  0.00  0.00    +0.009 A 
ATOM     28  C   UNL     1      -0.159   8.826   2.492  0.00  0.00    -0.018 A 
ATOM     29  C   UNL     1      -1.401   8.283   2.813  0.00  0.00    +0.009 A 
ATOM     30  C   UNL     1      -1.817   7.113   2.209  0.00  0.00    +0.006 A 
BRANCH  28  31
ATOM     31  C   UNL     1       0.294  10.083   3.138  0.00  0.00    -0.018 A 
ATOM     32  C   UNL     1      -0.525  10.727   4.063  0.00  0.00    +0.008 A 
ATOM     33  C   UNL     1      -0.097  11.894   4.664  0.00  0.00    +0.001 A 
ATOM     34  C   UNL     1       1.138  12.428   4.342  0.00  0.00    +0.000 A 
ATOM     35  C   UNL     1       1.952  11.795   3.421  0.00  0.00    +0.001 A 
ATOM     36  C   UNL     1       1.536  10.626   2.817  0.00  0.00    +0.008 A 
ENDBRANCH  28  31
ENDBRANCH  24  25
ENDBRANCH   1  24
TORSDOF 7
