REMARK  Name = ZINC04317755
REMARK  7 active torsions:
REMARK  status: ('A' for Active; 'I' for Inactive)
REMARK    1  A    between atoms: C_1  and  C_2
REMARK    2  A    between atoms: C_3  and  N_9
REMARK    3  A    between atoms: C_13  and  N_17
REMARK    4  A    between atoms: N_17  and  C_18
REMARK    5  A    between atoms: C_21  and  N_24
REMARK    6  A    between atoms: N_24  and  C_25
REMARK    7  A    between atoms: N_24  and  C_26
REMARK                            x       y       z     vdW  Elec       q    Type
REMARK                         _______ _______ _______ _____ _____    ______ ____
ROOT
ATOM      1  N   UNL     1      -0.001   0.046  -2.417  0.00  0.00    -0.209 N 
ATOM      2  C   UNL     1       1.116   0.411  -3.059  0.00  0.00    +0.228 C 
ATOM      3  O   UNL     1       2.247   0.195  -2.679  0.00  0.00    -0.275 OA
ATOM      4  C   UNL     1       0.743   1.134  -4.335  0.00  0.00    +0.128 C 
ATOM      5  C   UNL     1      -0.799   1.125  -4.318  0.00  0.00    +0.166 C 
ATOM      6  C   UNL     1      -1.135   0.392  -3.038  0.00  0.00    +0.247 C 
ATOM      7  O   UNL     1      -2.255   0.157  -2.637  0.00  0.00    -0.273 OA
ENDROOT
BRANCH   1  10
ATOM      8  C   UNL     1       0.004   1.563  -0.009  0.00  0.00    +0.047 C 
ATOM      9  C   UNL     1       0.019   0.056  -0.000  0.00  0.00    -0.010 A 
ATOM     10  C   UNL     1       0.017  -0.646  -1.198  0.00  0.00    +0.048 A 
ATOM     11  C   UNL     1       0.031  -2.034  -1.187  0.00  0.00    +0.024 A 
ATOM     12  C   UNL     1       0.048  -2.714   0.016  0.00  0.00    +0.003 A 
ATOM     13  C   UNL     1       0.049  -2.013   1.208  0.00  0.00    +0.020 A 
ATOM     14  C   UNL     1       0.041  -0.629   1.200  0.00  0.00    +0.046 A 
ATOM     15 CL   UNL     1       0.051   0.247   2.699  0.00  0.00    -0.083 Cl
ENDBRANCH   1  10
BRANCH   5  16
ATOM     16  N   UNL     1      -1.323   0.400  -5.479  0.00  0.00    -0.333 N 
ATOM     17  H   UNL     1      -0.781  -0.278  -5.912  0.00  0.00    +0.147 HD
BRANCH  16  18
ATOM     18  C   UNL     1      -2.604   0.686  -5.963  0.00  0.00    +0.028 A 
ATOM     19  C   UNL     1      -3.378   1.661  -5.347  0.00  0.00    +0.025 A 
ATOM     20  C   UNL     1      -4.642   1.944  -5.824  0.00  0.00    +0.025 A 
ATOM     21  C   UNL     1      -5.141   1.253  -6.921  0.00  0.00    +0.029 A 
ATOM     22  C   UNL     1      -4.367   0.278  -7.537  0.00  0.00    +0.025 A 
ATOM     23  C   UNL     1      -3.101  -0.001  -7.063  0.00  0.00    +0.025 A 
BRANCH  21  24
ATOM     24  N   UNL     1      -6.423   1.538  -7.405  0.00  0.00    -0.336 N 
ATOM     25  C   UNL     1      -7.287   2.475  -6.681  0.00  0.00    +0.129 C 
ATOM     26  C   UNL     1      -6.901   0.901  -8.634  0.00  0.00    +0.129 C 
ENDBRANCH  21  24
ENDBRANCH  16  18
ENDBRANCH   5  16
TORSDOF 4
