REMARK  Name = ZINC12910050
REMARK  10 active torsions:
REMARK  status: ('A' for Active; 'I' for Inactive)
REMARK    1  A    between atoms: C_1  and  O_2
REMARK    2  A    between atoms: O_2  and  C_3
REMARK    3  A    between atoms: C_3  and  C_4
REMARK    4  A    between atoms: C_4  and  N_61
REMARK    5  A    between atoms: C_5  and  C_6
REMARK    6  A    between atoms: C_5  and  N_61
REMARK    7  A    between atoms: C_9  and  C_11
REMARK    8  A    between atoms: C_16  and  C_17
REMARK    9  A    between atoms: C_16  and  N_61
REMARK   10  A    between atoms: C_23  and  C_26
REMARK                            x       y       z     vdW  Elec       q    Type
REMARK                         _______ _______ _______ _____ _____    ______ ____
ROOT
ATOM      1  C   UNL     1      -6.786   4.039  -1.398  0.00  0.00    +0.020 C 
ENDROOT
BRANCH   1   2
ATOM      2  C   UNL     1      -7.308   4.207  -2.802  0.00  0.00    +0.199 C 
ATOM      3  O   UNL     1      -6.547   4.139  -3.744  0.00  0.00    -0.278 OA
ATOM      4  N   UNL     1      -8.620   4.433  -3.010  0.00  0.00    -0.302 N 
ATOM      5  C   UNL     1      -9.555   4.513  -1.880  0.00  0.00    +0.108 C 
ATOM      6  C   UNL     1     -10.704   3.534  -2.115  0.00  0.00    +0.020 C 
ATOM      7  C   UNL     1     -11.340   3.816  -3.478  0.00  0.00    +0.013 C 
ATOM      8  C   UNL     1     -10.298   3.614  -4.581  0.00  0.00    +0.062 C 
ATOM      9  C   UNL     1      -9.143   4.599  -4.373  0.00  0.00    +0.118 C 
BRANCH   8  10
ATOM     10  C   UNL     1     -10.933   3.861  -5.925  0.00  0.00    +0.084 A 
ATOM     11  N   UNL     1     -11.506   4.947  -6.362  0.00  0.00    -0.244 NA
ATOM     12  C   UNL     1     -12.036   5.039  -7.599  0.00  0.00    +0.078 A 
ATOM     13  C   UNL     1     -12.678   6.137  -8.213  0.00  0.00    +0.029 A 
ATOM     14  C   UNL     1     -13.161   6.040  -9.482  0.00  0.00    +0.002 A 
ATOM     15  C   UNL     1     -13.042   4.869 -10.218  0.00  0.00    +0.001 A 
ATOM     16  C   UNL     1     -12.419   3.772  -9.653  0.00  0.00    +0.017 A 
ATOM     17  C   UNL     1     -11.929   3.860  -8.372  0.00  0.00    +0.039 A 
ATOM     18  S   UNL     1     -11.085   2.763  -7.262  0.00  0.00    -0.072 S 
ENDBRANCH   8  10
ENDBRANCH   1   2
BRANCH   1  19
ATOM     19  N   UNL     1      -5.331   3.784  -1.457  0.00  0.00    +0.393 N 
ATOM     20  H   UNL     1      -5.154   3.012  -2.111  0.00  0.00    -0.080 HD
BRANCH  19  21
ATOM     21  C   UNL     1      -4.625   4.991  -1.936  0.00  0.00    -0.049 C 
BRANCH  21  22
ATOM     22  C   UNL     1      -4.952   6.191  -1.046  0.00  0.00    +0.141 C 
BRANCH  22  24
ATOM     23  C   UNL     1      -4.616   7.071   1.158  0.00  0.00    +0.193 C 
ATOM     24  O   UNL     1      -4.370   6.000   0.245  0.00  0.00    -0.385 OA
ENDBRANCH  22  24
ENDBRANCH  21  22
ENDBRANCH  19  21
BRANCH  19  25
ATOM     25  C   UNL     1      -4.830   3.403  -0.120  0.00  0.00    +0.021 C 
BRANCH  25  26
ATOM     26  C   UNL     1      -3.360   3.089  -0.220  0.00  0.00    +0.202 A 
ATOM     27  N   UNL     1      -2.379   3.902   0.053  0.00  0.00    -0.114 NA
ATOM     28  N   UNL     1      -1.256   3.304  -0.137  0.00  0.00    -0.107 NA
ATOM     29  C   UNL     1      -1.484   2.076  -0.552  0.00  0.00    +0.255 A 
ATOM     30  O   UNL     1      -2.823   1.917  -0.609  0.00  0.00    -0.422 OA
BRANCH  29  31
ATOM     31  C   UNL     1      -0.470   1.065  -0.885  0.00  0.00    +0.076 A 
ATOM     32  C   UNL     1       0.908   1.169  -0.853  0.00  0.00    +0.021 A 
ATOM     33  C   UNL     1       1.655   0.074  -1.219  0.00  0.00    +0.008 A 
ATOM     34  C   UNL     1       1.022  -1.067  -1.598  0.00  0.00    +0.046 A 
ATOM     35  S   UNL     1      -0.698  -0.615  -1.445  0.00  0.00    -0.092 S 
ENDBRANCH  29  31
ENDBRANCH  25  26
ENDBRANCH  19  25
ENDBRANCH   1  19
TORSDOF 9
