REMARK  Name = ZINC36645544
REMARK  11 active torsions:
REMARK  status: ('A' for Active; 'I' for Inactive)
REMARK    1  A    between atoms: C_1  and  C_2
REMARK    2  A    between atoms: N_11  and  C_12
REMARK    3  A    between atoms: C_12  and  C_13
REMARK    4  A    between atoms: C_13  and  C_14
REMARK    5  A    between atoms: C_14  and  N_15
REMARK    6  A    between atoms: N_15  and  C_16
REMARK    7  A    between atoms: N_15  and  C_17
REMARK    8  A    between atoms: C_18  and  C_20
REMARK    9  A    between atoms: C_20  and  N_21
REMARK   10  A    between atoms: N_28  and  C_33
REMARK   11  A    between atoms: N_31  and  C_32
REMARK                            x       y       z     vdW  Elec       q    Type
REMARK                         _______ _______ _______ _____ _____    ______ ____
ROOT
ATOM      1  C   UNL     1      -0.018   1.503   0.010  0.00  0.00    +0.047 C 
ATOM      2  C   UNL     1       0.002  -0.004   0.002  0.00  0.00    -0.006 A 
ATOM      3  C   UNL     1       0.006  -0.676  -1.194  0.00  0.00    +0.046 A 
ATOM      4  C   UNL     1       0.025  -2.063  -1.246  0.00  0.00    +0.021 A 
ATOM      5  C   UNL     1       0.041  -2.785  -0.066  0.00  0.00    +0.019 A 
ATOM      6  C   UNL     1       0.037  -2.121   1.135  0.00  0.00    +0.041 A 
ATOM      7  C   UNL     1       0.023  -0.710   1.227  0.00  0.00    +0.085 A 
ATOM      8  N   UNL     1       0.028  -0.206   2.480  0.00  0.00    -0.224 NA
ATOM      9  C   UNL     1       0.048  -0.969   3.547  0.00  0.00    +0.168 A 
ATOM     10  S   UNL     1       0.052  -2.611   2.842  0.00  0.00    -0.052 S 
ATOM     11  N   UNL     1       0.054  -0.596   4.882  0.00  0.00    -0.249 N 
ATOM     12  C   UNL     1       0.039   0.709   5.217  0.00  0.00    +0.241 C 
ATOM     13  O   UNL     1       0.020   1.557   4.351  0.00  0.00    -0.273 OA
ATOM     14 CL   UNL     1      -0.015   0.229  -2.675  0.00  0.00    -0.083 Cl
ENDROOT
BRANCH  11  15
ATOM     15  C   UNL     1       0.078  -1.621   5.928  0.00  0.00    +0.114 C 
BRANCH  15  16
ATOM     16  C   UNL     1       1.528  -1.958   6.280  0.00  0.00    +0.001 C 
BRANCH  16  17
ATOM     17  C   UNL     1       1.553  -3.028   7.373  0.00  0.00    -0.078 C 
BRANCH  17  18
ATOM     18  N   UNL     1       2.946  -3.352   7.710  0.00  0.00    +0.376 N 
ATOM     19  C   UNL     1       3.592  -2.174   8.305  0.00  0.00    -0.097 C 
ATOM     20  C   UNL     1       2.972  -4.462   8.672  0.00  0.00    -0.097 C 
ATOM     21  H   UNL     1       3.441  -3.620   6.873  0.00  0.00    -0.083 HD
ENDBRANCH  17  18
ENDBRANCH  16  17
ENDBRANCH  15  16
ENDBRANCH  11  15
BRANCH  12  22
ATOM     22  C   UNL     1       0.046   1.114   6.669  0.00  0.00    +0.219 C 
BRANCH  22  23
ATOM     23  N   UNL     1       0.027   2.576   6.768  0.00  0.00    -0.316 N 
ATOM     24  C   UNL     1       1.096   3.384   6.901  0.00  0.00    +0.202 A 
ATOM     25  N   UNL     1       0.703   4.631   6.957  0.00  0.00    -0.218 NA
ATOM     26  C   UNL     1      -0.628   4.690   6.865  0.00  0.00    +0.168 A 
ATOM     27  C   UNL     1      -1.090   3.386   6.737  0.00  0.00    +0.152 A 
ATOM     28  C   UNL     1      -2.478   3.157   6.613  0.00  0.00    +0.282 A 
ATOM     29  O   UNL     1      -2.907   2.023   6.503  0.00  0.00    -0.265 OA
ATOM     30  N   UNL     1      -3.322   4.209   6.620  0.00  0.00    -0.262 N 
ATOM     31  C   UNL     1      -2.861   5.466   6.742  0.00  0.00    +0.333 A 
ATOM     32  O   UNL     1      -3.652   6.390   6.744  0.00  0.00    -0.246 OA
ATOM     33  N   UNL     1      -1.547   5.727   6.869  0.00  0.00    -0.280 N 
ATOM     34  C   UNL     1      -1.085   7.112   6.998  0.00  0.00    +0.155 C 
ATOM     35  C   UNL     1      -4.763   3.978   6.492  0.00  0.00    +0.157 C 
ENDBRANCH  22  23
ENDBRANCH  12  22
TORSDOF 6
