REMARK  Name = ZINC20719892
REMARK  8 active torsions:
REMARK  status: ('A' for Active; 'I' for Inactive)
REMARK    1  A    between atoms: C_1  and  C_2
REMARK    2  A    between atoms: C_2  and  C_3
REMARK    3  A    between atoms: C_2  and  C_4
REMARK    4  A    between atoms: C_4  and  C_6
REMARK    5  A    between atoms: C_4  and  N_10
REMARK    6  A    between atoms: C_6  and  O_8
REMARK    7  A    between atoms: O_8  and  C_9
REMARK    8  A    between atoms: C_22  and  C_24
REMARK                            x       y       z     vdW  Elec       q    Type
REMARK                         _______ _______ _______ _____ _____    ______ ____
ROOT
ATOM      1  N   UNL     1       1.353   2.093   2.343  0.00  0.00    -0.286 N 
ATOM      2  C   UNL     1       2.287   1.297   1.786  0.00  0.00    +0.304 C 
ATOM      3  O   UNL     1       1.990   0.176   1.420  0.00  0.00    -0.253 OA
ATOM      4  N   UNL     1       3.549   1.743   1.634  0.00  0.00    -0.273 N 
ATOM      5  C   UNL     1       4.557   0.933   0.933  0.00  0.00    +0.116 C 
ATOM      6  C   UNL     1       5.665   0.543   1.919  0.00  0.00    +0.076 C 
ATOM      7  C   UNL     1       6.054   1.759   2.721  0.00  0.00    +0.066 A 
ATOM      8  C   UNL     1       5.296   2.871   2.836  0.00  0.00    +0.064 A 
ATOM      9  N   UNL     1       5.972   3.739   3.635  0.00  0.00    -0.346 N 
ATOM     10  H   UNL     1       5.679   4.625   3.903  0.00  0.00    +0.167 HD
ATOM     11  C   UNL     1       7.130   3.133   3.986  0.00  0.00    +0.197 A 
ATOM     12  N   UNL     1       7.169   1.949   3.434  0.00  0.00    -0.240 NA
ATOM     13  C   UNL     1       3.955   3.059   2.162  0.00  0.00    +0.159 C 
ATOM     14  H   UNL     1       1.603   2.963   2.691  0.00  0.00    +0.151 HD
ENDROOT
BRANCH  13  15
ATOM     15  C   UNL     1       4.077   4.049   1.033  0.00  0.00    +0.014 A 
ATOM     16  C   UNL     1       5.326   4.412   0.564  0.00  0.00    +0.011 A 
ATOM     17  C   UNL     1       5.439   5.320  -0.472  0.00  0.00    +0.039 A 
ATOM     18  C   UNL     1       4.302   5.867  -1.041  0.00  0.00    +0.126 A 
ATOM     19  C   UNL     1       3.051   5.505  -0.572  0.00  0.00    +0.077 A 
ATOM     20  C   UNL     1       2.938   4.591   0.462  0.00  0.00    +0.131 A 
ATOM     21  F   UNL     1       1.718   4.232   0.916  0.00  0.00    -0.205 F 
ATOM     22  F   UNL     1       4.413   6.755  -2.053  0.00  0.00    -0.205 F 
ENDBRANCH  13  15
BRANCH   1  23
ATOM     23  C   UNL     1      -0.040   1.645   2.422  0.00  0.00    +0.186 C 
BRANCH  23  25
ATOM     24  C   UNL     1       0.695  -0.426   3.611  0.00  0.00    +0.009 C 
ATOM     25  C   UNL     1      -0.230   0.791   3.677  0.00  0.00    +0.014 C 
ATOM     26  C   UNL     1       0.109   1.623   4.916  0.00  0.00    +0.009 C 
ENDBRANCH  23  25
BRANCH  23  27
ATOM     27  C   UNL     1      -0.951   2.843   2.487  0.00  0.00    +0.328 C 
ATOM     28  O   UNL     1      -0.485   3.958   2.469  0.00  0.00    -0.249 OA
BRANCH  27  29
ATOM     29  O   UNL     1      -2.280   2.673   2.564  0.00  0.00    -0.467 OA
ATOM     30  C   UNL     1      -3.083   3.853   2.623  0.00  0.00    +0.280 C 
ENDBRANCH  27  29
ENDBRANCH  23  27
ENDBRANCH   1  23
TORSDOF 5
