REMARK  Name = ZINC39841299
REMARK  8 active torsions:
REMARK  status: ('A' for Active; 'I' for Inactive)
REMARK    1  A    between atoms: C_1  and  C_2
REMARK    2  A    between atoms: C_14  and  C_26
REMARK    3  A    between atoms: C_15  and  N_16
REMARK    4  A    between atoms: N_17  and  C_18
REMARK    5  A    between atoms: C_18  and  C_19
REMARK    6  A    between atoms: C_19  and  C_20
REMARK    7  A    between atoms: C_31  and  C_34
REMARK    8  A    between atoms: C_34  and  C_35
REMARK                            x       y       z     vdW  Elec       q    Type
REMARK                         _______ _______ _______ _____ _____    ______ ____
ROOT
ATOM      1  C   UNL     1       0.242   1.268  -0.128  0.00  0.00    +0.047 C 
ATOM      2  C   UNL     1      -0.005  -0.218  -0.068  0.00  0.00    -0.007 A 
ATOM      3  C   UNL     1      -0.188  -0.928  -1.214  0.00  0.00    +0.008 A 
ATOM      4  C   UNL     1      -0.417  -2.311  -1.145  0.00  0.00    +0.019 A 
ATOM      5  C   UNL     1      -0.455  -2.932   0.054  0.00  0.00    +0.096 A 
ATOM      6  N   UNL     1      -0.273  -2.230   1.210  0.00  0.00    -0.267 N 
ATOM      7  C   UNL     1      -0.041  -0.881   1.177  0.00  0.00    +0.145 A 
ATOM      8  N   UNL     1       0.146  -0.167   2.281  0.00  0.00    -0.211 NA
ATOM      9  C   UNL     1       0.127  -0.718   3.499  0.00  0.00    +0.150 A 
ATOM     10  C   UNL     1      -0.102  -2.116   3.616  0.00  0.00    +0.083 A 
ATOM     11  C   UNL     1      -0.319  -2.890   2.392  0.00  0.00    +0.268 A 
ATOM     12  O   UNL     1      -0.518  -4.090   2.434  0.00  0.00    -0.267 OA
ATOM     13  C   UNL     1      -0.127  -2.711   4.875  0.00  0.00    +0.033 A 
ATOM     14  C   UNL     1       0.078  -1.895   5.989  0.00  0.00    +0.075 A 
ATOM     15  C   UNL     1       0.299  -0.512   5.800  0.00  0.00    +0.110 A 
ATOM     16  N   UNL     1       0.317   0.021   4.593  0.00  0.00    -0.313 N 
ENDROOT
BRANCH  14  17
ATOM     17  C   UNL     1       0.062  -2.468   7.345  0.00  0.00    +0.250 C 
ATOM     18  O   UNL     1       1.005  -2.288   8.092  0.00  0.00    -0.270 OA
ATOM     19  N   UNL     1      -0.997  -3.192   7.758  0.00  0.00    -0.297 N 
ATOM     20  C   UNL     1      -2.101  -3.495   6.838  0.00  0.00    +0.108 C 
ATOM     21  C   UNL     1      -3.417  -3.049   7.482  0.00  0.00    +0.023 C 
ATOM     22  C   UNL     1      -3.551  -3.699   8.861  0.00  0.00    -0.004 C 
ATOM     23  C   UNL     1      -2.396  -3.244   9.756  0.00  0.00    +0.023 C 
ATOM     24  C   UNL     1      -1.066  -3.697   9.136  0.00  0.00    +0.108 C 
BRANCH  22  25
ATOM     25  C   UNL     1      -4.881  -3.283   9.494  0.00  0.00    +0.038 C 
BRANCH  25  26
ATOM     26  C   UNL     1      -5.070  -4.018  10.796  0.00  0.00    -0.047 A 
ATOM     27  C   UNL     1      -5.706  -5.245  10.810  0.00  0.00    +0.003 A 
ATOM     28  C   UNL     1      -5.879  -5.920  12.005  0.00  0.00    +0.000 A 
ATOM     29  C   UNL     1      -5.416  -5.367  13.184  0.00  0.00    +0.000 A 
ATOM     30  C   UNL     1      -4.779  -4.141  13.169  0.00  0.00    +0.000 A 
ATOM     31  C   UNL     1      -4.602  -3.468  11.974  0.00  0.00    +0.003 A 
ENDBRANCH  25  26
ENDBRANCH  22  25
ENDBRANCH  14  17
BRANCH  15  32
ATOM     32  N   UNL     1       0.502   0.296   6.899  0.00  0.00    -0.344 N 
ATOM     33  H   UNL     1       0.581  -0.098   7.782  0.00  0.00    +0.144 HD
ATOM     34  H   UNL     1       0.565   1.257   6.789  0.00  0.00    +0.144 HD
ENDBRANCH  15  32
BRANCH  16  35
ATOM     35  C   UNL     1       0.551   1.460   4.452  0.00  0.00    +0.129 C 
BRANCH  35  36
ATOM     36  C   UNL     1      -0.788   2.201   4.488  0.00  0.00    +0.057 C 
BRANCH  36  37
ATOM     37  C   UNL     1      -0.547   3.681   4.342  0.00  0.00    -0.046 A 
ATOM     38  C   UNL     1      -0.342   4.462   5.464  0.00  0.00    +0.004 A 
ATOM     39  C   UNL     1      -0.122   5.820   5.330  0.00  0.00    +0.000 A 
ATOM     40  C   UNL     1      -0.105   6.397   4.074  0.00  0.00    +0.000 A 
ATOM     41  C   UNL     1      -0.309   5.616   2.952  0.00  0.00    +0.000 A 
ATOM     42  C   UNL     1      -0.525   4.258   3.086  0.00  0.00    +0.004 A 
ENDBRANCH  36  37
ENDBRANCH  35  36
ENDBRANCH  16  35
TORSDOF 7
