REMARK  Name = ZINC08768499
REMARK  10 active torsions:
REMARK  status: ('A' for Active; 'I' for Inactive)
REMARK    1  A    between atoms: C_1  and  O_2
REMARK    2  A    between atoms: O_2  and  C_3
REMARK    3  A    between atoms: C_8  and  O_9
REMARK    4  A    between atoms: O_9  and  C_10
REMARK    5  A    between atoms: C_11  and  C_15
REMARK    6  A    between atoms: C_16  and  O_31
REMARK    7  A    between atoms: C_18  and  O_30
REMARK    8  A    between atoms: N_19  and  C_22
REMARK    9  A    between atoms: C_22  and  C_23
REMARK   10  A    between atoms: C_23  and  C_24
REMARK                            x       y       z     vdW  Elec       q    Type
REMARK                         _______ _______ _______ _____ _____    ______ ____
ROOT
ATOM      1  C   UNL     1      -0.017   1.397   0.010  0.00  0.00    +0.069 A 
ATOM      2  C   UNL     1       1.188   2.077   0.002  0.00  0.00    +0.224 A 
ATOM      3  N   UNL     1       2.337   1.393  -0.013  0.00  0.00    -0.161 NA
ATOM      4  C   UNL     1       2.347   0.079  -0.020  0.00  0.00    +0.302 A 
ATOM      5  N   UNL     1       1.193  -0.638  -0.013  0.00  0.00    -0.262 N 
ATOM      6  C   UNL     1       0.002  -0.004   0.002  0.00  0.00    +0.262 A 
ATOM      7  O   UNL     1      -1.040  -0.640   0.008  0.00  0.00    -0.267 OA
ENDROOT
BRANCH   1  14
ATOM      8  C   UNL     1      -3.291   1.394   3.748  0.00  0.00    +0.162 A 
ATOM      9  C   UNL     1      -4.024   1.401   2.574  0.00  0.00    +0.053 A 
ATOM     10  C   UNL     1      -3.400   1.640   1.359  0.00  0.00    -0.044 A 
ATOM     11  C   UNL     1      -2.042   1.877   1.316  0.00  0.00    -0.050 A 
ATOM     12  C   UNL     1      -1.303   1.870   2.490  0.00  0.00    +0.052 A 
ATOM     13  C   UNL     1      -1.920   1.630   3.705  0.00  0.00    +0.162 A 
ATOM     14  C   UNL     1      -1.324   2.147   0.020  0.00  0.00    +0.001 C 
ATOM     15  C   UNL     1      -3.485   2.305  -1.036  0.00  0.00    -0.077 C 
ATOM     16  C   UNL     1      -4.240   1.627   0.107  0.00  0.00    +0.016 C 
ATOM     17  N   UNL     1      -2.137   1.711  -1.123  0.00  0.00    +0.387 N 
ATOM     18  H   UNL     1      -2.215   0.688  -1.115  0.00  0.00    -0.085 HD
ATOM     19  H   UNL     1      -1.688   2.014  -1.996  0.00  0.00    -0.085 HD
BRANCH   8  21
ATOM     20  C   UNL     1      -5.316   0.926   4.903  0.00  0.00    +0.277 C 
ATOM     21  O   UNL     1      -3.907   1.159   4.937  0.00  0.00    -0.491 OA
ENDBRANCH   8  21
BRANCH  13  22
ATOM     22  O   UNL     1      -1.190   1.624   4.852  0.00  0.00    -0.491 OA
ATOM     23  C   UNL     1       0.212   1.874   4.730  0.00  0.00    +0.277 C 
ENDBRANCH  13  22
ENDBRANCH   1  14
BRANCH   4  24
ATOM     24  O   UNL     1       3.528  -0.572  -0.035  0.00  0.00    -0.479 OA
ATOM     25  H   UNL     1       4.329  -0.029  -0.039  0.00  0.00    +0.295 HD
ENDBRANCH   4  24
BRANCH   2  26
ATOM     26  O   UNL     1       1.204   3.430   0.009  0.00  0.00    -0.492 OA
ATOM     27  H   UNL     1       2.091   3.813   0.002  0.00  0.00    +0.294 HD
ENDBRANCH   2  26
BRANCH   5  28
ATOM     28  C   UNL     1       1.242  -2.102  -0.022  0.00  0.00    +0.134 C 
BRANCH  28  29
ATOM     29  C   UNL     1       1.246  -2.604  -1.467  0.00  0.00    +0.057 C 
BRANCH  29  30
ATOM     30  C   UNL     1       1.296  -4.110  -1.476  0.00  0.00    -0.046 A 
ATOM     31  C   UNL     1       2.515  -4.761  -1.497  0.00  0.00    +0.004 A 
ATOM     32  C   UNL     1       2.562  -6.142  -1.500  0.00  0.00    +0.000 A 
ATOM     33  C   UNL     1       1.388  -6.873  -1.494  0.00  0.00    +0.000 A 
ATOM     34  C   UNL     1       0.169  -6.222  -1.478  0.00  0.00    +0.000 A 
ATOM     35  C   UNL     1       0.122  -4.841  -1.469  0.00  0.00    +0.004 A 
ENDBRANCH  29  30
ENDBRANCH  28  29
ENDBRANCH   5  28
TORSDOF 8
