REMARK  Name = ZINC25249970
REMARK  5 active torsions:
REMARK  status: ('A' for Active; 'I' for Inactive)
REMARK    1  A    between atoms: C_6  and  C_7
REMARK    2  A    between atoms: C_8  and  C_9
REMARK    3  A    between atoms: N_11  and  C_12
REMARK    4  A    between atoms: C_14  and  C_24
REMARK    5  A    between atoms: C_17  and  N_18
REMARK                            x       y       z     vdW  Elec       q    Type
REMARK                         _______ _______ _______ _____ _____    ______ ____
ROOT
ATOM      1  C   UNL     1       1.193  -0.733  -0.104  0.00  0.00    +0.056 A 
ATOM      2  C   UNL     1       2.409  -0.076  -0.106  0.00  0.00    +0.038 A 
ATOM      3  C   UNL     1       3.595  -0.807  -0.212  0.00  0.00    +0.038 A 
ATOM      4  C   UNL     1       3.549  -2.200  -0.315  0.00  0.00    +0.015 A 
ATOM      5  C   UNL     1       2.335  -2.852  -0.312  0.00  0.00    +0.026 A 
ATOM      6  C   UNL     1       1.154  -2.127  -0.201  0.00  0.00    +0.051 A 
ENDROOT
BRANCH   6   7
ATOM      7  N   UNL     1      -0.070  -2.790  -0.193  0.00  0.00    -0.328 N 
ATOM      8  C   UNL     1      -0.194  -3.651   0.990  0.00  0.00    +0.105 C 
ATOM      9  C   UNL     1      -1.602  -4.249   1.042  0.00  0.00    +0.019 C 
ATOM     10  C   UNL     1      -1.854  -5.061  -0.231  0.00  0.00    +0.003 C 
ATOM     11  C   UNL     1      -1.672  -4.152  -1.450  0.00  0.00    +0.019 C 
ATOM     12  C   UNL     1      -0.262  -3.557  -1.430  0.00  0.00    +0.105 C 
ENDBRANCH   6   7
BRANCH   3  13
ATOM     13  C   UNL     1       4.895  -0.109  -0.215  0.00  0.00    +0.242 C 
ATOM     14  O   UNL     1       4.935   1.103  -0.126  0.00  0.00    -0.270 OA
ATOM     15  N   UNL     1       6.039  -0.815  -0.317  0.00  0.00    -0.325 N 
ATOM     16  H   UNL     1       7.008  -0.295  -0.319  0.00  0.00    +0.145 HD
ATOM     17  H   UNL     1       6.003  -1.912  -0.398  0.00  0.00    +0.145 HD
ENDBRANCH   3  13
BRANCH   1  20
ATOM     18  C   UNL     1      -0.096   1.213  -0.569  0.00  0.00    +0.241 C 
ATOM     19  O   UNL     1       0.875   1.713  -1.106  0.00  0.00    -0.270 OA
ATOM     20  N   UNL     1       0.002  -0.004   0.002  0.00  0.00    -0.280 N 
ATOM     21  H   UNL     1      -0.853  -0.425   0.551  0.00  0.00    +0.155 HD
BRANCH  18  23
ATOM     22  C   UNL     1      -1.469   3.148  -1.121  0.00  0.00    +0.013 C 
ATOM     23  C   UNL     1      -1.371   1.929  -0.549  0.00  0.00    +0.068 C 
BRANCH  22  29
ATOM     24  C   UNL     1      -3.873   3.294  -0.494  0.00  0.00    +0.011 A 
ATOM     25  C   UNL     1      -5.070   3.970  -0.476  0.00  0.00    +0.046 A 
ATOM     26  C   UNL     1      -5.181   5.229  -1.069  0.00  0.00    +0.124 A 
ATOM     27  C   UNL     1      -4.060   5.797  -1.669  0.00  0.00    -0.002 A 
ATOM     28  C   UNL     1      -2.859   5.133  -1.692  0.00  0.00    +0.015 A 
ATOM     29  C   UNL     1      -2.750   3.868  -1.100  0.00  0.00    -0.024 A 
ATOM     30  C   UNL     1      -4.482   7.153  -2.202  0.00  0.00    +0.080 C 
ATOM     31  C   UNL     1      -5.820   7.385  -1.461  0.00  0.00    +0.234 C 
ATOM     32  O   UNL     1      -6.263   6.047  -1.175  0.00  0.00    -0.491 OA
ENDBRANCH  22  29
ENDBRANCH  18  23
ENDBRANCH   1  20
TORSDOF 5
