REMARK  Name = ZINC13635477
REMARK  7 active torsions:
REMARK  status: ('A' for Active; 'I' for Inactive)
REMARK    1  A    between atoms: C_1  and  O_2
REMARK    2  A    between atoms: O_2  and  C_3
REMARK    3  A    between atoms: C_6  and  C_9
REMARK    4  A    between atoms: C_20  and  S_25
REMARK    5  A    between atoms: S_25  and  N_28
REMARK    6  A    between atoms: N_28  and  C_29
REMARK    7  A    between atoms: C_29  and  C_30
REMARK                            x       y       z     vdW  Elec       q    Type
REMARK                         _______ _______ _______ _____ _____    ______ ____
ROOT
ATOM      1  C   UNL     1      -0.077   1.860  -2.407  0.00  0.00    +0.105 C 
ATOM      2  C   UNL     1      -0.871   1.634  -1.146  0.00  0.00    +0.029 C 
ATOM      3  C   UNL     1      -1.323   2.985  -0.542  0.00  0.00    +0.033 C 
ATOM      4  C   UNL     1      -1.446   2.669   0.938  0.00  0.00    -0.030 C 
ATOM      5  C   UNL     1      -0.708   1.620   1.253  0.00  0.00    -0.023 C 
ATOM      6  C   UNL     1      -0.013   1.086   0.008  0.00  0.00    +0.049 C 
ATOM      7  C   UNL     1       1.385   1.645  -0.002  0.00  0.00    -0.018 A 
ATOM      8  C   UNL     1       2.213   1.349   1.072  0.00  0.00    +0.034 A 
ATOM      9  C   UNL     1       3.503   1.838   1.116  0.00  0.00    +0.106 A 
ATOM     10  C   UNL     1       3.985   2.629   0.089  0.00  0.00    +0.030 A 
ATOM     11  C   UNL     1       3.170   2.928  -0.984  0.00  0.00    +0.025 A 
ATOM     12  C   UNL     1       1.871   2.434  -1.029  0.00  0.00    +0.031 A 
ATOM     13  N   UNL     1       1.063   2.741  -2.129  0.00  0.00    -0.336 N 
ATOM     14  H   UNL     1       1.250   3.510  -2.690  0.00  0.00    +0.147 HD
ENDROOT
BRANCH   1  18
ATOM     15  C   UNL     1       1.350  -1.907  -3.834  0.00  0.00    +0.120 A 
ATOM     16  C   UNL     1       0.224  -1.330  -4.403  0.00  0.00    +0.046 A 
ATOM     17  C   UNL     1      -0.235  -0.112  -3.939  0.00  0.00    +0.009 A 
ATOM     18  C   UNL     1       0.426   0.531  -2.910  0.00  0.00    -0.027 A 
ATOM     19  C   UNL     1       1.552  -0.039  -2.345  0.00  0.00    +0.009 A 
ATOM     20  C   UNL     1       2.012  -1.260  -2.800  0.00  0.00    +0.046 A 
BRANCH  15  22
ATOM     21  C   UNL     1       2.969  -3.639  -3.655  0.00  0.00    +0.277 C 
ATOM     22  O   UNL     1       1.804  -3.105  -4.288  0.00  0.00    -0.495 OA
ENDBRANCH  15  22
ENDBRANCH   1  18
BRANCH   9  23
ATOM     23  S   UNL     1       4.541   1.452   2.487  0.00  0.00    +0.059 S 
ATOM     24  O   UNL     1       5.522   2.478   2.555  0.00  0.00    -0.153 OA
ATOM     25  O   UNL     1       3.680   1.148   3.576  0.00  0.00    -0.153 OA
BRANCH  23  26
ATOM     26  N   UNL     1       5.345   0.053   2.114  0.00  0.00    -0.186 NA
ATOM     27  H   UNL     1       5.183  -0.752   2.631  0.00  0.00    +0.148 HD
BRANCH  26  28
ATOM     28  C   UNL     1       6.301   0.031   1.004  0.00  0.00    +0.141 C 
BRANCH  28  29
ATOM     29  C   UNL     1       7.151  -1.209   1.098  0.00  0.00    -0.032 A 
ATOM     30  C   UNL     1       8.337  -1.182   1.808  0.00  0.00    +0.005 A 
ATOM     31  C   UNL     1       9.115  -2.321   1.898  0.00  0.00    +0.000 A 
ATOM     32  C   UNL     1       8.712  -3.485   1.270  0.00  0.00    +0.000 A 
ATOM     33  C   UNL     1       7.528  -3.511   0.556  0.00  0.00    +0.000 A 
ATOM     34  C   UNL     1       6.748  -2.373   0.470  0.00  0.00    +0.005 A 
ENDBRANCH  28  29
ENDBRANCH  26  28
ENDBRANCH  23  26
ENDBRANCH   9  23
TORSDOF 6
