REMARK  Name = ZINC39664667
REMARK  8 active torsions:
REMARK  status: ('A' for Active; 'I' for Inactive)
REMARK    1  A    between atoms: C_1  and  N_2
REMARK    2  A    between atoms: N_2  and  C_3
REMARK    3  A    between atoms: N_2  and  C_4
REMARK    4  A    between atoms: C_4  and  C_5
REMARK    5  A    between atoms: C_5  and  C_7
REMARK    6  A    between atoms: C_5  and  N_13
REMARK    7  A    between atoms: C_14  and  C_16
REMARK    8  A    between atoms: C_27  and  C_29
REMARK                            x       y       z     vdW  Elec       q    Type
REMARK                         _______ _______ _______ _____ _____    ______ ____
ROOT
ATOM      1  C   UNL     1       0.979  -3.118  -2.319  0.00  0.00    +0.100 C 
ATOM      2  C   UNL     1       0.486  -4.303  -3.180  0.00  0.00    +0.121 C 
ATOM      3  N   UNL     1       1.716  -4.859  -3.790  0.00  0.00    -0.296 N 
ATOM      4  C   UNL     1       2.729  -4.785  -2.711  0.00  0.00    +0.115 C 
ATOM      5  C   UNL     1       2.451  -3.438  -2.013  0.00  0.00    -0.004 C 
ATOM      6  C   UNL     1       3.358  -2.351  -2.582  0.00  0.00    -0.010 C 
ATOM      7  C   UNL     1       4.812  -2.663  -2.216  0.00  0.00    -0.082 C 
ATOM      8  N   UNL     1       4.947  -2.726  -0.755  0.00  0.00    +0.379 N 
ATOM      9  C   UNL     1       4.143  -3.833  -0.225  0.00  0.00    -0.082 C 
ATOM     10  C   UNL     1       2.661  -3.572  -0.508  0.00  0.00    -0.010 C 
ATOM     11  C   UNL     1       1.877  -5.328  -5.044  0.00  0.00    +0.247 C 
ATOM     12  O   UNL     1       0.978  -5.219  -5.854  0.00  0.00    -0.270 OA
ATOM     13  H   UNL     1       5.917  -2.870  -0.515  0.00  0.00    -0.086 HD
ATOM     14  H   UNL     1       4.629  -1.858  -0.352  0.00  0.00    -0.086 HD
ENDROOT
BRANCH  11  15
ATOM     15  C   UNL     1       3.149  -5.975  -5.433  0.00  0.00    +0.037 A 
ATOM     16  C   UNL     1       4.001  -6.491  -4.455  0.00  0.00    +0.013 A 
ATOM     17  C   UNL     1       5.186  -7.093  -4.825  0.00  0.00    +0.001 A 
ATOM     18  C   UNL     1       5.530  -7.187  -6.162  0.00  0.00    +0.000 A 
ATOM     19  C   UNL     1       4.689  -6.677  -7.136  0.00  0.00    +0.001 A 
ATOM     20  C   UNL     1       3.499  -6.078  -6.780  0.00  0.00    +0.013 A 
ENDBRANCH  11  15
BRANCH   1  22
ATOM     21  N   UNL     1      -0.018  -4.136  -0.298  0.00  0.00    -0.310 N 
ATOM     22  C   UNL     1       0.184  -3.031  -1.042  0.00  0.00    +0.219 C 
ATOM     23  O   UNL     1      -0.275  -1.967  -0.684  0.00  0.00    -0.275 OA
ATOM     24  H   UNL     1       0.407  -4.972  -0.545  0.00  0.00    +0.149 HD
BRANCH  21  25
ATOM     25  C   UNL     1      -0.880  -4.075   0.885  0.00  0.00    +0.087 C 
BRANCH  25  26
ATOM     26  C   UNL     1      -0.315  -4.961   1.965  0.00  0.00    -0.029 A 
ATOM     27  C   UNL     1       0.232  -6.188   1.637  0.00  0.00    +0.005 A 
ATOM     28  C   UNL     1       0.751  -7.000   2.628  0.00  0.00    +0.000 A 
ATOM     29  C   UNL     1       0.723  -6.586   3.947  0.00  0.00    +0.000 A 
ATOM     30  C   UNL     1       0.177  -5.359   4.274  0.00  0.00    +0.000 A 
ATOM     31  C   UNL     1      -0.338  -4.545   3.283  0.00  0.00    +0.005 A 
ENDBRANCH  25  26
BRANCH  25  32
ATOM     32  C   UNL     1      -2.286  -4.554   0.517  0.00  0.00    -0.052 C 
BRANCH  32  34
ATOM     33  C   UNL     1      -4.101  -4.265  -1.025  0.00  0.00    -0.097 C 
ATOM     34  N   UNL     1      -2.830  -3.702  -0.549  0.00  0.00    +0.377 N 
ATOM     35  C   UNL     1      -3.059  -2.349  -0.025  0.00  0.00    -0.097 C 
ATOM     36  H   UNL     1      -2.174  -3.660  -1.314  0.00  0.00    -0.083 HD
ENDBRANCH  32  34
ENDBRANCH  25  32
ENDBRANCH  21  25
ENDBRANCH   1  22
TORSDOF 6
