REMARK  Name = ZINC61327151
REMARK  2 active torsions:
REMARK  status: ('A' for Active; 'I' for Inactive)
REMARK    1  A    between atoms: C_3  and  N_19
REMARK    2  A    between atoms: C_6  and  C_7
REMARK                            x       y       z     vdW  Elec       q    Type
REMARK                         _______ _______ _______ _____ _____    ______ ____
ROOT
ATOM      1  C   UNL     1      -1.267  -0.762   0.011  0.00  0.00    +0.109 A 
ATOM      2  N   UNL     1      -2.514  -0.310   0.019  0.00  0.00    -0.239 NA
ATOM      3  C   UNL     1      -3.551  -1.127   0.031  0.00  0.00    +0.083 A 
ATOM      4  C   UNL     1      -3.299  -2.484   0.007  0.00  0.00    +0.018 A 
ATOM      5  S   UNL     1      -1.528  -2.533   0.004  0.00  0.00    -0.072 S 
ATOM      6  C   UNL     1      -4.298  -3.586  -0.035  0.00  0.00    +0.050 C 
ATOM      7  C   UNL     1      -5.604  -3.157   0.649  0.00  0.00    +0.048 C 
ATOM      8  C   UNL     1      -5.913  -1.732   0.338  0.00  0.00    -0.001 A 
ATOM      9  C   UNL     1      -5.010  -0.729   0.064  0.00  0.00    +0.011 A 
ATOM     10  C   UNL     1      -5.524   0.544  -0.159  0.00  0.00    +0.018 A 
ATOM     11  C   UNL     1      -6.864   0.736  -0.126  0.00  0.00    +0.046 A 
ATOM     12  S   UNL     1      -7.475  -0.905   0.233  0.00  0.00    -0.101 S 
ENDROOT
BRANCH   1  18
ATOM     13  C   UNL     1      -0.017   1.392   0.010  0.00  0.00    +0.012 A 
ATOM     14  C   UNL     1       1.168   2.096   0.002  0.00  0.00    +0.023 A 
ATOM     15  C   UNL     1       2.381   1.417  -0.013  0.00  0.00    +0.025 A 
ATOM     16  C   UNL     1       2.403   0.026  -0.021  0.00  0.00    +0.023 A 
ATOM     17  C   UNL     1       1.222  -0.683  -0.014  0.00  0.00    +0.012 A 
ATOM     18  C   UNL     1       0.002  -0.004   0.002  0.00  0.00    +0.007 A 
BRANCH  15  19
ATOM     19  N   UNL     1       3.579   2.132  -0.021  0.00  0.00    -0.358 N 
ATOM     20  H   UNL     1       3.565   3.102  -0.015  0.00  0.00    +0.142 HD
ATOM     21  H   UNL     1       4.426   1.660  -0.031  0.00  0.00    +0.142 HD
ENDBRANCH  15  19
ENDBRANCH   1  18
TORSDOF 2
