REMARK  Name = ZINC59264047
REMARK  10 active torsions:
REMARK  status: ('A' for Active; 'I' for Inactive)
REMARK    1  A    between atoms: C_1  and  C_2
REMARK    2  A    between atoms: C_5  and  N_9
REMARK    3  A    between atoms: C_6  and  C_8
REMARK    4  A    between atoms: C_10  and  C_12
REMARK    5  A    between atoms: C_12  and  C_13
REMARK    6  A    between atoms: C_13  and  S_14
REMARK    7  A    between atoms: S_14  and  C_15
REMARK    8  A    between atoms: C_18  and  C_21
REMARK    9  A    between atoms: N_19  and  N_20
REMARK   10  A    between atoms: C_26  and  O_27
REMARK                            x       y       z     vdW  Elec       q    Type
REMARK                         _______ _______ _______ _____ _____    ______ ____
ROOT
ATOM      1  C   UNL     1      -0.468  -9.090  -4.332  0.00  0.00    +0.209 A 
ATOM      2  N   UNL     1      -0.437  -8.241  -5.334  0.00  0.00    -0.121 NA
ATOM      3  N   UNL     1      -0.529  -8.871  -6.450  0.00  0.00    -0.127 NA
ATOM      4  C   UNL     1      -0.625 -10.162  -6.230  0.00  0.00    +0.185 A 
ATOM      5  N   UNL     1      -0.583 -10.342  -4.867  0.00  0.00    -0.224 N 
ENDROOT
BRANCH   4   6
ATOM      6  C   UNL     1      -0.749 -11.221  -7.253  0.00  0.00    +0.062 A 
ATOM      7  C   UNL     1      -1.741 -12.195  -7.137  0.00  0.00    +0.015 A 
ATOM      8  C   UNL     1      -1.852 -13.181  -8.095  0.00  0.00    +0.001 A 
ATOM      9  C   UNL     1      -0.982 -13.209  -9.172  0.00  0.00    +0.004 A 
ATOM     10  C   UNL     1       0.005 -12.249  -9.297  0.00  0.00    +0.046 A 
ATOM     11  C   UNL     1       0.125 -11.249  -8.347  0.00  0.00    +0.128 A 
BRANCH  11  12
ATOM     12  O   UNL     1       1.091 -10.302  -8.472  0.00  0.00    -0.506 OA
ATOM     13  H   UNL     1       1.929 -10.536  -8.049  0.00  0.00    +0.292 HD
ENDBRANCH  11  12
ENDBRANCH   4   6
BRANCH   5  14
ATOM     14  N   UNL     1      -0.647 -11.526  -4.189  0.00  0.00    -0.295 N 
ATOM     15  H   UNL     1      -1.594 -11.729  -3.904  0.00  0.00    +0.163 HD
ATOM     16  H   UNL     1      -0.267 -12.280  -4.741  0.00  0.00    +0.163 HD
ENDBRANCH   5  14
BRANCH   1  17
ATOM     17  S   UNL     1      -0.372  -8.689  -2.619  0.00  0.00    -0.084 S 
BRANCH  17  18
ATOM     18  C   UNL     1      -0.234  -6.881  -2.599  0.00  0.00    +0.086 C 
BRANCH  18  19
ATOM     19  C   UNL     1      -0.142  -6.393  -1.151  0.00  0.00    +0.107 C 
BRANCH  19  21
ATOM     20  N   UNL     1       0.067  -4.235   0.040  0.00  0.00    -0.285 N 
ATOM     21  C   UNL     1      -0.028  -4.890  -1.134  0.00  0.00    +0.218 C 
ATOM     22  O   UNL     1      -0.021  -4.271  -2.177  0.00  0.00    -0.275 OA
ATOM     23  H   UNL     1       0.122  -4.733   0.870  0.00  0.00    +0.155 HD
BRANCH  20  28
ATOM     24  C   UNL     1       0.143   1.437   0.123  0.00  0.00    +0.044 C 
ATOM     25  C   UNL     1       0.123  -0.070   0.101  0.00  0.00    -0.050 A 
ATOM     26  C   UNL     1       0.719  -0.752  -0.944  0.00  0.00    +0.005 A 
ATOM     27  C   UNL     1       0.702  -2.133  -0.967  0.00  0.00    +0.024 A 
ATOM     28  C   UNL     1       0.086  -2.836   0.060  0.00  0.00    +0.036 A 
ATOM     29  C   UNL     1      -0.511  -2.147   1.108  0.00  0.00    -0.029 A 
ATOM     30  C   UNL     1      -0.486  -0.766   1.128  0.00  0.00    +0.008 A 
ATOM     31  C   UNL     1      -1.180  -2.906   2.225  0.00  0.00    +0.045 C 
ENDBRANCH  20  28
ENDBRANCH  19  21
ENDBRANCH  18  19
ENDBRANCH  17  18
ENDBRANCH   1  17
TORSDOF 8
