REMARK  Name = ZINC39850307
REMARK  11 active torsions:
REMARK  status: ('A' for Active; 'I' for Inactive)
REMARK    1  A    between atoms: C_1  and  O_2
REMARK    2  A    between atoms: O_2  and  C_3
REMARK    3  A    between atoms: C_5  and  C_13
REMARK    4  A    between atoms: C_7  and  O_11
REMARK    5  A    between atoms: C_8  and  O_9
REMARK    6  A    between atoms: O_9  and  C_10
REMARK    7  A    between atoms: O_11  and  C_12
REMARK    8  A    between atoms: C_15  and  C_27
REMARK    9  A    between atoms: C_17  and  C_22
REMARK   10  A    between atoms: C_17  and  O_26
REMARK   11  A    between atoms: C_27  and  C_29
REMARK                            x       y       z     vdW  Elec       q    Type
REMARK                         _______ _______ _______ _____ _____    ______ ____
ROOT
ATOM      1  C   UNL     1       2.721   0.549   3.828  0.00  0.00    +0.120 C 
ATOM      2  C   UNL     1       4.228   0.700   4.057  0.00  0.00    +0.144 C 
ATOM      3  C   UNL     1       4.457   1.190   5.491  0.00  0.00    +0.243 C 
ATOM      4  N   UNL     1       3.808   0.266   6.423  0.00  0.00    -0.264 N 
ATOM      5  C   UNL     1       2.719  -0.432   6.069  0.00  0.00    +0.302 C 
ATOM      6  O   UNL     1       2.212  -1.177   6.885  0.00  0.00    -0.253 OA
ATOM      7  N   UNL     1       2.164  -0.339   4.851  0.00  0.00    -0.292 N 
ATOM      8  H   UNL     1       4.173   0.157   7.316  0.00  0.00    +0.153 HD
ATOM      9  H   UNL     1       1.381  -0.871   4.642  0.00  0.00    +0.151 HD
ENDROOT
BRANCH   1  12
ATOM     10  C   UNL     1       2.018   0.255   0.126  0.00  0.00    +0.165 A 
ATOM     11  C   UNL     1       2.243   0.793   1.384  0.00  0.00    +0.055 A 
ATOM     12  C   UNL     1       2.475  -0.040   2.463  0.00  0.00    -0.019 A 
ATOM     13  C   UNL     1       2.484  -1.412   2.292  0.00  0.00    +0.055 A 
ATOM     14  C   UNL     1       2.259  -1.957   1.037  0.00  0.00    +0.165 A 
ATOM     15  C   UNL     1       2.019  -1.123  -0.049  0.00  0.00    +0.204 A 
BRANCH  10  17
ATOM     16  C   UNL     1       1.802   2.482  -0.681  0.00  0.00    +0.277 C 
ATOM     17  O   UNL     1       1.789   1.076  -0.934  0.00  0.00    -0.491 OA
ENDBRANCH  10  17
BRANCH  15  18
ATOM     18  O   UNL     1       1.793  -1.655  -1.281  0.00  0.00    -0.488 OA
ATOM     19  C   UNL     1       2.934  -1.876  -2.112  0.00  0.00    +0.277 C 
ENDBRANCH  15  18
BRANCH  14  20
ATOM     20  O   UNL     1       2.268  -3.307   0.870  0.00  0.00    -0.491 OA
ATOM     21  C   UNL     1       2.515  -4.103   2.031  0.00  0.00    +0.277 C 
ENDBRANCH  14  20
ENDBRANCH   1  12
BRANCH   3  22
ATOM     22  C   UNL     1       5.958   1.238   5.782  0.00  0.00    +0.436 C 
ATOM     23  F   UNL     1       6.598   2.009   4.805  0.00  0.00    -0.166 F 
ATOM     24  F   UNL     1       6.172   1.810   7.040  0.00  0.00    -0.166 F 
ATOM     25  F   UNL     1       6.479  -0.061   5.766  0.00  0.00    -0.166 F 
ENDBRANCH   3  22
BRANCH   3  26
ATOM     26  O   UNL     1       3.897   2.495   5.645  0.00  0.00    -0.364 OA
ATOM     27  H   UNL     1       4.006   2.868   6.530  0.00  0.00    +0.212 HD
ENDBRANCH   3  26
BRANCH   2  28
ATOM     28  C   UNL     1       4.906  -0.632   3.859  0.00  0.00    +0.173 C 
ATOM     29  O   UNL     1       4.632  -1.565   4.583  0.00  0.00    -0.292 OA
BRANCH  28  30
ATOM     30  C   UNL     1       5.900  -0.799   2.788  0.00  0.00    +0.018 A 
ATOM     31  C   UNL     1       6.135   0.238   1.879  0.00  0.00    +0.013 A 
ATOM     32  C   UNL     1       7.068   0.075   0.879  0.00  0.00    +0.020 A 
ATOM     33  C   UNL     1       7.773  -1.114   0.771  0.00  0.00    +0.041 A 
ATOM     34  C   UNL     1       7.546  -2.145   1.668  0.00  0.00    +0.020 A 
ATOM     35  C   UNL     1       6.620  -1.994   2.677  0.00  0.00    +0.013 A 
ATOM     36 CL   UNL     1       8.946  -1.311  -0.493  0.00  0.00    -0.084 Cl
ENDBRANCH  28  30
ENDBRANCH   2  28
TORSDOF 8
