REMARK  Name = ZINC12574678
REMARK  8 active torsions:
REMARK  status: ('A' for Active; 'I' for Inactive)
REMARK    1  A    between atoms: C_1  and  O_2
REMARK    2  A    between atoms: O_2  and  C_3
REMARK    3  A    between atoms: C_5  and  C_12
REMARK    4  A    between atoms: C_7  and  O_10
REMARK    5  A    between atoms: C_8  and  O_9
REMARK    6  A    between atoms: O_10  and  C_11
REMARK    7  A    between atoms: C_12  and  N_52
REMARK    8  A    between atoms: C_13  and  N_52
REMARK                            x       y       z     vdW  Elec       q    Type
REMARK                         _______ _______ _______ _____ _____    ______ ____
ROOT
ATOM      1  N   UNL     1       0.845  -1.962  -1.206  0.00  0.00    +0.385 N 
ATOM      2  H   UNL     1       1.643  -2.253  -0.629  0.00  0.00    -0.085 HD
ATOM      3  H   UNL     1      -0.022  -2.338  -0.805  0.00  0.00    -0.085 HD
ENDROOT
BRANCH   1   4
ATOM      4  C   UNL     1       0.771  -0.489  -1.230  0.00  0.00    -0.054 C 
ATOM      5  C   UNL     1       0.002  -0.004   0.002  0.00  0.00    -0.013 C 
ATOM      6  C   UNL     1      -0.019   1.527   0.010  0.00  0.00    +0.017 C 
ATOM      7  C   UNL     1       1.419   2.052  -0.001  0.00  0.00    +0.107 C 
ATOM      8  N   UNL     1       2.112   1.560  -1.198  0.00  0.00    -0.311 N 
ATOM      9  C   UNL     1       2.186   0.094  -1.205  0.00  0.00    +0.091 C 
ATOM     10  C   UNL     1       3.369   2.119  -1.307  0.00  0.00    +0.162 A 
ATOM     11  N   UNL     1       3.706   3.389  -1.336  0.00  0.00    -0.225 NA
ATOM     12  C   UNL     1       4.990   3.796  -1.446  0.00  0.00    +0.080 A 
ATOM     13  C   UNL     1       5.486   5.119  -1.488  0.00  0.00    +0.029 A 
ATOM     14  C   UNL     1       6.830   5.360  -1.603  0.00  0.00    +0.002 A 
ATOM     15  C   UNL     1       7.748   4.323  -1.682  0.00  0.00    +0.001 A 
ATOM     16  C   UNL     1       7.298   3.016  -1.644  0.00  0.00    +0.017 A 
ATOM     17  C   UNL     1       5.954   2.765  -1.529  0.00  0.00    +0.041 A 
ATOM     18  S   UNL     1       4.952   1.301  -1.436  0.00  0.00    -0.052 S 
ENDBRANCH   1   4
BRANCH   1  19
ATOM     19  C   UNL     1       1.016  -2.489  -2.574  0.00  0.00    -0.046 C 
BRANCH  19  22
ATOM     20  C   UNL     1      -0.008  -6.127  -2.568  0.00  0.00    +0.165 A 
ATOM     21  C   UNL     1      -0.070  -4.742  -2.619  0.00  0.00    +0.051 A 
ATOM     22  C   UNL     1       1.087  -3.993  -2.519  0.00  0.00    -0.057 A 
ATOM     23  C   UNL     1       2.311  -4.620  -2.374  0.00  0.00    +0.051 A 
ATOM     24  C   UNL     1       2.381  -6.004  -2.317  0.00  0.00    +0.165 A 
ATOM     25  C   UNL     1       1.219  -6.761  -2.417  0.00  0.00    +0.201 A 
BRANCH  20  27
ATOM     26  C   UNL     1      -2.373  -6.145  -2.819  0.00  0.00    +0.277 C 
ATOM     27  O   UNL     1      -1.147  -6.863  -2.666  0.00  0.00    -0.491 OA
ENDBRANCH  20  27
BRANCH  25  28
ATOM     28  O   UNL     1       1.284  -8.119  -2.366  0.00  0.00    -0.501 OA
ATOM     29  H   UNL     1       1.396  -8.540  -3.229  0.00  0.00    +0.292 HD
ENDBRANCH  25  28
BRANCH  24  30
ATOM     30  O   UNL     1       3.584  -6.619  -2.168  0.00  0.00    -0.491 OA
ATOM     31  C   UNL     1       4.736  -5.778  -2.072  0.00  0.00    +0.277 C 
ENDBRANCH  24  30
ENDBRANCH  19  22
ENDBRANCH   1  19
TORSDOF 6
