REMARK  Name = ZINC39464489
REMARK  5 active torsions:
REMARK  status: ('A' for Active; 'I' for Inactive)
REMARK    1  A    between atoms: C_1  and  C_2
REMARK    2  A    between atoms: C_2  and  O_3
REMARK    3  A    between atoms: O_3  and  C_4
REMARK    4  A    between atoms: P_15  and  C_21
REMARK    5  A    between atoms: C_26  and  O_27
REMARK                            x       y       z     vdW  Elec       q    Type
REMARK                         _______ _______ _______ _____ _____    ______ ____
ROOT
ATOM      1  C   UNL     1       0.802  -1.824   1.306  0.00  0.00    +0.134 A 
ATOM      2  C   UNL     1       0.261  -2.674   0.354  0.00  0.00    +0.050 A 
ATOM      3  C   UNL     1       0.371  -4.047   0.500  0.00  0.00    -0.038 A 
ATOM      4  C   UNL     1       1.021  -4.575   1.596  0.00  0.00    -0.022 A 
ATOM      5  C   UNL     1       1.562  -3.724   2.550  0.00  0.00    +0.023 A 
ATOM      6  C   UNL     1       1.460  -2.356   2.406  0.00  0.00    +0.055 A 
ATOM      7  I   UNL     1       2.290  -1.083   3.849  0.00  0.00    -0.040 I 
ATOM      8  C   UNL     1       1.168  -6.060   1.800  0.00  0.00    +0.129 C 
ATOM      9  C   UNL     1       0.903  -6.390   3.272  0.00  0.00    +0.194 C 
ATOM     10  O   UNL     1       1.161  -7.793   3.483  0.00  0.00    -0.311 OA
ATOM     11  P   UNL     1       0.476  -8.864   2.469  0.00  0.00    +0.318 P 
ATOM     12  O   UNL     1       1.246 -10.128   2.464  0.00  0.00    -0.266 OA
ATOM     13  N   UNL     1       0.528  -8.158   0.975  0.00  0.00    -0.175 NA
ATOM     14  N   UNL     1       0.252  -6.806   0.937  0.00  0.00    -0.225 NA
ATOM     15  C   UNL     1       0.339  -6.335  -0.453  0.00  0.00    +0.108 C 
ATOM     16  C   UNL     1      -0.235  -4.934  -0.558  0.00  0.00    +0.052 C 
ATOM     17  H   UNL     1       0.731  -8.669   0.176  0.00  0.00    +0.151 HD
ENDROOT
BRANCH  11  18
ATOM     18  C   UNL     1      -1.242  -9.180   2.958  0.00  0.00    +0.094 A 
ATOM     19  C   UNL     1      -2.262  -8.406   2.438  0.00  0.00    +0.018 A 
ATOM     20  C   UNL     1      -3.571  -8.646   2.811  0.00  0.00    +0.001 A 
ATOM     21  C   UNL     1      -3.864  -9.661   3.704  0.00  0.00    +0.004 A 
ATOM     22  C   UNL     1      -2.848 -10.437   4.226  0.00  0.00    +0.046 A 
ATOM     23  C   UNL     1      -1.533 -10.202   3.850  0.00  0.00    +0.131 A 
BRANCH  23  24
ATOM     24  O   UNL     1      -0.532 -10.968   4.358  0.00  0.00    -0.506 OA
ATOM     25  H   UNL     1      -0.154 -10.626   5.179  0.00  0.00    +0.292 HD
ENDBRANCH  23  24
ENDBRANCH  11  18
BRANCH   1  26
ATOM     26  O   UNL     1       0.693  -0.477   1.160  0.00  0.00    -0.491 OA
BRANCH  26  28
ATOM     27  C   UNL     1      -0.019   1.526   0.010  0.00  0.00    +0.048 C 
ATOM     28  C   UNL     1       0.002  -0.004   0.002  0.00  0.00    +0.226 C 
ENDBRANCH  26  28
ENDBRANCH   1  26
TORSDOF 4
