REMARK  Name = ZINC49490258
REMARK  11 active torsions:
REMARK  status: ('A' for Active; 'I' for Inactive)
REMARK    1  A    between atoms: C_1  and  C_2
REMARK    2  A    between atoms: C_2  and  C_3
REMARK    3  A    between atoms: C_2  and  C_4
REMARK    4  A    between atoms: C_13  and  N_16
REMARK    5  A    between atoms: C_17  and  C_19
REMARK    6  A    between atoms: N_21  and  C_22
REMARK    7  A    between atoms: C_22  and  C_23
REMARK    8  A    between atoms: C_23  and  C_25
REMARK    9  A    between atoms: C_23  and  N_32
REMARK   10  A    between atoms: N_32  and  C_33
REMARK   11  A    between atoms: N_32  and  C_34
REMARK                            x       y       z     vdW  Elec       q    Type
REMARK                         _______ _______ _______ _____ _____    ______ ____
ROOT
ATOM      1  N   UNL     1       3.957  -3.106   3.700  0.00  0.00    -0.278 N 
ATOM      2  C   UNL     1       4.841  -3.433   4.664  0.00  0.00    +0.303 C 
ATOM      3  O   UNL     1       4.644  -3.089   5.811  0.00  0.00    -0.265 OA
ATOM      4  H   UNL     1       4.075  -3.442   2.799  0.00  0.00    +0.155 HD
ENDROOT
BRANCH   1  14
ATOM      5  C   UNL     1      -0.677  -2.584   1.850  0.00  0.00    +0.222 C 
ATOM      6  O   UNL     1       0.319  -3.158   1.464  0.00  0.00    -0.275 OA
ATOM      7  N   UNL     1      -0.627  -1.818   2.958  0.00  0.00    -0.271 N 
ATOM      8  C   UNL     1      -1.841  -1.169   3.474  0.00  0.00    +0.114 C 
ATOM      9  C   UNL     1      -1.481   0.277   3.836  0.00  0.00    +0.024 C 
ATOM     10  C   UNL     1      -0.445   0.262   4.960  0.00  0.00    +0.038 C 
ATOM     11  C   UNL     1       0.709  -0.637   4.601  0.00  0.00    -0.026 A 
ATOM     12  C   UNL     1       0.583  -1.631   3.641  0.00  0.00    +0.041 A 
ATOM     13  C   UNL     1       1.662  -2.452   3.339  0.00  0.00    +0.047 A 
ATOM     14  C   UNL     1       2.869  -2.281   4.001  0.00  0.00    +0.036 A 
ATOM     15  C   UNL     1       2.993  -1.288   4.965  0.00  0.00    +0.024 A 
ATOM     16  C   UNL     1       1.919  -0.465   5.255  0.00  0.00    +0.007 A 
BRANCH   5  18
ATOM     17  C   UNL     1      -2.202  -1.479   0.237  0.00  0.00    +0.017 C 
ATOM     18  C   UNL     1      -1.972  -2.727   1.091  0.00  0.00    +0.069 C 
ATOM     19  C   UNL     1      -1.899  -3.958   0.186  0.00  0.00    +0.017 C 
ENDBRANCH   5  18
ENDBRANCH   1  14
BRANCH   2  20
ATOM     20  C   UNL     1       6.063  -4.220   4.319  0.00  0.00    +0.299 C 
ATOM     21  O   UNL     1       6.260  -4.564   3.172  0.00  0.00    -0.265 OA
ATOM     22  N   UNL     1       6.947  -4.547   5.282  0.00  0.00    -0.309 N 
ATOM     23  H   UNL     1       6.790  -4.272   6.199  0.00  0.00    +0.149 HD
BRANCH  22  24
ATOM     24  C   UNL     1       8.146  -5.318   4.945  0.00  0.00    +0.094 C 
BRANCH  24  25
ATOM     25  C   UNL     1       8.912  -5.657   6.225  0.00  0.00    -0.020 C 
BRANCH  25  26
ATOM     26  C   UNL     1       8.097  -6.609   7.062  0.00  0.00    -0.041 A 
ATOM     27  C   UNL     1       7.280  -6.122   8.066  0.00  0.00    +0.003 A 
ATOM     28  C   UNL     1       6.533  -6.995   8.833  0.00  0.00    +0.000 A 
ATOM     29  C   UNL     1       6.601  -8.356   8.597  0.00  0.00    +0.001 A 
ATOM     30  C   UNL     1       7.417  -8.844   7.594  0.00  0.00    +0.020 A 
ATOM     31  C   UNL     1       8.161  -7.969   6.822  0.00  0.00    +0.043 A 
ATOM     32 CL   UNL     1       9.181  -8.581   5.557  0.00  0.00    -0.083 Cl
ENDBRANCH  25  26
BRANCH  25  33
ATOM     33  N   UNL     1       9.161  -4.425   6.987  0.00  0.00    +0.382 N 
ATOM     34  C   UNL     1       9.995  -4.733   8.156  0.00  0.00    -0.096 C 
ATOM     35  C   UNL     1       9.855  -3.453   6.132  0.00  0.00    -0.096 C 
ATOM     36  H   UNL     1       8.282  -4.036   7.293  0.00  0.00    -0.082 HD
ENDBRANCH  25  33
ENDBRANCH  24  25
ENDBRANCH  22  24
ENDBRANCH   2  20
TORSDOF 7
