REMARK  Name = ZINC35343662
REMARK  3 active torsions:
REMARK  status: ('A' for Active; 'I' for Inactive)
REMARK    1  A    between atoms: C_3  and  N_12
REMARK    2  A    between atoms: C_8  and  N_11
REMARK    3  A    between atoms: N_12  and  C_13
REMARK                            x       y       z     vdW  Elec       q    Type
REMARK                         _______ _______ _______ _____ _____    ______ ____
ROOT
ATOM      1  C   UNL     1       0.007   1.387  -0.411  0.00  0.00    +0.013 A 
ATOM      2  C   UNL     1       1.194   2.053  -0.331  0.00  0.00    +0.044 A 
ATOM      3  C   UNL     1       2.379   1.341  -0.101  0.00  0.00    +0.124 A 
ATOM      4  N   UNL     1       2.381   0.032   0.041  0.00  0.00    -0.232 NA
ATOM      5  C   UNL     1       1.247  -0.676  -0.029  0.00  0.00    +0.073 A 
ATOM      6  C   UNL     1       0.016  -0.014  -0.258  0.00  0.00    +0.002 A 
ATOM      7  C   UNL     1      -1.171  -0.760  -0.331  0.00  0.00    +0.032 A 
ATOM      8  C   UNL     1      -1.122  -2.128  -0.177  0.00  0.00    +0.025 A 
ATOM      9  C   UNL     1       0.098  -2.776   0.051  0.00  0.00    +0.025 A 
ATOM     10  C   UNL     1       1.260  -2.073   0.124  0.00  0.00    +0.030 A 
ENDROOT
BRANCH   8  11
ATOM     11  N   UNL     1      -2.301  -2.876  -0.248  0.00  0.00    -0.358 N 
ATOM     12  H   UNL     1      -3.148  -2.431  -0.405  0.00  0.00    +0.142 HD
ATOM     13  H   UNL     1      -2.271  -3.840  -0.140  0.00  0.00    +0.142 HD
ENDBRANCH   8  11
BRANCH   3  14
ATOM     14  N   UNL     1       3.580   2.033  -0.021  0.00  0.00    -0.298 N 
ATOM     15  H   UNL     1       3.583   3.003  -0.028  0.00  0.00    +0.154 HD
BRANCH  14  16
ATOM     16  C   UNL     1       4.787   1.332   0.069  0.00  0.00    +0.051 A 
ATOM     17  C   UNL     1       4.914   0.085  -0.530  0.00  0.00    +0.026 A 
ATOM     18  C   UNL     1       6.106  -0.606  -0.439  0.00  0.00    +0.017 A 
ATOM     19  C   UNL     1       7.175  -0.058   0.248  0.00  0.00    +0.019 A 
ATOM     20  C   UNL     1       7.052   1.184   0.847  0.00  0.00    +0.037 A 
ATOM     21  C   UNL     1       5.864   1.883   0.754  0.00  0.00    +0.063 A 
ATOM     22 CL   UNL     1       5.713   3.444   1.498  0.00  0.00    -0.082 Cl
ATOM     23 BR   UNL     1       8.805  -1.008   0.370  0.00  0.00    -0.050 Br
ENDBRANCH  14  16
ENDBRANCH   3  14
TORSDOF 3
