REMARK  Name = ZINC09505503
REMARK  11 active torsions:
REMARK  status: ('A' for Active; 'I' for Inactive)
REMARK    1  A    between atoms: C_1  and  C_2
REMARK    2  A    between atoms: C_2  and  N_63
REMARK    3  A    between atoms: C_3  and  C_4
REMARK    4  A    between atoms: C_3  and  N_63
REMARK    5  A    between atoms: C_5  and  C_6
REMARK    6  A    between atoms: C_5  and  N_63
REMARK    7  A    between atoms: C_6  and  N_7
REMARK    8  A    between atoms: C_11  and  C_17
REMARK    9  A    between atoms: C_18  and  C_20
REMARK   10  A    between atoms: N_25  and  S_26
REMARK   11  A    between atoms: S_26  and  C_29
REMARK                            x       y       z     vdW  Elec       q    Type
REMARK                         _______ _______ _______ _____ _____    ______ ____
ROOT
ATOM      1  N   UNL     1       3.807   5.035   0.836  0.00  0.00    -0.251 N 
ATOM      2  C   UNL     1       3.627   3.663   0.767  0.00  0.00    +0.168 A 
ATOM      3  N   UNL     1       2.521   2.987   0.564  0.00  0.00    -0.224 NA
ATOM      4  C   UNL     1       2.492   1.638   0.521  0.00  0.00    +0.083 A 
ATOM      5  C   UNL     1       1.376   0.794   0.311  0.00  0.00    -0.024 A 
ATOM      6  C   UNL     1       1.521  -0.568   0.297  0.00  0.00    +0.005 A 
ATOM      7  C   UNL     1       2.759  -1.167   0.486  0.00  0.00    +0.001 A 
ATOM      8  C   UNL     1       3.871  -0.373   0.694  0.00  0.00    +0.017 A 
ATOM      9  C   UNL     1       3.735   0.993   0.710  0.00  0.00    +0.041 A 
ATOM     10  S   UNL     1       4.843   2.364   0.933  0.00  0.00    -0.052 S 
ATOM     11  C   UNL     1       0.014   1.401   0.095  0.00  0.00    +0.046 C 
ATOM     12  C   UNL     1       2.753   5.862   0.684  0.00  0.00    +0.240 C 
ATOM     13  O   UNL     1       1.635   5.405   0.573  0.00  0.00    -0.273 OA
ENDROOT
BRANCH  12  14
ATOM     14  C   UNL     1       2.964   7.354   0.651  0.00  0.00    +0.166 C 
ATOM     15  C   UNL     1       3.277   7.808  -0.791  0.00  0.00    +0.031 C 
ATOM     16  C   UNL     1       2.520   9.157  -0.902  0.00  0.00    +0.019 C 
ATOM     17  C   UNL     1       1.257   8.877  -0.050  0.00  0.00    +0.110 C 
ATOM     18  N   UNL     1       1.734   8.042   1.071  0.00  0.00    -0.164 NA
BRANCH  18  19
ATOM     19  S   UNL     1       1.008   7.901   2.553  0.00  0.00    +0.068 S 
ATOM     20  O   UNL     1      -0.360   8.238   2.368  0.00  0.00    -0.152 OA
ATOM     21  O   UNL     1       1.419   6.651   3.089  0.00  0.00    -0.152 OA
BRANCH  19  22
ATOM     22  C   UNL     1       1.697   9.146   3.591  0.00  0.00    +0.143 A 
ATOM     23  C   UNL     1       1.282  10.422   3.785  0.00  0.00    +0.036 A 
ATOM     24  C   UNL     1       1.983  11.229   4.661  0.00  0.00    +0.010 A 
ATOM     25  C   UNL     1       3.072  10.725   5.292  0.00  0.00    +0.047 A 
ATOM     26  S   UNL     1       3.128   9.058   4.655  0.00  0.00    -0.077 S 
ENDBRANCH  19  22
ENDBRANCH  18  19
ENDBRANCH  12  14
BRANCH   1  27
ATOM     27  C   UNL     1       5.143   5.588   1.074  0.00  0.00    +0.097 C 
BRANCH  27  28
ATOM     28  C   UNL     1       5.887   5.715  -0.257  0.00  0.00    -0.059 C 
BRANCH  28  29
ATOM     29  N   UNL     1       7.282   6.122   0.014  0.00  0.00    +0.380 N 
ATOM     30  H   UNL     1       7.686   5.484   0.710  0.00  0.00    -0.082 HD
BRANCH  29  32
ATOM     31  C   UNL     1       8.425   4.579  -1.498  0.00  0.00    -0.017 C 
ATOM     32  C   UNL     1       8.080   6.044  -1.228  0.00  0.00    -0.082 C 
ENDBRANCH  29  32
BRANCH  29  33
ATOM     33  C   UNL     1       7.312   7.499   0.549  0.00  0.00    -0.082 C 
ATOM     34  C   UNL     1       8.689   7.758   1.163  0.00  0.00    -0.017 C 
ENDBRANCH  29  33
ENDBRANCH  28  29
ENDBRANCH  27  28
ENDBRANCH   1  27
TORSDOF 8
