REMARK  Name = ZINC25572667
REMARK  17 active torsions:
REMARK  status: ('A' for Active; 'I' for Inactive)
REMARK    1  A    between atoms: C_1  and  C_2
REMARK    2  A    between atoms: C_2  and  C_4
REMARK    3  A    between atoms: C_2  and  N_20
REMARK    4  A    between atoms: C_9  and  O_10
REMARK    5  A    between atoms: O_10  and  C_11
REMARK    6  A    between atoms: C_11  and  C_12
REMARK    7  A    between atoms: C_12  and  C_14
REMARK    8  A    between atoms: C_12  and  O_19
REMARK    9  A    between atoms: C_14  and  N_15
REMARK   10  A    between atoms: N_15  and  C_16
REMARK   11  A    between atoms: C_16  and  C_17
REMARK   12  A    between atoms: C_16  and  C_18
REMARK   13  A    between atoms: N_20  and  C_21
REMARK   14  A    between atoms: C_21  and  C_22
REMARK   15  A    between atoms: C_22  and  C_23
REMARK   16  A    between atoms: C_23  and  C_24
REMARK   17  A    between atoms: C_23  and  C_30
REMARK                            x       y       z     vdW  Elec       q    Type
REMARK                         _______ _______ _______ _____ _____    ______ ____
ROOT
ATOM      1  C   UNL     1      -0.441   0.056  -0.278  0.00  0.00    -0.009 C 
ATOM      2  C   UNL     1      -0.867  -1.338   0.185  0.00  0.00    -0.040 C 
ENDROOT
BRANCH   2   3
ATOM      3  C   UNL     1      -0.584  -2.339  -0.905  0.00  0.00    -0.020 A 
ATOM      4  C   UNL     1       0.544  -3.134  -0.837  0.00  0.00    +0.005 A 
ATOM      5  C   UNL     1       0.805  -4.052  -1.837  0.00  0.00    +0.000 A 
ATOM      6  C   UNL     1      -0.061  -4.177  -2.908  0.00  0.00    +0.004 A 
ATOM      7  C   UNL     1      -1.190  -3.384  -2.980  0.00  0.00    +0.046 A 
ATOM      8  C   UNL     1      -1.457  -2.466  -1.975  0.00  0.00    +0.122 A 
BRANCH   8   9
ATOM      9  O   UNL     1      -2.570  -1.688  -2.042  0.00  0.00    -0.489 OA
BRANCH   9  10
ATOM     10  C   UNL     1      -3.424  -1.873  -3.172  0.00  0.00    +0.258 C 
BRANCH  10  11
ATOM     11  C   UNL     1      -4.615  -0.918  -3.073  0.00  0.00    +0.135 C 
BRANCH  11  12
ATOM     12  O   UNL     1      -4.152   0.431  -3.166  0.00  0.00    -0.390 OA
ATOM     13  H   UNL     1      -3.692   0.633  -3.991  0.00  0.00    +0.210 HD
ENDBRANCH  11  12
BRANCH  11  14
ATOM     14  C   UNL     1      -5.592  -1.201  -4.216  0.00  0.00    -0.047 C 
BRANCH  14  15
ATOM     15  N   UNL     1      -6.736  -0.284  -4.121  0.00  0.00    +0.382 N 
ATOM     16  H   UNL     1      -7.203  -0.420  -3.237  0.00  0.00    -0.085 HD
ATOM     17  H   UNL     1      -6.409   0.668  -4.186  0.00  0.00    -0.085 HD
BRANCH  15  18
ATOM     18  C   UNL     1      -7.674  -0.556  -5.218  0.00  0.00    -0.078 C 
ATOM     19  C   UNL     1      -8.264  -1.958  -5.049  0.00  0.00    -0.014 C 
ATOM     20  C   UNL     1      -8.801   0.478  -5.194  0.00  0.00    -0.014 C 
ENDBRANCH  15  18
ENDBRANCH  14  15
ENDBRANCH  11  14
ENDBRANCH  10  11
ENDBRANCH   9  10
ENDBRANCH   8   9
ENDBRANCH   2   3
BRANCH   2  21
ATOM     21  N   UNL     1      -0.116  -1.703   1.393  0.00  0.00    +0.384 N 
ATOM     22  H   UNL     1      -0.336  -2.654   1.652  0.00  0.00    -0.085 HD
ATOM     23  H   UNL     1       0.874  -1.625   1.210  0.00  0.00    -0.085 HD
BRANCH  21  24
ATOM     24  C   UNL     1      -0.483  -0.799   2.491  0.00  0.00    -0.081 C 
BRANCH  24  25
ATOM     25  C   UNL     1       0.299  -1.180   3.749  0.00  0.00    -0.006 C 
BRANCH  25  26
ATOM     26  C   UNL     1      -0.084  -0.238   4.893  0.00  0.00    +0.047 C 
BRANCH  26  27
ATOM     27  C   UNL     1       0.593  -0.688   6.162  0.00  0.00    -0.040 A 
ATOM     28  C   UNL     1      -0.152  -0.892   7.308  0.00  0.00    +0.004 A 
ATOM     29  C   UNL     1       0.469  -1.304   8.473  0.00  0.00    +0.000 A 
ATOM     30  C   UNL     1       1.835  -1.514   8.490  0.00  0.00    +0.000 A 
ATOM     31  C   UNL     1       2.580  -1.311   7.344  0.00  0.00    +0.000 A 
ATOM     32  C   UNL     1       1.959  -0.902   6.179  0.00  0.00    +0.004 A 
ENDBRANCH  26  27
BRANCH  26  33
ATOM     33  C   UNL     1       0.357   1.163   4.558  0.00  0.00    -0.040 A 
ATOM     34  C   UNL     1       1.663   1.404   4.173  0.00  0.00    +0.004 A 
ATOM     35  C   UNL     1       2.067   2.690   3.866  0.00  0.00    +0.000 A 
ATOM     36  C   UNL     1       1.165   3.735   3.944  0.00  0.00    +0.000 A 
ATOM     37  C   UNL     1      -0.141   3.494   4.328  0.00  0.00    +0.000 A 
ATOM     38  C   UNL     1      -0.546   2.207   4.631  0.00  0.00    +0.004 A 
ENDBRANCH  26  33
ENDBRANCH  25  26
ENDBRANCH  24  25
ENDBRANCH  21  24
ENDBRANCH   2  21
TORSDOF 14
