REMARK  Name = ZINC45258347
REMARK  10 active torsions:
REMARK  status: ('A' for Active; 'I' for Inactive)
REMARK    1  A    between atoms: C_1  and  C_2
REMARK    2  A    between atoms: C_2  and  C_4
REMARK    3  A    between atoms: C_2  and  N_12
REMARK    4  A    between atoms: C_13  and  C_15
REMARK    5  A    between atoms: C_15  and  C_17
REMARK    6  A    between atoms: C_15  and  O_18
REMARK    7  A    between atoms: O_18  and  C_19
REMARK    8  A    between atoms: C_19  and  C_21
REMARK    9  A    between atoms: C_23  and  S_28
REMARK   10  A    between atoms: S_28  and  N_31
REMARK                            x       y       z     vdW  Elec       q    Type
REMARK                         _______ _______ _______ _____ _____    ______ ____
ROOT
ATOM      1  C   UNL     1       2.783  -1.099   2.395  0.00  0.00    +0.259 C 
ATOM      2  C   UNL     1       2.604  -0.100   3.539  0.00  0.00    +0.062 C 
ENDROOT
BRANCH   1   4
ATOM      3  N   UNL     1       0.711  -0.489   1.189  0.00  0.00    -0.306 N 
ATOM      4  C   UNL     1       2.054  -0.600   1.174  0.00  0.00    +0.254 C 
ATOM      5  O   UNL     1       2.676  -0.297   0.177  0.00  0.00    -0.272 OA
ATOM      6  H   UNL     1       0.213  -0.731   1.986  0.00  0.00    +0.149 HD
BRANCH   3   8
ATOM      7  C   UNL     1      -0.019   1.526   0.010  0.00  0.00    +0.033 C 
ATOM      8  C   UNL     1       0.002  -0.004   0.002  0.00  0.00    +0.102 C 
BRANCH   8   9
ATOM      9  C   UNL     1      -1.412  -0.526   0.013  0.00  0.00    -0.009 A 
ATOM     10  C   UNL     1      -2.014  -0.864   1.210  0.00  0.00    +0.008 A 
ATOM     11  C   UNL     1      -3.311  -1.342   1.221  0.00  0.00    +0.020 A 
ATOM     12  C   UNL     1      -4.007  -1.483   0.033  0.00  0.00    +0.042 A 
ATOM     13  C   UNL     1      -3.404  -1.144  -1.165  0.00  0.00    +0.040 A 
ATOM     14  C   UNL     1      -2.108  -0.661  -1.175  0.00  0.00    +0.047 A 
ATOM     15 CL   UNL     1      -1.353  -0.230  -2.678  0.00  0.00    -0.083 Cl
ATOM     16 CL   UNL     1      -5.635  -2.084   0.046  0.00  0.00    -0.083 Cl
ENDBRANCH   8   9
ENDBRANCH   3   8
ENDBRANCH   1   4
BRANCH   1  17
ATOM     17  O   UNL     1       4.173  -1.237   2.096  0.00  0.00    -0.449 OA
BRANCH  17  18
ATOM     18  C   UNL     1       4.850  -2.192   2.763  0.00  0.00    +0.341 C 
ATOM     19  O   UNL     1       4.276  -2.889   3.575  0.00  0.00    -0.245 OA
BRANCH  18  20
ATOM     20  C   UNL     1       6.290  -2.393   2.506  0.00  0.00    +0.079 A 
ATOM     21  C   UNL     1       6.955  -1.590   1.576  0.00  0.00    +0.045 A 
ATOM     22  C   UNL     1       8.300  -1.783   1.341  0.00  0.00    +0.106 A 
ATOM     23  C   UNL     1       8.992  -2.769   2.023  0.00  0.00    +0.030 A 
ATOM     24  C   UNL     1       8.341  -3.568   2.945  0.00  0.00    +0.023 A 
ATOM     25  C   UNL     1       6.995  -3.383   3.195  0.00  0.00    +0.055 A 
ATOM     26 CL   UNL     1       6.181  -4.381   4.359  0.00  0.00    -0.083 Cl
BRANCH  22  27
ATOM     27  S   UNL     1       9.140  -0.771   0.168  0.00  0.00    +0.056 S 
ATOM     28  O   UNL     1      10.272  -1.511  -0.269  0.00  0.00    -0.153 OA
ATOM     29  O   UNL     1       8.153  -0.287  -0.733  0.00  0.00    -0.153 OA
BRANCH  27  30
ATOM     30  N   UNL     1       9.722   0.546   0.985  0.00  0.00    -0.204 NA
ATOM     31  H   UNL     1      10.534   0.984   0.684  0.00  0.00    +0.144 HD
ATOM     32  H   UNL     1       9.251   0.880   1.764  0.00  0.00    +0.144 HD
ENDBRANCH  27  30
ENDBRANCH  22  27
ENDBRANCH  18  20
ENDBRANCH  17  18
ENDBRANCH   1  17
TORSDOF 8
