REMARK  Name = ZINC04436491
REMARK  9 active torsions:
REMARK  status: ('A' for Active; 'I' for Inactive)
REMARK    1  A    between atoms: C_1  and  C_2
REMARK    2  A    between atoms: C_5  and  C_28
REMARK    3  A    between atoms: C_6  and  C_8
REMARK    4  A    between atoms: C_10  and  C_24
REMARK    5  A    between atoms: C_11  and  C_16
REMARK    6  A    between atoms: C_16  and  S_17
REMARK    7  A    between atoms: S_17  and  C_18
REMARK    8  A    between atoms: C_24  and  O_26
REMARK    9  A    between atoms: O_26  and  C_27
REMARK                            x       y       z     vdW  Elec       q    Type
REMARK                         _______ _______ _______ _____ _____    ______ ____
ROOT
ATOM      1  C   UNL     1      -1.399  -0.772   0.103  0.00  0.00    +0.144 C 
ATOM      2  C   UNL     1      -1.958  -0.595   1.501  0.00  0.00    +0.079 C 
ATOM      3  C   UNL     1      -2.074  -1.693   2.276  0.00  0.00    +0.034 C 
ATOM      4  N   UNL     1      -1.698  -2.923   1.816  0.00  0.00    -0.272 N 
ATOM      5  C   UNL     1      -1.199  -3.138   0.593  0.00  0.00    +0.304 C 
ATOM      6  O   UNL     1      -0.893  -4.270   0.272  0.00  0.00    -0.252 OA
ATOM      7  N   UNL     1      -1.024  -2.139  -0.296  0.00  0.00    -0.288 N 
ATOM      8  H   UNL     1      -1.799  -3.684   2.409  0.00  0.00    +0.156 HD
ATOM      9  H   UNL     1      -0.661  -2.317  -1.177  0.00  0.00    +0.151 HD
ENDROOT
BRANCH   1  15
ATOM     10  C   UNL     1       2.463   1.608   2.217  0.00  0.00    +0.044 C 
ATOM     11  C   UNL     1       1.671   1.238   0.989  0.00  0.00    -0.050 A 
ATOM     12  C   UNL     1       2.067   1.699  -0.253  0.00  0.00    +0.003 A 
ATOM     13  C   UNL     1       1.340   1.362  -1.379  0.00  0.00    +0.004 A 
ATOM     14  C   UNL     1       0.218   0.561  -1.264  0.00  0.00    -0.045 A 
ATOM     15  C   UNL     1      -0.176   0.100  -0.022  0.00  0.00    -0.019 A 
ATOM     16  C   UNL     1       0.550   0.439   1.104  0.00  0.00    +0.009 A 
ATOM     17  C   UNL     1      -0.570   0.187  -2.493  0.00  0.00    +0.044 C 
ENDBRANCH   1  15
BRANCH   2  18
ATOM     18  C   UNL     1      -2.346   0.680   1.977  0.00  0.00    +0.339 C 
ATOM     19  O   UNL     1      -3.379   1.187   1.583  0.00  0.00    -0.245 OA
BRANCH  18  20
ATOM     20  O   UNL     1      -1.570   1.332   2.867  0.00  0.00    -0.465 OA
ATOM     21  C   UNL     1      -2.075   2.563   3.389  0.00  0.00    +0.280 C 
ENDBRANCH  18  20
ENDBRANCH   2  18
BRANCH   3  22
ATOM     22  C   UNL     1      -2.626  -1.561   3.672  0.00  0.00    +0.127 C 
BRANCH  22  23
ATOM     23  S   UNL     1      -4.330  -2.181   3.709  0.00  0.00    -0.091 S 
BRANCH  23  24
ATOM     24  C   UNL     1      -4.828  -1.961   5.385  0.00  0.00    +0.160 A 
ATOM     25  N   UNL     1      -4.147  -1.464   6.401  0.00  0.00    -0.133 NA
ATOM     26  N   UNL     1      -4.734  -1.381   7.642  0.00  0.00    -0.125 NA
ATOM     27  C   UNL     1      -5.974  -1.798   7.812  0.00  0.00    +0.180 A 
ATOM     28  S   UNL     1      -6.390  -2.342   6.162  0.00  0.00    -0.025 S 
ATOM     29  N   UNL     1      -6.750  -1.807   8.964  0.00  0.00    -0.336 N 
ATOM     30  H   UNL     1      -6.385  -1.471   9.798  0.00  0.00    +0.144 HD
ATOM     31  H   UNL     1      -7.657  -2.149   8.935  0.00  0.00    +0.144 HD
ENDBRANCH  23  24
ENDBRANCH  22  23
ENDBRANCH   3  22
TORSDOF 6
