REMARK  Name = ZINC39228014
REMARK  5 active torsions:
REMARK  status: ('A' for Active; 'I' for Inactive)
REMARK    1  A    between atoms: C_1  and  C_2
REMARK    2  A    between atoms: C_2  and  C_4
REMARK    3  A    between atoms: C_2  and  N_11
REMARK    4  A    between atoms: C_12  and  C_14
REMARK    5  A    between atoms: C_16  and  O_41
REMARK                            x       y       z     vdW  Elec       q    Type
REMARK                         _______ _______ _______ _____ _____    ______ ____
ROOT
ATOM      1  C   UNL     1       0.712  -1.094  -3.598  0.00  0.00    +0.107 C 
ATOM      2  C   UNL     1       1.282  -2.493  -3.348  0.00  0.00    +0.127 C 
ATOM      3  C   UNL     1       1.990  -2.995  -4.607  0.00  0.00    +0.032 C 
ATOM      4  C   UNL     1       1.000  -3.042  -5.774  0.00  0.00    +0.004 C 
ATOM      5  C   UNL     1       0.446  -1.638  -6.018  0.00  0.00    -0.024 C 
ATOM      6  C   UNL     1      -0.281  -1.156  -4.760  0.00  0.00    +0.004 C 
ATOM      7  C   UNL     1      -0.878   0.229  -5.019  0.00  0.00    -0.005 C 
ATOM      8  C   UNL     1      -1.809   0.141  -6.231  0.00  0.00    -0.020 C 
ATOM      9  C   UNL     1      -2.416   1.492  -6.515  0.00  0.00    +0.006 A 
ATOM     10  H   UNL     1      -2.910   2.273  -4.649  0.00  0.00    +0.166 HD
ATOM     11  C   UNL     1      -2.553   1.981  -7.771  0.00  0.00    -0.022 A 
ATOM     12  C   UNL     1      -3.166   3.285  -7.656  0.00  0.00    +0.003 A 
ATOM     13  C   UNL     1      -3.544   4.244  -8.600  0.00  0.00    +0.010 A 
ATOM     14  C   UNL     1      -4.114   5.398  -8.120  0.00  0.00    +0.001 A 
ATOM     15  C   UNL     1      -4.310   5.613  -6.766  0.00  0.00    +0.002 A 
ATOM     16  C   UNL     1      -3.946   4.681  -5.809  0.00  0.00    +0.026 A 
ATOM     17  C   UNL     1      -3.365   3.501  -6.267  0.00  0.00    +0.047 A 
ATOM     18  N   UNL     1      -2.900   2.397  -5.611  0.00  0.00    -0.359 N 
ATOM     19  C   UNL     1      -2.119   1.230  -9.004  0.00  0.00    +0.019 C 
ATOM     20  C   UNL     1      -1.879  -0.235  -8.610  0.00  0.00    -0.073 C 
ATOM     21  N   UNL     1      -1.042  -0.290  -7.408  0.00  0.00    +0.386 N 
ATOM     22  C   UNL     1      -0.536  -1.654  -7.191  0.00  0.00    -0.074 C 
ATOM     23  H   UNL     1      -0.256   0.330  -7.530  0.00  0.00    -0.081 HD
ENDROOT
BRANCH   1  25
ATOM     24  N   UNL     1       0.688  -0.476  -1.203  0.00  0.00    -0.308 N 
ATOM     25  C   UNL     1       0.006  -0.608  -2.358  0.00  0.00    +0.219 C 
ATOM     26  O   UNL     1      -1.175  -0.336  -2.400  0.00  0.00    -0.275 OA
ATOM     27  H   UNL     1       1.632  -0.695  -1.170  0.00  0.00    +0.149 HD
BRANCH  24  29
ATOM     28  C   UNL     1      -0.019   1.526   0.010  0.00  0.00    +0.033 C 
ATOM     29  C   UNL     1       0.002  -0.004   0.002  0.00  0.00    +0.100 C 
BRANCH  29  30
ATOM     30  C   UNL     1       0.731  -0.503   1.223  0.00  0.00    -0.027 A 
ATOM     31  C   UNL     1       2.113  -0.514   1.246  0.00  0.00    +0.007 A 
ATOM     32  C   UNL     1       2.782  -0.971   2.366  0.00  0.00    +0.020 A 
ATOM     33  C   UNL     1       2.068  -1.419   3.463  0.00  0.00    +0.041 A 
ATOM     34  C   UNL     1       0.685  -1.409   3.439  0.00  0.00    +0.020 A 
ATOM     35  C   UNL     1       0.017  -0.945   2.321  0.00  0.00    +0.007 A 
ATOM     36 CL   UNL     1       2.908  -1.995   4.869  0.00  0.00    -0.084 Cl
ENDBRANCH  29  30
ENDBRANCH  24  29
ENDBRANCH   1  25
BRANCH   2  37
ATOM     37  O   UNL     1       0.218  -3.387  -3.014  0.00  0.00    -0.391 OA
ATOM     38  H   UNL     1       0.506  -4.294  -2.841  0.00  0.00    +0.210 HD
ENDBRANCH   2  37
TORSDOF 4
