REMARK  Name = ZINC00720704
REMARK  8 active torsions:
REMARK  status: ('A' for Active; 'I' for Inactive)
REMARK    1  A    between atoms: C_1  and  O_2
REMARK    2  A    between atoms: O_2  and  C_3
REMARK    3  A    between atoms: C_6  and  C_13
REMARK    4  A    between atoms: C_7  and  O_11
REMARK    5  A    between atoms: C_8  and  O_9
REMARK    6  A    between atoms: O_9  and  C_10
REMARK    7  A    between atoms: O_11  and  C_12
REMARK    8  A    between atoms: C_18  and  C_23
REMARK                            x       y       z     vdW  Elec       q    Type
REMARK                         _______ _______ _______ _____ _____    ______ ____
ROOT
ATOM      1  C   UNL     1      -2.569   3.848   0.074  0.00  0.00    +0.140 C 
ATOM      2  C   UNL     1      -2.905   4.173   1.511  0.00  0.00    +0.037 C 
ATOM      3  C   UNL     1      -3.879   3.605   2.239  0.00  0.00    +0.017 C 
ATOM      4  C   UNL     1      -4.072   3.994   3.697  0.00  0.00    +0.060 C 
ATOM      5  C   UNL     1      -3.724   5.469   3.889  0.00  0.00    +0.039 C 
ATOM      6  C   UNL     1      -2.258   5.660   3.484  0.00  0.00    +0.088 C 
ATOM      7  C   UNL     1      -2.083   5.176   2.076  0.00  0.00    +0.163 C 
ATOM      8  O   UNL     1      -1.203   5.664   1.395  0.00  0.00    -0.292 OA
ATOM      9  N   UNL     1      -4.745   2.660   1.790  0.00  0.00    -0.316 N 
ATOM     10  C   UNL     1      -4.377   1.527   1.071  0.00  0.00    +0.052 A 
ATOM     11  C   UNL     1      -4.563   0.246   1.561  0.00  0.00    +0.025 A 
ATOM     12  C   UNL     1      -4.218  -0.839   0.773  0.00  0.00    +0.002 A 
ATOM     13  C   UNL     1      -3.696  -0.641  -0.492  0.00  0.00    +0.002 A 
ATOM     14  C   UNL     1      -3.493   0.639  -0.976  0.00  0.00    +0.025 A 
ATOM     15  C   UNL     1      -3.816   1.728  -0.180  0.00  0.00    +0.049 A 
ATOM     16  N   UNL     1      -3.557   3.031  -0.598  0.00  0.00    -0.331 N 
ATOM     17  H   UNL     1      -5.687   2.784   1.985  0.00  0.00    +0.152 HD
ATOM     18  H   UNL     1      -4.047   3.397  -1.351  0.00  0.00    +0.147 HD
ENDROOT
BRANCH   1  22
ATOM     19  C   UNL     1       1.183   1.791  -0.008  0.00  0.00    +0.165 A 
ATOM     20  C   UNL     1       0.472   1.901   1.178  0.00  0.00    +0.050 A 
ATOM     21  C   UNL     1      -0.741   2.562   1.200  0.00  0.00    +0.013 A 
ATOM     22  C   UNL     1      -1.248   3.124   0.043  0.00  0.00    +0.023 A 
ATOM     23  C   UNL     1      -0.544   3.019  -1.147  0.00  0.00    +0.170 A 
ATOM     24  C   UNL     1       0.675   2.351  -1.174  0.00  0.00    +0.204 A 
BRANCH  19  26
ATOM     25  C   UNL     1       2.836   0.587   1.206  0.00  0.00    +0.277 C 
ATOM     26  O   UNL     1       2.375   1.137  -0.030  0.00  0.00    -0.491 OA
ENDBRANCH  19  26
BRANCH  24  27
ATOM     27  O   UNL     1       1.369   2.245  -2.340  0.00  0.00    -0.488 OA
ATOM     28  C   UNL     1       1.177   1.053  -3.104  0.00  0.00    +0.277 C 
ENDBRANCH  24  27
BRANCH  23  29
ATOM     29  O   UNL     1      -1.045   3.568  -2.286  0.00  0.00    -0.491 OA
ATOM     30  C   UNL     1      -0.594   4.880  -2.627  0.00  0.00    +0.277 C 
ENDBRANCH  23  29
ENDBRANCH   1  22
BRANCH   5  31
ATOM     31  C   UNL     1      -3.909   5.853   5.335  0.00  0.00    -0.006 A 
ATOM     32  C   UNL     1      -4.726   6.793   5.871  0.00  0.00    +0.011 A 
ATOM     33  C   UNL     1      -4.734   6.972   7.241  0.00  0.00    +0.008 A 
ATOM     34  C   UNL     1      -3.917   6.209   8.008  0.00  0.00    +0.045 A 
ATOM     35  S   UNL     1      -3.105   5.192   6.786  0.00  0.00    -0.101 S 
ENDBRANCH   5  31
TORSDOF 5
