REMARK  Name = ZINC24751633
REMARK  7 active torsions:
REMARK  status: ('A' for Active; 'I' for Inactive)
REMARK    1  A    between atoms: C_8  and  S_10
REMARK    2  A    between atoms: S_10  and  C_11
REMARK    3  A    between atoms: C_11  and  C_12
REMARK    4  A    between atoms: C_15  and  C_18
REMARK    5  A    between atoms: N_20  and  C_21
REMARK    6  A    between atoms: C_21  and  C_22
REMARK    7  A    between atoms: C_22  and  C_23
REMARK                            x       y       z     vdW  Elec       q    Type
REMARK                         _______ _______ _______ _____ _____    ______ ____
ROOT
ATOM      1  C   UNL     1      -4.179   8.795   0.093  0.00  0.00    -0.037 A 
ATOM      2  C   UNL     1      -4.439   9.420   1.300  0.00  0.00    +0.005 A 
ATOM      3  C   UNL     1      -4.971  10.693   1.319  0.00  0.00    +0.013 A 
ATOM      4  C   UNL     1      -5.256  11.346   0.119  0.00  0.00    +0.037 A 
ATOM      5  C   UNL     1      -4.995  10.707  -1.095  0.00  0.00    +0.013 A 
ATOM      6  C   UNL     1      -4.458   9.436  -1.100  0.00  0.00    +0.005 A 
ENDROOT
BRANCH   4   7
ATOM      7  C   UNL     1      -5.830  12.708   0.132  0.00  0.00    +0.244 C 
ATOM      8  O   UNL     1      -6.077  13.274  -0.915  0.00  0.00    -0.270 OA
ATOM      9  N   UNL     1      -6.080  13.322   1.306  0.00  0.00    -0.311 N 
ATOM     10  H   UNL     1      -5.857  12.810   2.253  0.00  0.00    +0.149 HD
BRANCH   9  11
ATOM     11  C   UNL     1      -6.650  14.672   1.319  0.00  0.00    +0.110 C 
BRANCH  11  12
ATOM     12  C   UNL     1      -6.834  15.133   2.766  0.00  0.00    +0.073 C 
BRANCH  12  13
ATOM     13  C   UNL     1      -7.419  16.522   2.780  0.00  0.00    +0.035 A 
ATOM     14  C   UNL     1      -8.548  16.899   3.415  0.00  0.00    +0.108 A 
ATOM     15  N   UNL     1      -8.708  18.230   3.170  0.00  0.00    -0.336 N 
ATOM     16  C   UNL     1      -7.678  18.625   2.385  0.00  0.00    +0.087 A 
ATOM     17  N   UNL     1      -6.912  17.598   2.158  0.00  0.00    -0.347 N 
ATOM     18  C   UNL     1      -7.492  20.037   1.882  0.00  0.00    +0.072 C 
ATOM     19  C   UNL     1      -8.818  20.788   2.061  0.00  0.00    +0.009 C 
ATOM     20  C   UNL     1      -9.336  20.565   3.484  0.00  0.00    +0.022 C 
ATOM     21  C   UNL     1      -9.782  19.107   3.644  0.00  0.00    +0.123 C 
ATOM     22  H   UNL     1      -5.985  17.509   1.572  0.00  0.00    +0.167 HD
ENDBRANCH  12  13
ENDBRANCH  11  12
ENDBRANCH   9  11
ENDBRANCH   4   7
BRANCH   1  23
ATOM     23  C   UNL     1      -3.593   7.406   0.080  0.00  0.00    +0.111 C 
BRANCH  23  24
ATOM     24  S   UNL     1      -1.786   7.513   0.062  0.00  0.00    -0.094 S 
BRANCH  24  32
ATOM     25  C   UNL     1       1.175   1.793   0.001  0.00  0.00    +0.002 A 
ATOM     26  C   UNL     1      -0.013   1.076   0.008  0.00  0.00    +0.001 A 
ATOM     27  C   UNL     1      -1.216   1.758   0.017  0.00  0.00    +0.017 A 
ATOM     28  C   UNL     1      -1.216   3.130   0.031  0.00  0.00    +0.040 A 
ATOM     29  C   UNL     1      -0.027   3.894   0.023  0.00  0.00    +0.079 A 
ATOM     30  C   UNL     1       1.184   3.163   0.007  0.00  0.00    +0.029 A 
ATOM     31  N   UNL     1      -0.191   5.235   0.033  0.00  0.00    -0.233 NA
ATOM     32  C   UNL     1      -1.378   5.799   0.048  0.00  0.00    +0.136 A 
ATOM     33  S   UNL     1      -2.473   4.386   0.051  0.00  0.00    -0.061 S 
ENDBRANCH  24  32
ENDBRANCH  23  24
ENDBRANCH   1  23
TORSDOF 7
