REMARK  Name = ZINC26771980
REMARK  10 active torsions:
REMARK  status: ('A' for Active; 'I' for Inactive)
REMARK    1  A    between atoms: C_1  and  O_2
REMARK    2  A    between atoms: O_2  and  C_3
REMARK    3  A    between atoms: C_7  and  C_9
REMARK    4  A    between atoms: N_28  and  C_31
REMARK    5  A    between atoms: C_31  and  C_32
REMARK    6  A    between atoms: C_32  and  C_33
REMARK    7  A    between atoms: C_36  and  O_41
REMARK    8  A    between atoms: C_37  and  O_39
REMARK    9  A    between atoms: O_39  and  C_40
REMARK   10  A    between atoms: O_41  and  C_42
REMARK                            x       y       z     vdW  Elec       q    Type
REMARK                         _______ _______ _______ _____ _____    ______ ____
ROOT
ATOM      1  C   UNL     1       3.633   0.719  -0.018  0.00  0.00    +0.154 C 
ATOM      2  C   UNL     1       2.124   0.785  -0.074  0.00  0.00    +0.046 A 
ATOM      3  C   UNL     1       1.427   1.942  -0.067  0.00  0.00    -0.015 A 
ATOM      4  C   UNL     1       0.022   1.590  -0.123  0.00  0.00    +0.003 A 
ATOM      5  C   UNL     1      -1.147   2.357  -0.146  0.00  0.00    +0.010 A 
ATOM      6  C   UNL     1      -2.336   1.674  -0.201  0.00  0.00    +0.001 A 
ATOM      7  C   UNL     1      -2.389   0.290  -0.241  0.00  0.00    +0.002 A 
ATOM      8  C   UNL     1      -1.248  -0.493  -0.225  0.00  0.00    +0.026 A 
ATOM      9  C   UNL     1      -0.026   0.173  -0.165  0.00  0.00    +0.047 A 
ATOM     10  N   UNL     1       1.262  -0.278  -0.133  0.00  0.00    -0.356 N 
ATOM     11  H   UNL     1       1.656  -1.305  -0.149  0.00  0.00    +0.166 HD
ATOM     12  C   UNL     1       2.045   3.316  -0.016  0.00  0.00    +0.069 C 
ATOM     13  C   UNL     1       3.497   3.188   0.463  0.00  0.00    +0.167 C 
ATOM     14  N   UNL     1       4.144   2.087  -0.250  0.00  0.00    -0.276 N 
ATOM     15  C   UNL     1       5.168   2.262  -1.088  0.00  0.00    +0.234 C 
ATOM     16  O   UNL     1       5.586   1.290  -1.681  0.00  0.00    -0.274 OA
ATOM     17  C   UNL     1       5.833   3.575  -1.347  0.00  0.00    +0.203 C 
ATOM     18  N   UNL     1       5.252   4.647  -0.555  0.00  0.00    -0.291 N 
ATOM     19  C   UNL     1       4.210   4.486   0.259  0.00  0.00    +0.237 C 
ATOM     20  O   UNL     1       3.815   5.454   0.873  0.00  0.00    -0.274 OA
ENDROOT
BRANCH   1  25
ATOM     21  C   UNL     1       5.505  -2.069  -1.750  0.00  0.00    +0.120 A 
ATOM     22  C   UNL     1       5.084  -1.908  -3.062  0.00  0.00    +0.045 A 
ATOM     23  C   UNL     1       4.197  -0.899  -3.383  0.00  0.00    +0.004 A 
ATOM     24  C   UNL     1       3.724  -0.053  -2.397  0.00  0.00    +0.006 A 
ATOM     25  C   UNL     1       4.146  -0.208  -1.089  0.00  0.00    -0.018 A 
ATOM     26  C   UNL     1       5.033  -1.216  -0.763  0.00  0.00    +0.051 A 
BRANCH  21  28
ATOM     27  C   UNL     1       6.821  -3.902  -2.498  0.00  0.00    +0.277 C 
ATOM     28  O   UNL     1       6.377  -3.061  -1.431  0.00  0.00    -0.495 OA
ENDBRANCH  21  28
ENDBRANCH   1  25
BRANCH  18  29
ATOM     29  C   UNL     1       5.847   5.981  -0.658  0.00  0.00    +0.113 C 
BRANCH  29  30
ATOM     30  C   UNL     1       6.951   6.129   0.391  0.00  0.00    +0.054 C 
BRANCH  30  31
ATOM     31  C   UNL     1       7.564   7.502   0.286  0.00  0.00    -0.042 A 
ATOM     32  C   UNL     1       8.650   7.711  -0.543  0.00  0.00    +0.007 A 
ATOM     33  C   UNL     1       9.212   8.970  -0.648  0.00  0.00    +0.049 A 
ATOM     34  C   UNL     1       8.693  10.023   0.087  0.00  0.00    +0.161 A 
ATOM     35  C   UNL     1       7.603   9.812   0.926  0.00  0.00    +0.162 A 
ATOM     36  C   UNL     1       7.041   8.549   1.022  0.00  0.00    +0.053 A 
BRANCH  35  37
ATOM     37  O   UNL     1       7.091  10.843   1.650  0.00  0.00    -0.491 OA
ATOM     38  C   UNL     1       5.971  10.553   2.489  0.00  0.00    +0.277 C 
ENDBRANCH  35  37
BRANCH  34  39
ATOM     39  O   UNL     1       9.249  11.261  -0.010  0.00  0.00    -0.491 OA
ATOM     40  C   UNL     1      10.365  11.403  -0.891  0.00  0.00    +0.277 C 
ENDBRANCH  34  39
ENDBRANCH  30  31
ENDBRANCH  29  30
ENDBRANCH  18  29
TORSDOF 7
