REMARK  Name = ZINC15306768
REMARK  10 active torsions:
REMARK  status: ('A' for Active; 'I' for Inactive)
REMARK    1  A    between atoms: C_1  and  C_2
REMARK    2  A    between atoms: C_2  and  N_3
REMARK    3  A    between atoms: N_3  and  C_4
REMARK    4  A    between atoms: N_3  and  C_6
REMARK    5  A    between atoms: C_4  and  C_5
REMARK    6  A    between atoms: C_9  and  C_13
REMARK    7  A    between atoms: C_10  and  O_12
REMARK    8  A    between atoms: N_21  and  C_24
REMARK    9  A    between atoms: C_30  and  C_31
REMARK   10  A    between atoms: C_30  and  C_32
REMARK                            x       y       z     vdW  Elec       q    Type
REMARK                         _______ _______ _______ _____ _____    ______ ____
ROOT
ATOM      1  C   UNL     1       4.812  -1.626   0.118  0.00  0.00    -0.023 C 
ATOM      2  C   UNL     1       3.815  -0.585  -0.333  0.00  0.00    +0.077 C 
ATOM      3  C   UNL     1       4.482   0.668   0.360  0.00  0.00    +0.086 C 
ATOM      4  C   UNL     1       3.442   1.664   0.110  0.00  0.00    +0.229 C 
ATOM      5  O   UNL     1       3.590   2.842  -0.134  0.00  0.00    -0.275 OA
ATOM      6  N   UNL     1       2.261   0.972   0.214  0.00  0.00    -0.210 N 
ATOM      7  C   UNL     1       2.443  -0.386   0.189  0.00  0.00    +0.229 C 
ATOM      8  O   UNL     1       1.651  -1.240   0.521  0.00  0.00    -0.275 OA
ATOM      9  C   UNL     1       5.886   0.514  -0.102  0.00  0.00    +0.045 C 
ATOM     10  C   UNL     1       6.848   1.184   0.881  0.00  0.00    +0.002 C 
ATOM     11  N   UNL     1       6.114  -0.942  -0.142  0.00  0.00    +0.395 N 
ATOM     12  H   UNL     1       6.469  -1.213  -1.067  0.00  0.00    -0.083 HD
ATOM     13  H   UNL     1       6.796  -1.207   0.578  0.00  0.00    -0.083 HD
ENDROOT
BRANCH   1  17
ATOM     14  C   UNL     1       4.444  -5.194  -2.211  0.00  0.00    +0.033 A 
ATOM     15  C   UNL     1       3.873  -4.008  -2.655  0.00  0.00    +0.023 A 
ATOM     16  C   UNL     1       3.989  -2.859  -1.898  0.00  0.00    +0.007 A 
ATOM     17  C   UNL     1       4.683  -2.883  -0.702  0.00  0.00    -0.019 A 
ATOM     18  C   UNL     1       5.255  -4.065  -0.254  0.00  0.00    +0.120 A 
ATOM     19  C   UNL     1       5.136  -5.222  -1.009  0.00  0.00    +0.068 A 
BRANCH  18  20
ATOM     20  O   UNL     1       5.933  -4.088   0.924  0.00  0.00    -0.506 OA
ATOM     21  H   UNL     1       5.399  -4.371   1.679  0.00  0.00    +0.292 HD
ENDBRANCH  18  20
BRANCH  14  22
ATOM     22  N   UNL     1       4.322  -6.357  -2.975  0.00  0.00    -0.330 N 
BRANCH  22  24
ATOM     23  C   UNL     1       4.558  -5.989  -5.381  0.00  0.00    +0.024 C 
ATOM     24  C   UNL     1       3.592  -6.327  -4.244  0.00  0.00    +0.102 C 
ENDBRANCH  22  24
BRANCH  22  25
ATOM     25  C   UNL     1       4.925  -7.608  -2.506  0.00  0.00    +0.102 C 
ATOM     26  C   UNL     1       3.914  -8.371  -1.648  0.00  0.00    +0.024 C 
ENDBRANCH  22  25
ENDBRANCH  14  22
ENDBRANCH   1  17
BRANCH   6  27
ATOM     27  C   UNL     1       1.008   1.587   0.337  0.00  0.00    +0.044 A 
ATOM     28  C   UNL     1      -0.140   0.812   0.437  0.00  0.00    +0.024 A 
ATOM     29  C   UNL     1      -1.374   1.421   0.553  0.00  0.00    +0.002 A 
ATOM     30  C   UNL     1      -1.466   2.801   0.582  0.00  0.00    +0.000 A 
ATOM     31  C   UNL     1      -0.325   3.575   0.483  0.00  0.00    +0.002 A 
ATOM     32  C   UNL     1       0.912   2.972   0.360  0.00  0.00    +0.024 A 
ENDBRANCH   6  27
BRANCH   9  33
ATOM     33  C   UNL     1       6.052   1.097  -1.482  0.00  0.00    +0.346 C 
ATOM     34  O   UNL     1       5.303   1.964  -1.866  0.00  0.00    -0.248 OA
ATOM     35  O   UNL     1       7.032   0.653  -2.284  0.00  0.00    -0.248 OA
ENDBRANCH   9  33
TORSDOF 7
