REMARK  Name = ZINC52635001
REMARK  9 active torsions:
REMARK  status: ('A' for Active; 'I' for Inactive)
REMARK    1  A    between atoms: C_1  and  O_2
REMARK    2  A    between atoms: O_2  and  C_3
REMARK    3  A    between atoms: C_8  and  C_9
REMARK    4  A    between atoms: N_11  and  C_12
REMARK    5  A    between atoms: C_12  and  C_13
REMARK    6  A    between atoms: C_24  and  C_26
REMARK    7  A    between atoms: C_29  and  C_32
REMARK    8  A    between atoms: C_35  and  O_40
REMARK    9  A    between atoms: C_36  and  C_38
REMARK                            x       y       z     vdW  Elec       q    Type
REMARK                         _______ _______ _______ _____ _____    ______ ____
ROOT
ATOM      1  C   UNL     1      -1.198  -0.636   0.010  0.00  0.00    +0.133 A 
ATOM      2  C   UNL     1      -2.370   0.100   0.019  0.00  0.00    +0.056 A 
ATOM      3  C   UNL     1      -3.602  -0.553   0.027  0.00  0.00    +0.009 A 
ATOM      4  C   UNL     1      -3.644  -1.949   0.025  0.00  0.00    -0.033 A 
ATOM      5  C   UNL     1      -2.496  -2.682   0.016  0.00  0.00    +0.021 A 
ATOM      6  C   UNL     1      -1.254  -2.038   0.003  0.00  0.00    +0.079 A 
ATOM      7  C   UNL     1      -5.104  -2.336   0.035  0.00  0.00    +0.071 C 
ATOM      8  C   UNL     1      -5.865  -1.041   0.043  0.00  0.00    -0.010 C 
ATOM      9  C   UNL     1      -4.990  -0.019   0.038  0.00  0.00    +0.093 C 
ATOM     10  N   UNL     1      -5.676   1.165   0.044  0.00  0.00    -0.177 NA
ATOM     11  N   UNL     1      -6.902   1.050   0.053  0.00  0.00    -0.297 N 
ATOM     12  C   UNL     1      -7.227  -0.387   0.053  0.00  0.00    +0.157 C 
ATOM     13  H   UNL     1      -7.543   1.779   0.059  0.00  0.00    +0.183 HD
ENDROOT
BRANCH  12  14
ATOM     14  C   UNL     1      -7.989  -0.761   1.298  0.00  0.00    -0.020 A 
ATOM     15  C   UNL     1      -7.726  -0.108   2.489  0.00  0.00    +0.006 A 
ATOM     16  C   UNL     1      -8.421  -0.447   3.633  0.00  0.00    +0.009 A 
ATOM     17  C   UNL     1      -9.389  -1.448   3.586  0.00  0.00    -0.018 A 
ATOM     18  C   UNL     1      -9.649  -2.103   2.384  0.00  0.00    +0.009 A 
ATOM     19  C   UNL     1      -8.952  -1.753   1.245  0.00  0.00    +0.006 A 
BRANCH  17  20
ATOM     20  C   UNL     1     -10.139  -1.817   4.812  0.00  0.00    -0.016 A 
ATOM     21  C   UNL     1      -9.879  -1.156   6.014  0.00  0.00    +0.012 A 
ATOM     22  C   UNL     1     -10.572  -1.494   7.156  0.00  0.00    +0.047 A 
ATOM     23  C   UNL     1     -11.533  -2.494   7.120  0.00  0.00    +0.134 A 
ATOM     24  C   UNL     1     -11.801  -3.164   5.918  0.00  0.00    +0.094 A 
ATOM     25  C   UNL     1     -11.103  -2.817   4.762  0.00  0.00    +0.031 A 
BRANCH  24  26
ATOM     26  C   UNL     1     -12.792  -4.197   5.877  0.00  0.00    +0.103 C 
ATOM     27  N   UNL     1     -13.578  -5.017   5.844  0.00  0.00    -0.191 NA
ENDBRANCH  24  26
BRANCH  23  28
ATOM     28  O   UNL     1     -12.213  -2.823   8.248  0.00  0.00    -0.505 OA
ATOM     29  H   UNL     1     -13.027  -2.318   8.378  0.00  0.00    +0.292 HD
ENDBRANCH  23  28
ENDBRANCH  17  20
ENDBRANCH  12  14
BRANCH   6  30
ATOM     30  C   UNL     1      -0.010  -2.829  -0.013  0.00  0.00    +0.248 C 
ATOM     31  O   UNL     1       1.068  -2.266  -0.020  0.00  0.00    -0.270 OA
ATOM     32  N   UNL     1      -0.067  -4.175  -0.020  0.00  0.00    -0.306 N 
ATOM     33  H   UNL     1      -0.927  -4.624  -0.014  0.00  0.00    +0.149 HD
BRANCH  32  34
ATOM     34  C   UNL     1       1.169  -4.961  -0.036  0.00  0.00    +0.160 C 
BRANCH  34  35
ATOM     35  C   UNL     1       0.831  -6.429  -0.040  0.00  0.00    +0.058 A 
ATOM     36  C   UNL     1       0.774  -7.113  -1.240  0.00  0.00    +0.025 A 
ATOM     37  C   UNL     1       0.462  -8.464  -1.233  0.00  0.00    +0.003 A 
ATOM     38  C   UNL     1       0.218  -9.079  -0.015  0.00  0.00    +0.020 A 
ATOM     39  C   UNL     1       0.293  -8.331   1.144  0.00  0.00    +0.111 A 
ATOM     40  N   UNL     1       0.598  -7.048   1.101  0.00  0.00    -0.258 NA
ENDBRANCH  34  35
ENDBRANCH  32  34
ENDBRANCH   6  30
BRANCH   1  42
ATOM     41  C   UNL     1      -0.017   1.425   0.010  0.00  0.00    +0.277 C 
ATOM     42  O   UNL     1       0.002  -0.004   0.002  0.00  0.00    -0.494 OA
ENDBRANCH   1  42
TORSDOF 8
