REMARK  Name = ZINC39481492
REMARK  12 active torsions:
REMARK  status: ('A' for Active; 'I' for Inactive)
REMARK    1  A    between atoms: C_1  and  C_2
REMARK    2  A    between atoms: C_2  and  C_3
REMARK    3  A    between atoms: C_3  and  C_4
REMARK    4  A    between atoms: C_7  and  N_23
REMARK    5  A    between atoms: C_8  and  N_10
REMARK    6  A    between atoms: C_14  and  S_17
REMARK    7  A    between atoms: S_17  and  C_20
REMARK    8  A    between atoms: C_20  and  C_21
REMARK    9  A    between atoms: C_20  and  C_22
REMARK   10  A    between atoms: N_23  and  S_24
REMARK   11  A    between atoms: S_24  and  C_27
REMARK   12  A    between atoms: C_32  and  O_33
REMARK                            x       y       z     vdW  Elec       q    Type
REMARK                         _______ _______ _______ _____ _____    ______ ____
ROOT
ATOM      1  C   UNL     1      -0.077  -2.364  -0.331  0.00  0.00    -0.046 A 
ATOM      2  C   UNL     1       1.135  -2.904   0.060  0.00  0.00    +0.005 A 
ATOM      3  C   UNL     1       1.409  -4.238  -0.174  0.00  0.00    +0.026 A 
ATOM      4  C   UNL     1       0.468  -5.040  -0.802  0.00  0.00    +0.069 A 
ATOM      5  C   UNL     1      -0.755  -4.495  -1.196  0.00  0.00    +0.053 A 
ATOM      6  C   UNL     1      -1.023  -3.157  -0.953  0.00  0.00    +0.028 A 
ENDROOT
BRANCH   5   7
ATOM      7  N   UNL     1      -1.709  -5.299  -1.831  0.00  0.00    -0.324 N 
ATOM      8  C   UNL     1      -2.723  -6.026  -1.052  0.00  0.00    +0.120 C 
ATOM      9  C   UNL     1      -2.709  -7.495  -1.487  0.00  0.00    +0.101 C 
ATOM     10  N   UNL     1      -2.873  -7.572  -2.945  0.00  0.00    -0.293 NA
ATOM     11  C   UNL     1      -1.751  -6.930  -3.642  0.00  0.00    +0.215 C 
ATOM     12  C   UNL     1      -1.729  -5.433  -3.296  0.00  0.00    +0.147 C 
ATOM     13  H   UNL     1      -2.987  -8.529  -3.246  0.00  0.00    +0.124 HD
BRANCH  11  14
ATOM     14  S   UNL     1      -1.956  -7.133  -5.433  0.00  0.00    -0.012 S 
ATOM     15  O   UNL     1      -3.235  -6.633  -5.798  0.00  0.00    -0.173 OA
ATOM     16  O   UNL     1      -0.801  -6.615  -6.079  0.00  0.00    -0.173 OA
BRANCH  14  17
ATOM     17  C   UNL     1      -1.966  -8.935  -5.634  0.00  0.00    +0.126 C 
ATOM     18  C   UNL     1      -2.008  -9.282  -7.123  0.00  0.00    +0.031 C 
ATOM     19  C   UNL     1      -0.700  -9.525  -5.009  0.00  0.00    +0.031 C 
ENDBRANCH  14  17
ENDBRANCH  11  14
ENDBRANCH   5   7
BRANCH   4  20
ATOM     20  N   UNL     1       0.743  -6.392  -1.040  0.00  0.00    -0.214 N 
ATOM     21  H   UNL     1       0.412  -6.819  -1.846  0.00  0.00    +0.174 HD
BRANCH  20  22
ATOM     22  S   UNL     1       1.635  -7.260   0.052  0.00  0.00    +0.076 S 
ATOM     23  O   UNL     1       1.108  -6.959   1.337  0.00  0.00    -0.150 OA
ATOM     24  O   UNL     1       1.709  -8.588  -0.449  0.00  0.00    -0.150 OA
BRANCH  22  25
ATOM     25  C   UNL     1       3.274  -6.616   0.016  0.00  0.00    +0.150 A 
ATOM     26  C   UNL     1       3.807  -6.018   1.142  0.00  0.00    +0.032 A 
ATOM     27  C   UNL     1       5.093  -5.512   1.114  0.00  0.00    +0.002 A 
ATOM     28  C   UNL     1       5.850  -5.603  -0.040  0.00  0.00    +0.004 A 
ATOM     29  C   UNL     1       5.322  -6.200  -1.168  0.00  0.00    +0.047 A 
ATOM     30  C   UNL     1       4.033  -6.714  -1.141  0.00  0.00    +0.143 A 
BRANCH  30  31
ATOM     31  O   UNL     1       3.514  -7.307  -2.248  0.00  0.00    -0.505 OA
ATOM     32  H   UNL     1       3.067  -6.695  -2.849  0.00  0.00    +0.292 HD
ENDBRANCH  30  31
ENDBRANCH  22  25
ENDBRANCH  20  22
ENDBRANCH   4  20
BRANCH   1  33
ATOM     33  C   UNL     1      -0.369  -0.908  -0.072  0.00  0.00    +0.035 C 
BRANCH  33  35
ATOM     34  C   UNL     1      -1.323   0.722   1.563  0.00  0.00    +0.004 C 
ATOM     35  C   UNL     1      -1.027  -0.756   1.300  0.00  0.00    +0.001 C 
ENDBRANCH  33  35
ENDBRANCH   1  33
TORSDOF 9
