REMARK  Name = ZINC00041748
REMARK  5 active torsions:
REMARK  status: ('A' for Active; 'I' for Inactive)
REMARK    1  A    between atoms: C_1  and  C_2
REMARK    2  A    between atoms: C_5  and  N_10
REMARK    3  A    between atoms: C_7  and  C_8
REMARK    4  A    between atoms: C_11  and  C_12
REMARK    5  A    between atoms: C_17  and  O_18
REMARK                            x       y       z     vdW  Elec       q    Type
REMARK                         _______ _______ _______ _____ _____    ______ ____
ROOT
ATOM      1  N   UNL     1      -3.634   1.655   0.028  0.00  0.00    -0.255 NA
ATOM      2  C   UNL     1      -2.499   1.013   0.019  0.00  0.00    +0.123 C 
ENDROOT
BRANCH   1   7
ATOM      3  C   UNL     1      -8.495  -1.235   0.012  0.00  0.00    +0.045 C 
ATOM      4  C   UNL     1      -7.201  -0.463   0.019  0.00  0.00    -0.033 A 
ATOM      5  C   UNL     1      -6.176  -0.829  -0.830  0.00  0.00    +0.007 A 
ATOM      6  C   UNL     1      -4.989  -0.124  -0.834  0.00  0.00    +0.028 A 
ATOM      7  C   UNL     1      -4.813   0.960   0.030  0.00  0.00    +0.065 A 
ATOM      8  C   UNL     1      -5.844   1.335   0.890  0.00  0.00    +0.046 A 
ATOM      9  C   UNL     1      -7.042   0.622   0.885  0.00  0.00    +0.057 A 
BRANCH   9  10
ATOM     10  C   UNL     1      -8.106   1.000   1.765  0.00  0.00    +0.099 C 
ATOM     11  N   UNL     1      -8.951   1.300   2.463  0.00  0.00    -0.191 NA
ENDBRANCH   9  10
ENDBRANCH   1   7
BRANCH   2  12
ATOM     12  C   UNL     1      -1.232   1.760   0.017  0.00  0.00    +0.034 A 
ATOM     13  C   UNL     1      -0.013   1.076   0.008  0.00  0.00    +0.013 A 
ATOM     14  C   UNL     1       1.171   1.782   0.001  0.00  0.00    +0.001 A 
ATOM     15  C   UNL     1       1.158   3.167   0.007  0.00  0.00    +0.004 A 
ATOM     16  C   UNL     1      -0.040   3.856   0.022  0.00  0.00    +0.046 A 
ATOM     17  C   UNL     1      -1.240   3.163   0.030  0.00  0.00    +0.125 A 
BRANCH  17  18
ATOM     18  O   UNL     1      -2.417   3.838   0.046  0.00  0.00    -0.506 OA
ATOM     19  H   UNL     1      -2.767   4.039  -0.833  0.00  0.00    +0.292 HD
ENDBRANCH  17  18
ENDBRANCH   2  12
TORSDOF 4
