REMARK  Name = ZINC02104105
REMARK  12 active torsions:
REMARK  status: ('A' for Active; 'I' for Inactive)
REMARK    1  A    between atoms: C_1  and  C_2
REMARK    2  A    between atoms: C_2  and  O_3
REMARK    3  A    between atoms: O_3  and  C_4
REMARK    4  A    between atoms: C_4  and  C_6
REMARK    5  A    between atoms: C_6  and  C_33
REMARK    6  A    between atoms: N_22  and  C_24
REMARK    7  A    between atoms: C_24  and  C_26
REMARK    8  A    between atoms: C_24  and  C_29
REMARK    9  A    between atoms: C_26  and  C_27
REMARK   10  A    between atoms: C_26  and  C_28
REMARK   11  A    between atoms: C_29  and  O_31
REMARK   12  A    between atoms: O_31  and  C_32
REMARK                            x       y       z     vdW  Elec       q    Type
REMARK                         _______ _______ _______ _____ _____    ______ ____
ROOT
ATOM      1  C   UNL     1      -0.604   4.490   5.959  0.00  0.00    +0.173 C 
ATOM      2  C   UNL     1      -1.405   4.082   7.169  0.00  0.00    +0.055 A 
ATOM      3  C   UNL     1      -2.706   3.724   7.114  0.00  0.00    -0.015 A 
ATOM      4  C   UNL     1      -3.114   3.404   8.468  0.00  0.00    +0.003 A 
ATOM      5  C   UNL     1      -4.328   2.980   9.017  0.00  0.00    +0.010 A 
ATOM      6  C   UNL     1      -4.355   2.765  10.372  0.00  0.00    +0.001 A 
ATOM      7  C   UNL     1      -3.238   2.955  11.170  0.00  0.00    +0.002 A 
ATOM      8  C   UNL     1      -2.024   3.375  10.653  0.00  0.00    +0.026 A 
ATOM      9  C   UNL     1      -1.968   3.601   9.280  0.00  0.00    +0.047 A 
ATOM     10  N   UNL     1      -0.955   4.010   8.460  0.00  0.00    -0.356 N 
ATOM     11  H   UNL     1      -0.053   4.219   8.750  0.00  0.00    +0.166 HD
ATOM     12  C   UNL     1      -3.534   3.679   5.855  0.00  0.00    +0.056 C 
ATOM     13  C   UNL     1      -2.833   4.503   4.769  0.00  0.00    +0.115 C 
ATOM     14  N   UNL     1      -1.401   4.167   4.763  0.00  0.00    -0.265 N 
ATOM     15  C   UNL     1      -0.834   3.573   3.694  0.00  0.00    +0.304 C 
ATOM     16  O   UNL     1       0.329   3.221   3.740  0.00  0.00    -0.253 OA
ATOM     17  N   UNL     1      -1.557   3.369   2.575  0.00  0.00    -0.286 N 
ATOM     18  H   UNL     1      -2.501   3.592   2.560  0.00  0.00    +0.151 HD
ATOM     19  C   UNL     1       0.717   3.719   5.927  0.00  0.00    +0.051 C 
ENDROOT
BRANCH   1  20
ATOM     20  C   UNL     1      -0.331   5.972   6.007  0.00  0.00    +0.337 C 
ATOM     21  O   UNL     1      -0.289   6.544   7.070  0.00  0.00    -0.248 OA
BRANCH  20  22
ATOM     22  O   UNL     1      -0.135   6.655   4.868  0.00  0.00    -0.463 OA
BRANCH  22  24
ATOM     23  C   UNL     1       0.319   8.683   3.598  0.00  0.00    +0.048 C 
ATOM     24  C   UNL     1       0.122   8.079   4.990  0.00  0.00    +0.229 C 
ENDBRANCH  22  24
ENDBRANCH  20  22
ENDBRANCH   1  20
BRANCH  17  25
ATOM     25  C   UNL     1      -0.916   2.812   1.381  0.00  0.00    +0.186 C 
BRANCH  25  26
ATOM     26  C   UNL     1      -0.904   1.284   1.475  0.00  0.00    +0.014 C 
ATOM     27  C   UNL     1      -0.235   0.702   0.228  0.00  0.00    +0.009 C 
ATOM     28  C   UNL     1      -0.123   0.857   2.720  0.00  0.00    +0.009 C 
ENDBRANCH  25  26
BRANCH  25  29
ATOM     29  C   UNL     1      -1.685   3.233   0.155  0.00  0.00    +0.328 C 
ATOM     30  O   UNL     1      -2.667   3.928   0.268  0.00  0.00    -0.249 OA
BRANCH  29  31
ATOM     31  O   UNL     1      -1.279   2.837  -1.061  0.00  0.00    -0.467 OA
ATOM     32  C   UNL     1      -2.067   3.281  -2.196  0.00  0.00    +0.280 C 
ENDBRANCH  29  31
ENDBRANCH  25  29
ENDBRANCH  17  25
TORSDOF 7
