REMARK  Name = ZINC58236362
REMARK  6 active torsions:
REMARK  status: ('A' for Active; 'I' for Inactive)
REMARK    1  A    between atoms: C_1  and  C_2
REMARK    2  A    between atoms: C_2  and  C_3
REMARK    3  A    between atoms: C_2  and  N_13
REMARK    4  A    between atoms: C_6  and  N_9
REMARK    5  A    between atoms: C_14  and  C_16
REMARK    6  A    between atoms: N_18  and  C_25
REMARK                            x       y       z     vdW  Elec       q    Type
REMARK                         _______ _______ _______ _____ _____    ______ ____
ROOT
ATOM      1  C   UNL     1       0.002   1.489   0.238  0.00  0.00    +0.033 C 
ATOM      2  C   UNL     1       0.010  -0.025   0.017  0.00  0.00    +0.100 C 
ENDROOT
BRANCH   2   3
ATOM      3  C   UNL     1      -1.406  -0.541   0.024  0.00  0.00    -0.027 A 
ATOM      4  C   UNL     1      -2.059  -0.749   1.225  0.00  0.00    +0.007 A 
ATOM      5  C   UNL     1      -3.357  -1.222   1.234  0.00  0.00    +0.023 A 
ATOM      6  C   UNL     1      -4.006  -1.488   0.036  0.00  0.00    +0.035 A 
ATOM      7  C   UNL     1      -3.347  -1.279  -1.168  0.00  0.00    +0.023 A 
ATOM      8  C   UNL     1      -2.051  -0.801  -1.171  0.00  0.00    +0.007 A 
BRANCH   6   9
ATOM      9  N   UNL     1      -5.320  -1.968   0.042  0.00  0.00    -0.270 N 
ATOM     10  C   UNL     1      -6.177  -1.575   1.006  0.00  0.00    +0.301 C 
ATOM     11  O   UNL     1      -5.838  -0.730   1.812  0.00  0.00    -0.253 OA
ATOM     12  N   UNL     1      -7.408  -2.117   1.075  0.00  0.00    -0.313 N 
ATOM     13  H   UNL     1      -5.615  -2.584  -0.647  0.00  0.00    +0.156 HD
ATOM     14  H   UNL     1      -7.678  -2.791   0.432  0.00  0.00    +0.146 HD
ATOM     15  H   UNL     1      -8.025  -1.834   1.769  0.00  0.00    +0.146 HD
ENDBRANCH   6   9
ENDBRANCH   2   3
BRANCH   2  16
ATOM     16  N   UNL     1       0.770  -0.671   1.090  0.00  0.00    -0.305 N 
ATOM     17  C   UNL     1       2.110  -0.780   0.995  0.00  0.00    +0.247 C 
ATOM     18  O   UNL     1       2.688  -0.342   0.018  0.00  0.00    -0.270 OA
ATOM     19  H   UNL     1       0.309  -1.020   1.869  0.00  0.00    +0.150 HD
BRANCH  17  20
ATOM     20  C   UNL     1       2.873  -1.428   2.070  0.00  0.00    +0.062 A 
ATOM     21  C   UNL     1       2.369  -1.970   3.216  0.00  0.00    +0.099 A 
ATOM     22  N   UNL     1       3.377  -2.475   3.966  0.00  0.00    -0.349 N 
ATOM     23  C   UNL     1       4.589  -2.283   3.336  0.00  0.00    +0.050 A 
ATOM     24  C   UNL     1       4.333  -1.627   2.121  0.00  0.00    +0.012 A 
ATOM     25  C   UNL     1       5.383  -1.307   1.264  0.00  0.00    +0.011 A 
ATOM     26  C   UNL     1       6.673  -1.641   1.613  0.00  0.00    +0.001 A 
ATOM     27  C   UNL     1       6.928  -2.293   2.811  0.00  0.00    +0.002 A 
ATOM     28  C   UNL     1       5.899  -2.607   3.672  0.00  0.00    +0.026 A 
ATOM     29  C   UNL     1       3.205  -3.133   5.264  0.00  0.00    +0.149 C 
ENDBRANCH  17  20
ENDBRANCH   2  16
TORSDOF 4
