REMARK  Name = ZINC39462459
REMARK  7 active torsions:
REMARK  status: ('A' for Active; 'I' for Inactive)
REMARK    1  A    between atoms: C_4  and  C_7
REMARK    2  A    between atoms: C_7  and  N_8
REMARK    3  A    between atoms: C_9  and  C_30
REMARK    4  A    between atoms: C_13  and  S_15
REMARK    5  A    between atoms: S_15  and  C_16
REMARK    6  A    between atoms: C_16  and  C_17
REMARK    7  A    between atoms: C_30  and  N_31
REMARK                            x       y       z     vdW  Elec       q    Type
REMARK                         _______ _______ _______ _____ _____    ______ ____
ROOT
ATOM      1  N   UNL     1       4.257  -0.953   1.364  0.00  0.00    -0.259 NA
ATOM      2  C   UNL     1       5.404  -1.884   1.329  0.00  0.00    +0.124 C 
ATOM      3  N   UNL     1       6.552  -1.159   1.921  0.00  0.00    -0.239 NA
ATOM      4  N   UNL     1       5.937  -0.127   2.770  0.00  0.00    -0.229 NA
ATOM      5  C   UNL     1       4.755   0.299   1.977  0.00  0.00    +0.200 C 
ATOM      6  H   UNL     1       7.130  -1.780   2.467  0.00  0.00    +0.142 HD
ATOM      7  H   UNL     1       5.656  -0.512   3.660  0.00  0.00    +0.143 HD
ENDROOT
BRANCH   1   8
ATOM      8  C   UNL     1       3.738  -0.707   0.011  0.00  0.00    +0.123 C 
BRANCH   8  12
ATOM      9  C   UNL     1       0.111   1.536   0.263  0.00  0.00    +0.000 A 
ATOM     10  C   UNL     1       1.324   2.192   0.168  0.00  0.00    +0.000 A 
ATOM     11  C   UNL     1       2.498   1.466   0.087  0.00  0.00    +0.005 A 
ATOM     12  C   UNL     1       2.458   0.084   0.101  0.00  0.00    -0.033 A 
ATOM     13  C   UNL     1       1.245  -0.572   0.196  0.00  0.00    +0.005 A 
ATOM     14  C   UNL     1       0.072   0.154   0.276  0.00  0.00    +0.000 A 
ENDBRANCH   8  12
ENDBRANCH   1   8
BRANCH   5  15
ATOM     15  S   UNL     1       3.491   1.021   3.060  0.00  0.00    -0.117 S 
BRANCH  15  16
ATOM     16  C   UNL     1       3.292  -0.206   4.381  0.00  0.00    +0.146 C 
BRANCH  16  17
ATOM     17  C   UNL     1       2.167   0.214   5.292  0.00  0.00    +0.120 A 
ATOM     18  N   UNL     1       1.797  -0.629   6.290  0.00  0.00    -0.310 N 
ATOM     19  H   UNL     1       2.256  -1.477   6.398  0.00  0.00    +0.170 HD
ATOM     20  C   UNL     1       0.793  -0.298   7.136  0.00  0.00    +0.259 A 
ATOM     21  O   UNL     1       0.451  -1.044   8.034  0.00  0.00    -0.267 OA
ATOM     22  C   UNL     1       0.132   0.999   6.926  0.00  0.00    +0.066 A 
ATOM     23  C   UNL     1      -0.912   1.434   7.740  0.00  0.00    +0.035 A 
ATOM     24  C   UNL     1      -1.496   2.659   7.499  0.00  0.00    +0.042 A 
ATOM     25  C   UNL     1      -1.052   3.459   6.453  0.00  0.00    +0.022 A 
ATOM     26  C   UNL     1      -0.023   3.046   5.637  0.00  0.00    +0.030 A 
ATOM     27  C   UNL     1       0.586   1.810   5.863  0.00  0.00    +0.078 A 
ATOM     28  N   UNL     1       1.606   1.367   5.086  0.00  0.00    -0.233 NA
ATOM     29 CL   UNL     1      -2.797   3.207   8.510  0.00  0.00    -0.084 Cl
ENDBRANCH  16  17
ENDBRANCH  15  16
ENDBRANCH   5  15
BRANCH   2  30
ATOM     30  C   UNL     1       5.091  -3.134   2.154  0.00  0.00    -0.042 C 
BRANCH  30  31
ATOM     31  N   UNL     1       3.979  -3.865   1.531  0.00  0.00    +0.382 N 
ATOM     32  C   UNL     1       4.405  -4.380   0.224  0.00  0.00    -0.079 C 
ATOM     33  C   UNL     1       3.227  -5.073  -0.464  0.00  0.00    -0.019 C 
ATOM     34  C   UNL     1       2.742  -6.233   0.411  0.00  0.00    -0.004 C 
ATOM     35  C   UNL     1       2.371  -5.694   1.795  0.00  0.00    -0.019 C 
ATOM     36  C   UNL     1       3.581  -4.979   2.400  0.00  0.00    -0.079 C 
ATOM     37  H   UNL     1       3.196  -3.241   1.405  0.00  0.00    -0.082 HD
ENDBRANCH  30  31
ENDBRANCH   2  30
TORSDOF 7
