REMARK  Name = ZINC14954243
REMARK  11 active torsions:
REMARK  status: ('A' for Active; 'I' for Inactive)
REMARK    1  A    between atoms: C_1  and  N_2
REMARK    2  A    between atoms: N_2  and  C_3
REMARK    3  A    between atoms: N_2  and  C_30
REMARK    4  A    between atoms: C_3  and  C_4
REMARK    5  A    between atoms: C_8  and  O_10
REMARK    6  A    between atoms: O_10  and  C_11
REMARK    7  A    between atoms: C_11  and  C_12
REMARK    8  A    between atoms: C_12  and  N_13
REMARK    9  A    between atoms: N_16  and  S_19
REMARK   10  A    between atoms: S_19  and  C_22
REMARK   11  A    between atoms: C_30  and  C_31
REMARK                            x       y       z     vdW  Elec       q    Type
REMARK                         _______ _______ _______ _____ _____    ______ ____
ROOT
ATOM      1  O   UNL     1      -0.556   4.367   3.586  0.00  0.00    -0.491 OA
ENDROOT
BRANCH   1   6
ATOM      2  C   UNL     1      -0.464   1.461   1.399  0.00  0.00    -0.061 A 
ATOM      3  C   UNL     1      -1.525   0.729   1.899  0.00  0.00    +0.002 A 
ATOM      4  C   UNL     1      -2.262   1.215   2.963  0.00  0.00    +0.004 A 
ATOM      5  C   UNL     1      -1.940   2.433   3.530  0.00  0.00    +0.045 A 
ATOM      6  C   UNL     1      -0.875   3.169   3.030  0.00  0.00    +0.121 A 
ATOM      7  C   UNL     1      -0.134   2.677   1.966  0.00  0.00    +0.047 A 
BRANCH   2   8
ATOM      8  C   UNL     1       0.337   0.929   0.239  0.00  0.00    -0.043 C 
BRANCH   8  10
ATOM      9  C   UNL     1      -1.591   0.809  -1.220  0.00  0.00    -0.096 C 
ATOM     10  N   UNL     1      -0.258   1.393  -1.021  0.00  0.00    +0.382 N 
ATOM     11  H   UNL     1      -0.373   2.485  -0.958  0.00  0.00    -0.082 HD
BRANCH  10  12
ATOM     12  C   UNL     1       0.622   1.096  -2.160  0.00  0.00    -0.056 C 
BRANCH  12  13
ATOM     13  C   UNL     1       0.096   1.807  -3.409  0.00  0.00    +0.057 C 
ATOM     14  C   UNL     1       1.090   1.636  -4.579  0.00  0.00    +0.029 C 
ATOM     15  C   UNL     1       1.947   2.920  -4.452  0.00  0.00    +0.097 C 
ATOM     16  C   UNL     1       1.041   3.902  -3.743  0.00  0.00    +0.213 C 
ATOM     17  O   UNL     1       1.218   5.101  -3.696  0.00  0.00    -0.276 OA
ATOM     18  N   UNL     1       0.011   3.253  -3.173  0.00  0.00    -0.314 N 
ATOM     19  H   UNL     1      -0.826   3.667  -2.591  0.00  0.00    +0.149 HD
ENDBRANCH  12  13
ENDBRANCH  10  12
ENDBRANCH   8  10
ENDBRANCH   2   8
ENDBRANCH   1   6
BRANCH   1  20
ATOM     20  C   UNL     1      -1.360   4.809   4.681  0.00  0.00    +0.244 C 
BRANCH  20  21
ATOM     21  C   UNL     1      -0.854   6.168   5.170  0.00  0.00    +0.125 C 
BRANCH  21  22
ATOM     22  N   UNL     1      -1.049   7.172   4.115  0.00  0.00    -0.297 NA
ATOM     23  C   UNL     1      -0.178   8.335   4.329  0.00  0.00    +0.101 C 
ATOM     24  C   UNL     1      -0.277   9.272   3.119  0.00  0.00    +0.125 C 
ATOM     25  N   UNL     1      -1.695   9.589   2.890  0.00  0.00    -0.174 NA
ATOM     26  C   UNL     1      -2.652   8.476   2.802  0.00  0.00    +0.125 C 
ATOM     27  C   UNL     1      -2.459   7.571   4.024  0.00  0.00    +0.101 C 
BRANCH  25  28
ATOM     28  S   UNL     1      -2.200  11.159   2.734  0.00  0.00    +0.061 S 
ATOM     29  O   UNL     1      -1.070  11.909   2.308  0.00  0.00    -0.153 OA
ATOM     30  O   UNL     1      -3.413  11.124   1.996  0.00  0.00    -0.153 OA
BRANCH  28  31
ATOM     31  C   UNL     1      -2.608  11.737   4.348  0.00  0.00    +0.108 A 
ATOM     32  C   UNL     1      -3.897  11.591   4.828  0.00  0.00    +0.031 A 
ATOM     33  C   UNL     1      -4.218  12.039   6.095  0.00  0.00    +0.043 A 
ATOM     34  C   UNL     1      -3.253  12.644   6.881  0.00  0.00    +0.159 A 
ATOM     35  C   UNL     1      -1.962  12.795   6.398  0.00  0.00    +0.160 A 
ATOM     36  C   UNL     1      -1.642  12.341   5.130  0.00  0.00    +0.069 A 
ATOM     37  F   UNL     1      -1.018  13.385   7.163  0.00  0.00    -0.202 F 
ATOM     38  F   UNL     1      -3.568  13.086   8.118  0.00  0.00    -0.202 F 
ENDBRANCH  28  31
ENDBRANCH  25  28
ENDBRANCH  21  22
ENDBRANCH  20  21
ENDBRANCH   1  20
TORSDOF 10
