REMARK  Name = ZINC10775584
REMARK  10 active torsions:
REMARK  status: ('A' for Active; 'I' for Inactive)
REMARK    1  A    between atoms: C_1  and  C_2
REMARK    2  A    between atoms: C_7  and  C_8
REMARK    3  A    between atoms: N_12  and  C_13
REMARK    4  A    between atoms: C_13  and  C_14
REMARK    5  A    between atoms: C_14  and  N_63
REMARK    6  A    between atoms: C_15  and  N_63
REMARK    7  A    between atoms: C_16  and  N_63
REMARK    8  A    between atoms: C_17  and  C_19
REMARK    9  A    between atoms: N_25  and  S_26
REMARK   10  A    between atoms: S_26  and  C_29
REMARK                            x       y       z     vdW  Elec       q    Type
REMARK                         _______ _______ _______ _____ _____    ______ ____
ROOT
ATOM      1  C   UNL     1       5.388   2.646   7.470  0.00  0.00    +0.044 C 
ATOM      2  C   UNL     1       4.504   2.924   6.282  0.00  0.00    -0.045 A 
ATOM      3  C   UNL     1       4.697   4.088   5.551  0.00  0.00    +0.005 A 
ATOM      4  C   UNL     1       3.886   4.345   4.461  0.00  0.00    +0.017 A 
ATOM      5  C   UNL     1       2.905   3.448   4.119  0.00  0.00    +0.041 A 
ATOM      6  C   UNL     1       2.679   2.253   4.840  0.00  0.00    +0.083 A 
ATOM      7  C   UNL     1       3.527   2.023   5.949  0.00  0.00    -0.021 A 
ATOM      8  C   UNL     1       3.354   0.773   6.772  0.00  0.00    +0.046 C 
ATOM      9  N   UNL     1       1.673   1.476   4.384  0.00  0.00    -0.224 NA
ATOM     10  C   UNL     1       0.955   1.797   3.334  0.00  0.00    +0.168 A 
ATOM     11  S   UNL     1       1.669   3.361   2.846  0.00  0.00    -0.052 S 
ATOM     12  N   UNL     1      -0.095   1.103   2.754  0.00  0.00    -0.251 N 
ATOM     13  C   UNL     1      -0.493  -0.075   3.275  0.00  0.00    +0.240 C 
ATOM     14  O   UNL     1       0.002  -0.481   4.304  0.00  0.00    -0.273 OA
ENDROOT
BRANCH  13  15
ATOM     15  C   UNL     1      -1.554  -0.887   2.577  0.00  0.00    +0.166 C 
ATOM     16  C   UNL     1      -2.790  -0.997   3.476  0.00  0.00    +0.030 C 
ATOM     17  C   UNL     1      -3.806  -1.939   2.825  0.00  0.00    +0.003 C 
ATOM     18  C   UNL     1      -3.192  -3.332   2.671  0.00  0.00    +0.017 C 
ATOM     19  C   UNL     1      -1.962  -3.245   1.762  0.00  0.00    +0.110 C 
ATOM     20  N   UNL     1      -1.042  -2.237   2.305  0.00  0.00    -0.164 NA
BRANCH  20  21
ATOM     21  S   UNL     1       0.542  -2.615   2.606  0.00  0.00    +0.068 S 
ATOM     22  O   UNL     1       0.870  -3.701   1.751  0.00  0.00    -0.152 OA
ATOM     23  O   UNL     1       1.262  -1.389   2.590  0.00  0.00    -0.152 OA
BRANCH  21  24
ATOM     24  C   UNL     1       0.628  -3.228   4.255  0.00  0.00    +0.143 A 
ATOM     25  C   UNL     1       0.498  -4.502   4.700  0.00  0.00    +0.036 A 
ATOM     26  C   UNL     1       0.608  -4.753   6.055  0.00  0.00    +0.010 A 
ATOM     27  C   UNL     1       0.830  -3.717   6.900  0.00  0.00    +0.047 A 
ATOM     28  S   UNL     1       0.901  -2.332   5.775  0.00  0.00    -0.077 S 
ENDBRANCH  21  24
ENDBRANCH  20  21
ENDBRANCH  13  15
BRANCH  12  29
ATOM     29  C   UNL     1      -0.772   1.649   1.575  0.00  0.00    +0.097 C 
BRANCH  29  30
ATOM     30  C   UNL     1      -0.016   1.229   0.313  0.00  0.00    -0.060 C 
BRANCH  30  33
ATOM     31  C   UNL     1       0.124   1.599  -2.076  0.00  0.00    -0.097 C 
ATOM     32  C   UNL     1      -2.022   1.173  -1.041  0.00  0.00    -0.097 C 
ATOM     33  N   UNL     1      -0.698   1.805  -0.865  0.00  0.00    +0.377 N 
ATOM     34  H   UNL     1      -0.827   2.813  -0.717  0.00  0.00    -0.083 HD
ENDBRANCH  30  33
ENDBRANCH  29  30
ENDBRANCH  12  29
TORSDOF 6
