REMARK  Name = ZINC38002939
REMARK  5 active torsions:
REMARK  status: ('A' for Active; 'I' for Inactive)
REMARK    1  A    between atoms: C_1  and  C_2
REMARK    2  A    between atoms: C_2  and  C_4
REMARK    3  A    between atoms: C_2  and  N_10
REMARK    4  A    between atoms: N_10  and  C_11
REMARK    5  A    between atoms: C_14  and  N_17
REMARK                            x       y       z     vdW  Elec       q    Type
REMARK                         _______ _______ _______ _____ _____    ______ ____
ROOT
ATOM      1  C   UNL     1       2.082  -0.591  -1.215  0.00  0.00    +0.028 A 
ATOM      2  C   UNL     1       2.815  -0.277  -0.078  0.00  0.00    +0.025 A 
ATOM      3  C   UNL     1       4.191  -0.390  -0.090  0.00  0.00    +0.025 A 
ATOM      4  C   UNL     1       4.842  -0.818  -1.239  0.00  0.00    +0.038 A 
ATOM      5  C   UNL     1       4.110  -1.131  -2.377  0.00  0.00    +0.025 A 
ATOM      6  C   UNL     1       2.733  -1.024  -2.363  0.00  0.00    +0.025 A 
ENDROOT
BRANCH   4   7
ATOM      7  N   UNL     1       6.239  -0.932  -1.252  0.00  0.00    -0.254 N 
ATOM      8  C   UNL     1       7.040  -1.477  -2.358  0.00  0.00    +0.134 C 
ATOM      9  C   UNL     1       8.492  -1.369  -1.852  0.00  0.00    +0.125 C 
ATOM     10  N   UNL     1       8.354  -0.775  -0.513  0.00  0.00    -0.297 N 
ATOM     11  C   UNL     1       7.058  -0.557  -0.260  0.00  0.00    +0.307 C 
ATOM     12  O   UNL     1       6.659  -0.067   0.779  0.00  0.00    -0.252 OA
ATOM     13  H   UNL     1       9.087  -0.570   0.088  0.00  0.00    +0.150 HD
ENDBRANCH   4   7
BRANCH   1  14
ATOM     14  N   UNL     1       0.688  -0.476  -1.203  0.00  0.00    -0.337 N 
ATOM     15  H   UNL     1       0.176  -0.700  -1.996  0.00  0.00    +0.147 HD
BRANCH  14  17
ATOM     16  C   UNL     1      -0.020   1.510   0.035  0.00  0.00    +0.033 C 
ATOM     17  C   UNL     1       0.001  -0.019   0.007  0.00  0.00    +0.104 C 
BRANCH  17  18
ATOM     18  C   UNL     1      -1.413  -0.541   0.010  0.00  0.00    +0.011 A 
ATOM     19  C   UNL     1      -2.143  -1.022   1.045  0.00  0.00    +0.014 A 
ATOM     20  C   UNL     1      -3.437  -1.451   0.812  0.00  0.00    +0.023 A 
ATOM     21  C   UNL     1      -3.936  -1.377  -0.447  0.00  0.00    +0.055 A 
ATOM     22  S   UNL     1      -2.563  -0.679  -1.349  0.00  0.00    -0.085 S 
ATOM     23 BR   UNL     1      -5.646  -1.879  -1.081  0.00  0.00    -0.043 Br
ENDBRANCH  17  18
ENDBRANCH  14  17
ENDBRANCH   1  14
TORSDOF 4
