REMARK  Name = ZINC35345260
REMARK  5 active torsions:
REMARK  status: ('A' for Active; 'I' for Inactive)
REMARK    1  A    between atoms: C_1  and  C_2
REMARK    2  A    between atoms: C_7  and  N_12
REMARK    3  A    between atoms: C_9  and  C_11
REMARK    4  A    between atoms: N_12  and  C_13
REMARK    5  A    between atoms: C_18  and  N_19
REMARK                            x       y       z     vdW  Elec       q    Type
REMARK                         _______ _______ _______ _____ _____    ______ ____
ROOT
ATOM      1  C   UNL     1       0.630   0.192   4.898  0.00  0.00    +0.050 A 
ATOM      2  C   UNL     1      -0.148   1.335   4.973  0.00  0.00    +0.048 A 
ATOM      3  C   UNL     1      -0.256   2.031   6.175  0.00  0.00    +0.039 A 
ATOM      4  C   UNL     1       0.426   1.562   7.291  0.00  0.00    -0.016 A 
ATOM      5  C   UNL     1       1.202   0.425   7.222  0.00  0.00    +0.030 A 
ATOM      6  C   UNL     1       1.305  -0.271   6.027  0.00  0.00    +0.046 A 
ATOM      7  C   UNL     1       0.110   2.521   8.416  0.00  0.00    +0.133 C 
ATOM      8  C   UNL     1      -0.808   3.544   7.783  0.00  0.00    +0.222 C 
ATOM      9  O   UNL     1      -1.306   4.503   8.333  0.00  0.00    -0.275 OA
ATOM     10  N   UNL     1      -0.968   3.190   6.497  0.00  0.00    -0.285 N 
ATOM     11  H   UNL     1      -1.514   3.683   5.864  0.00  0.00    +0.155 HD
ENDROOT
BRANCH   6  12
ATOM     12  N   UNL     1       2.088  -1.432   5.953  0.00  0.00    -0.357 N 
ATOM     13  H   UNL     1       2.162  -1.915   5.114  0.00  0.00    +0.142 HD
ATOM     14  H   UNL     1       2.557  -1.752   6.739  0.00  0.00    +0.142 HD
ENDBRANCH   6  12
BRANCH   1  15
ATOM     15  N   UNL     1       0.735  -0.503   3.687  0.00  0.00    -0.339 N 
ATOM     16  H   UNL     1       1.276  -1.306   3.634  0.00  0.00    +0.146 HD
BRANCH  15  22
ATOM     17  C   UNL     1      -0.019   1.526   0.010  0.00  0.00    +0.008 C 
ATOM     18  C   UNL     1       0.002  -0.004   0.002  0.00  0.00    -0.009 C 
ATOM     19  C   UNL     1      -1.433  -0.534   0.013  0.00  0.00    +0.003 C 
ATOM     20  C   UNL     1      -2.149  -0.040   1.272  0.00  0.00    +0.002 C 
ATOM     21  C   UNL     1      -1.409  -0.547   2.511  0.00  0.00    +0.022 C 
ATOM     22  C   UNL     1       0.026  -0.018   2.500  0.00  0.00    +0.074 C 
ATOM     23  C   UNL     1       0.742  -0.511   1.242  0.00  0.00    +0.009 C 
ATOM     24  C   UNL     1       2.178   0.019   1.231  0.00  0.00    +0.009 C 
ENDBRANCH  15  22
ENDBRANCH   1  15
TORSDOF 3
