REMARK  Name = ZINC43219056
REMARK  7 active torsions:
REMARK  status: ('A' for Active; 'I' for Inactive)
REMARK    1  A    between atoms: C_1  and  C_2
REMARK    2  A    between atoms: C_2  and  C_3
REMARK    3  A    between atoms: C_2  and  C_4
REMARK    4  A    between atoms: C_2  and  N_5
REMARK    5  A    between atoms: C_10  and  C_27
REMARK    6  A    between atoms: C_13  and  C_18
REMARK    7  A    between atoms: C_13  and  C_24
REMARK                            x       y       z     vdW  Elec       q    Type
REMARK                         _______ _______ _______ _____ _____    ______ ____
ROOT
ATOM      1  N   UNL     1       1.097   0.194  -1.070  0.00  0.00    -0.236 N 
ATOM      2  C   UNL     1       0.284  -0.565  -1.875  0.00  0.00    +0.225 C 
ATOM      3  O   UNL     1      -0.927  -0.608  -1.873  0.00  0.00    -0.275 OA
ATOM      4  C   UNL     1       1.189  -1.300  -2.724  0.00  0.00    +0.080 C 
ATOM      5  C   UNL     1       1.212  -2.017  -4.010  0.00  0.00    +0.010 C 
ATOM      6  N   UNL     1       2.683  -2.256  -4.212  0.00  0.00    +0.400 N 
ATOM      7  C   UNL     1       3.425  -1.236  -3.412  0.00  0.00    +0.074 C 
ATOM      8  C   UNL     1       2.349  -0.248  -2.937  0.00  0.00    +0.090 C 
ATOM      9  C   UNL     1       2.389   0.236  -1.514  0.00  0.00    +0.226 C 
ATOM     10  O   UNL     1       3.366   0.587  -0.888  0.00  0.00    -0.275 OA
ATOM     11  H   UNL     1       2.925  -3.182  -3.893  0.00  0.00    -0.083 HD
ATOM     12  H   UNL     1       2.914  -2.158  -5.189  0.00  0.00    -0.083 HD
ENDROOT
BRANCH   5  13
ATOM     13  C   UNL     1       0.650  -1.159  -5.114  0.00  0.00    +0.093 A 
ATOM     14  C   UNL     1      -0.597  -1.250  -5.597  0.00  0.00    +0.051 A 
ATOM     15  C   UNL     1      -0.704  -0.232  -6.649  0.00  0.00    +0.020 A 
ATOM     16  C   UNL     1      -1.718   0.172  -7.515  0.00  0.00    +0.011 A 
ATOM     17  C   UNL     1      -1.487   1.184  -8.405  0.00  0.00    +0.001 A 
ATOM     18  C   UNL     1      -0.249   1.809  -8.452  0.00  0.00    +0.004 A 
ATOM     19  C   UNL     1       0.767   1.422  -7.604  0.00  0.00    +0.047 A 
ATOM     20  C   UNL     1       0.552   0.397  -6.691  0.00  0.00    +0.135 A 
ATOM     21  O   UNL     1       1.324  -0.187  -5.753  0.00  0.00    -0.461 OA
ENDBRANCH   5  13
BRANCH   7  22
ATOM     22  C   UNL     1       4.118  -1.891  -2.245  0.00  0.00    -0.047 A 
ATOM     23  C   UNL     1       5.199  -1.272  -1.647  0.00  0.00    +0.003 A 
ATOM     24  C   UNL     1       5.835  -1.873  -0.576  0.00  0.00    +0.000 A 
ATOM     25  C   UNL     1       5.389  -3.093  -0.104  0.00  0.00    +0.000 A 
ATOM     26  C   UNL     1       4.307  -3.712  -0.702  0.00  0.00    +0.000 A 
ATOM     27  C   UNL     1       3.669  -3.109  -1.769  0.00  0.00    +0.003 A 
ENDBRANCH   7  22
BRANCH   1  29
ATOM     28  C   UNL     1       0.863   2.393  -0.026  0.00  0.00    +0.031 C 
ATOM     29  C   UNL     1       0.629   0.890   0.131  0.00  0.00    +0.036 C 
ATOM     30  C   UNL     1       1.401   0.378   1.350  0.00  0.00    +0.031 C 
ATOM     31  C   UNL     1      -0.865   0.623   0.325  0.00  0.00    +0.031 C 
ENDBRANCH   1  29
BRANCH   7  32
ATOM     32  C   UNL     1       4.427  -0.520  -4.280  0.00  0.00    +0.350 C 
ATOM     33  O   UNL     1       4.551  -0.832  -5.452  0.00  0.00    -0.248 OA
ATOM     34  O   UNL     1       5.114   0.371  -3.811  0.00  0.00    -0.248 OA
ENDBRANCH   7  32
TORSDOF 4
