REMARK  Name = ZINC10775370
REMARK  10 active torsions:
REMARK  status: ('A' for Active; 'I' for Inactive)
REMARK    1  A    between atoms: C_1  and  N_61
REMARK    2  A    between atoms: C_2  and  N_61
REMARK    3  A    between atoms: C_3  and  C_4
REMARK    4  A    between atoms: C_3  and  N_61
REMARK    5  A    between atoms: C_4  and  N_5
REMARK    6  A    between atoms: C_9  and  O_15
REMARK    7  A    between atoms: O_15  and  C_16
REMARK    8  A    between atoms: C_17  and  C_19
REMARK    9  A    between atoms: N_25  and  S_26
REMARK   10  A    between atoms: S_26  and  C_29
REMARK                            x       y       z     vdW  Elec       q    Type
REMARK                         _______ _______ _______ _____ _____    ______ ____
ROOT
ATOM      1  N   UNL     1       0.038   1.077   2.088  0.00  0.00    -0.251 N 
ATOM      2  C   UNL     1       1.141   1.815   2.489  0.00  0.00    +0.168 A 
ATOM      3  N   UNL     1       1.913   1.639   3.535  0.00  0.00    -0.221 NA
ATOM      4  C   UNL     1       2.964   2.444   3.805  0.00  0.00    +0.122 A 
ATOM      5  C   UNL     1       3.871   2.364   4.893  0.00  0.00    +0.146 A 
ATOM      6  C   UNL     1       4.895   3.273   5.019  0.00  0.00    +0.048 A 
ATOM      7  C   UNL     1       5.077   4.291   4.094  0.00  0.00    +0.005 A 
ATOM      8  C   UNL     1       4.210   4.396   3.023  0.00  0.00    +0.017 A 
ATOM      9  C   UNL     1       3.183   3.494   2.887  0.00  0.00    +0.044 A 
ATOM     10  S   UNL     1       1.877   3.244   1.708  0.00  0.00    -0.052 S 
ATOM     11  C   UNL     1      -0.364   0.016   2.816  0.00  0.00    +0.240 C 
ATOM     12  O   UNL     1       0.185  -0.242   3.866  0.00  0.00    -0.273 OA
ENDROOT
BRANCH  11  13
ATOM     13  C   UNL     1      -1.496  -0.849   2.325  0.00  0.00    +0.166 C 
ATOM     14  C   UNL     1      -2.678  -0.747   3.294  0.00  0.00    +0.030 C 
ATOM     15  C   UNL     1      -3.767  -1.734   2.869  0.00  0.00    +0.003 C 
ATOM     16  C   UNL     1      -3.218  -3.162   2.922  0.00  0.00    +0.017 C 
ATOM     17  C   UNL     1      -2.043  -3.289   1.947  0.00  0.00    +0.110 C 
ATOM     18  N   UNL     1      -1.053  -2.249   2.261  0.00  0.00    -0.164 NA
BRANCH  18  19
ATOM     19  S   UNL     1       0.530  -2.647   2.536  0.00  0.00    +0.068 S 
ATOM     20  O   UNL     1       0.764  -3.874   1.860  0.00  0.00    -0.152 OA
ATOM     21  O   UNL     1       1.294  -1.477   2.278  0.00  0.00    -0.152 OA
BRANCH  19  22
ATOM     22  C   UNL     1       0.691  -2.982   4.259  0.00  0.00    +0.143 A 
ATOM     23  C   UNL     1       0.540  -4.157   4.917  0.00  0.00    +0.036 A 
ATOM     24  C   UNL     1       0.721  -4.186   6.287  0.00  0.00    +0.010 A 
ATOM     25  C   UNL     1       1.033  -3.036   6.933  0.00  0.00    +0.047 A 
ATOM     26  S   UNL     1       1.088  -1.861   5.590  0.00  0.00    -0.077 S 
ENDBRANCH  19  22
ENDBRANCH  18  19
ENDBRANCH  11  13
BRANCH   5  27
ATOM     27  O   UNL     1       3.726   1.381   5.820  0.00  0.00    -0.493 OA
ATOM     28  C   UNL     1       4.671   1.354   6.891  0.00  0.00    +0.277 C 
ENDBRANCH   5  27
BRANCH   1  29
ATOM     29  C   UNL     1      -0.690   1.450   0.873  0.00  0.00    +0.097 C 
BRANCH  29  30
ATOM     30  C   UNL     1      -0.041   0.776  -0.338  0.00  0.00    -0.060 C 
BRANCH  30  33
ATOM     31  C   UNL     1      -0.045   0.719  -2.759  0.00  0.00    -0.097 C 
ATOM     32  C   UNL     1      -2.135   0.603  -1.541  0.00  0.00    -0.097 C 
ATOM     33  N   UNL     1      -0.774   1.178  -1.557  0.00  0.00    +0.377 N 
ATOM     34  H   UNL     1      -0.845   2.202  -1.581  0.00  0.00    -0.083 HD
ENDBRANCH  30  33
ENDBRANCH  29  30
ENDBRANCH   1  29
TORSDOF 7
