REMARK  Name = ZINC12854445
REMARK  10 active torsions:
REMARK  status: ('A' for Active; 'I' for Inactive)
REMARK    1  A    between atoms: C_1  and  C_2
REMARK    2  A    between atoms: C_2  and  C_3
REMARK    3  A    between atoms: C_2  and  C_4
REMARK    4  A    between atoms: C_4  and  N_5
REMARK    5  A    between atoms: N_5  and  C_6
REMARK    6  A    between atoms: C_7  and  N_22
REMARK    7  A    between atoms: N_8  and  C_15
REMARK    8  A    between atoms: C_15  and  C_16
REMARK    9  A    between atoms: C_23  and  C_25
REMARK   10  A    between atoms: C_25  and  N_26
REMARK                            x       y       z     vdW  Elec       q    Type
REMARK                         _______ _______ _______ _____ _____    ______ ____
ROOT
ATOM      1  N   UNL     1      -0.063  -0.076   2.279  0.00  0.00    -0.263 N 
ATOM      2  C   UNL     1       0.002   1.207   2.692  0.00  0.00    +0.238 C 
ATOM      3  O   UNL     1      -0.649   1.570   3.649  0.00  0.00    -0.274 OA
ENDROOT
BRANCH   1   4
ATOM      4  C   UNL     1      -0.959  -0.972   2.900  0.00  0.00    +0.140 A 
ATOM      5  C   UNL     1      -0.805  -1.309   4.229  0.00  0.00    +0.128 A 
ATOM      6  N   UNL     1      -1.695  -2.186   4.807  0.00  0.00    -0.276 N 
ATOM      7  C   UNL     1      -2.702  -2.708   4.084  0.00  0.00    +0.331 A 
ATOM      8  O   UNL     1      -3.477  -3.482   4.613  0.00  0.00    -0.246 OA
ATOM      9  N   UNL     1      -2.867  -2.391   2.788  0.00  0.00    -0.273 N 
ATOM     10  H   UNL     1      -3.602  -2.781   2.288  0.00  0.00    +0.173 HD
ATOM     11  C   UNL     1      -2.027  -1.533   2.176  0.00  0.00    +0.277 A 
ATOM     12  O   UNL     1      -2.189  -1.248   1.001  0.00  0.00    -0.266 OA
BRANCH   5  13
ATOM     13  N   UNL     1       0.224  -0.776   4.968  0.00  0.00    -0.343 N 
ATOM     14  H   UNL     1       0.810  -0.112   4.573  0.00  0.00    +0.144 HD
ATOM     15  H   UNL     1       0.364  -1.064   5.883  0.00  0.00    +0.144 HD
ENDBRANCH   5  13
BRANCH   6  16
ATOM     16  C   UNL     1      -1.544  -2.553   6.217  0.00  0.00    +0.163 C 
BRANCH  16  17
ATOM     17  C   UNL     1      -2.324  -1.589   7.073  0.00  0.00    -0.028 A 
ATOM     18  C   UNL     1      -1.721  -0.436   7.542  0.00  0.00    +0.005 A 
ATOM     19  C   UNL     1      -2.437   0.448   8.327  0.00  0.00    +0.000 A 
ATOM     20  C   UNL     1      -3.756   0.180   8.643  0.00  0.00    +0.000 A 
ATOM     21  C   UNL     1      -4.359  -0.972   8.174  0.00  0.00    +0.000 A 
ATOM     22  C   UNL     1      -3.645  -1.854   7.385  0.00  0.00    +0.005 A 
ENDBRANCH  16  17
ENDBRANCH   6  16
ENDBRANCH   1   4
BRANCH   1  23
ATOM     23  C   UNL     1       0.795  -0.538   1.186  0.00  0.00    +0.117 C 
BRANCH  23  25
ATOM     24  C   UNL     1       1.847  -2.320   2.588  0.00  0.00    +0.009 C 
ATOM     25  C   UNL     1       2.114  -1.061   1.760  0.00  0.00    +0.001 C 
ATOM     26  C   UNL     1       3.070  -1.399   0.614  0.00  0.00    +0.009 C 
ENDBRANCH  23  25
ENDBRANCH   1  23
BRANCH   2  27
ATOM     27  C   UNL     1       0.885   2.188   1.965  0.00  0.00    +0.212 C 
BRANCH  27  28
ATOM     28  N   UNL     1       0.874   3.472   2.672  0.00  0.00    -0.233 N 
ATOM     29  C   UNL     1      -0.024   4.460   2.411  0.00  0.00    +0.226 C 
ATOM     30  O   UNL     1      -0.775   4.532   1.462  0.00  0.00    -0.275 OA
ATOM     31  C   UNL     1       0.104   5.439   3.534  0.00  0.00    +0.087 C 
ATOM     32  C   UNL     1      -0.114   6.911   3.272  0.00  0.00    +0.013 C 
ATOM     33  C   UNL     1       0.144   7.640   4.604  0.00  0.00    +0.001 C 
ATOM     34  C   UNL     1       1.533   7.345   5.160  0.00  0.00    +0.001 C 
ATOM     35  C   UNL     1       1.799   5.830   5.266  0.00  0.00    +0.013 C 
ATOM     36  C   UNL     1       1.613   5.263   3.879  0.00  0.00    +0.087 C 
ATOM     37  C   UNL     1       1.757   3.789   3.657  0.00  0.00    +0.226 C 
ATOM     38  O   UNL     1       2.508   3.034   4.235  0.00  0.00    -0.275 OA
ENDBRANCH  27  28
ENDBRANCH   2  27
TORSDOF 8
