REMARK  Name = ZINC39841013
REMARK  9 active torsions:
REMARK  status: ('A' for Active; 'I' for Inactive)
REMARK    1  A    between atoms: C_1  and  C_2
REMARK    2  A    between atoms: C_2  and  O_3
REMARK    3  A    between atoms: O_3  and  C_4
REMARK    4  A    between atoms: C_4  and  C_6
REMARK    5  A    between atoms: C_10  and  N_11
REMARK    6  A    between atoms: C_12  and  C_14
REMARK    7  A    between atoms: N_27  and  C_30
REMARK    8  A    between atoms: C_28  and  N_29
REMARK    9  A    between atoms: C_30  and  C_31
REMARK                            x       y       z     vdW  Elec       q    Type
REMARK                         _______ _______ _______ _____ _____    ______ ____
ROOT
ATOM      1  C   UNL     1      -2.558  -2.110  -5.585  0.00  0.00    +0.076 A 
ATOM      2  C   UNL     1      -3.416  -1.696  -4.563  0.00  0.00    +0.033 A 
ATOM      3  C   UNL     1      -4.763  -2.035  -4.664  0.00  0.00    +0.083 A 
ATOM      4  C   UNL     1      -5.223  -2.780  -5.783  0.00  0.00    +0.150 A 
ATOM      5  N   UNL     1      -6.520  -3.095  -5.860  0.00  0.00    -0.211 NA
ATOM      6  C   UNL     1      -7.392  -2.735  -4.926  0.00  0.00    +0.143 A 
ATOM      7  C   UNL     1      -8.743  -3.110  -5.086  0.00  0.00    +0.047 A 
ATOM      8  C   UNL     1      -9.657  -2.754  -4.143  0.00  0.00    +0.005 A 
ATOM      9  C   UNL     1      -9.246  -2.018  -3.021  0.00  0.00    +0.018 A 
ATOM     10  C   UNL     1      -7.950  -1.665  -2.880  0.00  0.00    +0.096 A 
ATOM     11  N   UNL     1      -7.024  -2.017  -3.819  0.00  0.00    -0.268 N 
ATOM     12  C   UNL     1      -5.735  -1.645  -3.641  0.00  0.00    +0.268 A 
ATOM     13  O   UNL     1      -5.395  -1.006  -2.662  0.00  0.00    -0.267 OA
ATOM     14  N   UNL     1      -4.365  -3.153  -6.735  0.00  0.00    -0.309 N 
ATOM     15  C   UNL     1      -3.084  -2.843  -6.673  0.00  0.00    +0.110 A 
ENDROOT
BRANCH   1  17
ATOM     16  N   UNL     1      -0.651  -0.987  -4.554  0.00  0.00    -0.275 N 
ATOM     17  C   UNL     1      -1.125  -1.782  -5.533  0.00  0.00    +0.252 C 
ATOM     18  O   UNL     1      -0.368  -2.228  -6.374  0.00  0.00    -0.270 OA
ATOM     19  H   UNL     1      -1.255  -0.631  -3.883  0.00  0.00    +0.156 HD
BRANCH  16  24
ATOM     20  C   UNL     1       1.358   0.117  -3.578  0.00  0.00    +0.091 A 
ATOM     21  C   UNL     1       2.792   0.280  -3.747  0.00  0.00    -0.021 A 
ATOM     22  C   UNL     1       3.301  -0.375  -4.812  0.00  0.00    -0.004 A 
ATOM     23  S   UNL     1       1.910  -1.177  -5.554  0.00  0.00    -0.077 S 
ATOM     24  C   UNL     1       0.698  -0.678  -4.505  0.00  0.00    +0.087 A 
ATOM     25  C   UNL     1       4.733  -0.402  -5.251  0.00  0.00    +0.043 C 
ATOM     26  C   UNL     1       5.479   0.731  -4.531  0.00  0.00    +0.005 C 
ATOM     27  C   UNL     1       5.135   0.683  -3.040  0.00  0.00    +0.005 C 
ATOM     28  C   UNL     1       3.679   1.107  -2.828  0.00  0.00    +0.037 C 
BRANCH  20  29
ATOM     29  C   UNL     1       0.641   0.758  -2.475  0.00  0.00    +0.342 C 
ATOM     30  O   UNL     1       0.515   0.179  -1.413  0.00  0.00    -0.245 OA
BRANCH  29  31
ATOM     31  O   UNL     1       0.120   1.992  -2.635  0.00  0.00    -0.461 OA
BRANCH  31  33
ATOM     32  C   UNL     1      -1.083   3.950  -1.886  0.00  0.00    +0.048 C 
ATOM     33  C   UNL     1      -0.566   2.558  -1.517  0.00  0.00    +0.229 C 
ENDBRANCH  31  33
ENDBRANCH  29  31
ENDBRANCH  20  29
ENDBRANCH  16  24
ENDBRANCH   1  17
BRANCH  15  34
ATOM     34  N   UNL     1      -2.241  -3.248  -7.686  0.00  0.00    -0.344 N 
ATOM     35  H   UNL     1      -1.308  -3.436  -7.495  0.00  0.00    +0.144 HD
ATOM     36  H   UNL     1      -2.580  -3.346  -8.589  0.00  0.00    +0.144 HD
ENDBRANCH  15  34
BRANCH  14  37
ATOM     37  C   UNL     1      -4.860  -3.921  -7.881  0.00  0.00    +0.151 C 
BRANCH  37  38
ATOM     38  C   UNL     1      -5.282  -2.974  -8.975  0.00  0.00    -0.013 C 
ATOM     39  C   UNL     1      -4.774  -3.095 -10.177  0.00  0.00    +0.005 C 
ENDBRANCH  37  38
ENDBRANCH  14  37
TORSDOF 8
