REMARK  Name = ZINC36641344
REMARK  13 active torsions:
REMARK  status: ('A' for Active; 'I' for Inactive)
REMARK    1  A    between atoms: C_1  and  C_2
REMARK    2  A    between atoms: C_2  and  N_3
REMARK    3  A    between atoms: N_3  and  C_4
REMARK    4  A    between atoms: N_3  and  C_6
REMARK    5  A    between atoms: C_4  and  C_5
REMARK    6  A    between atoms: C_6  and  C_7
REMARK    7  A    between atoms: C_7  and  N_8
REMARK    8  A    between atoms: C_12  and  O_20
REMARK    9  A    between atoms: C_15  and  O_18
REMARK   10  A    between atoms: O_18  and  C_19
REMARK   11  A    between atoms: O_20  and  C_21
REMARK   12  A    between atoms: C_22  and  C_24
REMARK   13  A    between atoms: N_29  and  C_31
REMARK                            x       y       z     vdW  Elec       q    Type
REMARK                         _______ _______ _______ _____ _____    ______ ____
ROOT
ATOM      1  N   UNL     1       2.323  -3.808  -0.230  0.00  0.00    -0.252 N 
ATOM      2  C   UNL     1       1.556  -4.670  -0.998  0.00  0.00    +0.168 A 
ATOM      3  N   UNL     1       0.277  -4.601  -1.283  0.00  0.00    -0.221 NA
ATOM      4  C   UNL     1      -0.346  -5.521  -2.053  0.00  0.00    +0.125 A 
ATOM      5  C   UNL     1      -1.712  -5.564  -2.433  0.00  0.00    +0.147 A 
ATOM      6  C   UNL     1      -2.189  -6.578  -3.228  0.00  0.00    +0.051 A 
ATOM      7  C   UNL     1      -1.358  -7.592  -3.685  0.00  0.00    +0.050 A 
ATOM      8  C   UNL     1      -0.017  -7.581  -3.333  0.00  0.00    +0.136 A 
ATOM      9  C   UNL     1       0.469  -6.567  -2.537  0.00  0.00    +0.086 A 
ATOM     10  S   UNL     1       2.058  -6.152  -1.860  0.00  0.00    -0.048 S 
ATOM     11  C   UNL     1       3.638  -4.048  -0.058  0.00  0.00    +0.226 C 
ATOM     12  O   UNL     1       4.167  -4.971  -0.640  0.00  0.00    -0.275 OA
ENDROOT
BRANCH  11  13
ATOM     13  C   UNL     1       4.451  -3.170   0.858  0.00  0.00    +0.102 C 
ATOM     14  C   UNL     1       4.984  -1.928   0.106  0.00  0.00    +0.110 C 
ATOM     15  C   UNL     1       6.364  -1.707   0.685  0.00  0.00    +0.221 C 
ATOM     16  O   UNL     1       7.007  -0.685   0.576  0.00  0.00    -0.275 OA
ATOM     17  N   UNL     1       6.772  -2.808   1.339  0.00  0.00    -0.271 N 
ATOM     18  C   UNL     1       5.762  -3.872   1.277  0.00  0.00    +0.127 C 
BRANCH  17  19
ATOM     19  C   UNL     1       8.003  -2.926   1.996  0.00  0.00    +0.036 A 
ATOM     20  C   UNL     1       8.840  -1.823   2.107  0.00  0.00    +0.026 A 
ATOM     21  C   UNL     1      10.054  -1.941   2.755  0.00  0.00    +0.040 A 
ATOM     22  C   UNL     1      10.436  -3.158   3.294  0.00  0.00    +0.124 A 
ATOM     23  C   UNL     1       9.603  -4.258   3.185  0.00  0.00    +0.040 A 
ATOM     24  C   UNL     1       8.386  -4.143   2.543  0.00  0.00    +0.026 A 
ATOM     25  F   UNL     1      11.624  -3.272   3.928  0.00  0.00    -0.205 F 
ENDBRANCH  17  19
ENDBRANCH  11  13
BRANCH   8  26
ATOM     26  O   UNL     1       0.814  -8.565  -3.771  0.00  0.00    -0.494 OA
ATOM     27  C   UNL     1       0.238  -9.582  -4.593  0.00  0.00    +0.277 C 
ENDBRANCH   8  26
BRANCH   5  28
ATOM     28  O   UNL     1      -2.560  -4.590  -2.005  0.00  0.00    -0.493 OA
ATOM     29  C   UNL     1      -3.924  -4.688  -2.421  0.00  0.00    +0.277 C 
ENDBRANCH   5  28
BRANCH   1  30
ATOM     30  C   UNL     1       1.704  -2.636   0.395  0.00  0.00    +0.097 C 
BRANCH  30  31
ATOM     31  C   UNL     1       1.229  -3.001   1.803  0.00  0.00    -0.059 C 
BRANCH  31  32
ATOM     32  N   UNL     1       0.608  -1.826   2.430  0.00  0.00    +0.380 N 
ATOM     33  H   UNL     1       1.257  -1.054   2.412  0.00  0.00    -0.082 HD
BRANCH  32  35
ATOM     34  C   UNL     1      -1.165  -0.147   2.242  0.00  0.00    -0.017 C 
ATOM     35  C   UNL     1      -0.608  -1.462   1.691  0.00  0.00    -0.082 C 
ENDBRANCH  32  35
BRANCH  32  36
ATOM     36  C   UNL     1       0.260  -2.141   3.822  0.00  0.00    -0.082 C 
ATOM     37  C   UNL     1       1.539  -2.362   4.631  0.00  0.00    -0.017 C 
ENDBRANCH  32  36
ENDBRANCH  31  32
ENDBRANCH  30  31
ENDBRANCH   1  30
TORSDOF 9
