REMARK  Name = ZINC67236239
REMARK  8 active torsions:
REMARK  status: ('A' for Active; 'I' for Inactive)
REMARK    1  A    between atoms: C_1  and  C_2
REMARK    2  A    between atoms: N_10  and  C_28
REMARK    3  A    between atoms: C_11  and  S_13
REMARK    4  A    between atoms: S_13  and  C_14
REMARK    5  A    between atoms: C_14  and  C_15
REMARK    6  A    between atoms: N_17  and  C_18
REMARK    7  A    between atoms: C_23  and  C_24
REMARK    8  A    between atoms: C_28  and  C_29
REMARK                            x       y       z     vdW  Elec       q    Type
REMARK                         _______ _______ _______ _____ _____    ______ ____
ROOT
ATOM      1  C   UNL     1       0.059   1.505   0.008  0.00  0.00    +0.063 C 
ATOM      2  C   UNL     1       0.068  -0.002   0.000  0.00  0.00    +0.016 A 
ATOM      3  C   UNL     1       0.065  -0.774  -1.105  0.00  0.00    +0.051 A 
ATOM      4  C   UNL     1       0.076  -2.125  -0.691  0.00  0.00    +0.097 A 
ATOM      5  C   UNL     1       0.087  -2.114   0.709  0.00  0.00    +0.131 A 
ATOM      6  N   UNL     1       0.088  -0.793   1.108  0.00  0.00    -0.353 N 
ATOM      7  H   UNL     1       0.098  -0.481   2.026  0.00  0.00    +0.166 HD
ATOM      8  C   UNL     1       0.100  -3.342   1.395  0.00  0.00    +0.279 A 
ATOM      9  O   UNL     1       0.109  -3.375   2.614  0.00  0.00    -0.265 OA
ATOM     10  N   UNL     1       0.102  -4.484   0.673  0.00  0.00    -0.279 N 
ATOM     11  C   UNL     1       0.092  -4.439  -0.692  0.00  0.00    +0.173 A 
ATOM     12  N   UNL     1       0.079  -3.302  -1.347  0.00  0.00    -0.221 NA
ENDROOT
BRANCH  11  13
ATOM     13  S   UNL     1       0.096  -5.950  -1.598  0.00  0.00    -0.078 S 
BRANCH  13  14
ATOM     14  C   UNL     1       0.080  -5.420  -3.333  0.00  0.00    +0.173 C 
BRANCH  14  15
ATOM     15  C   UNL     1       0.082  -6.633  -4.229  0.00  0.00    +0.227 C 
ATOM     16  O   UNL     1       0.093  -7.745  -3.744  0.00  0.00    -0.275 OA
ATOM     17  N   UNL     1       0.071  -6.481  -5.568  0.00  0.00    -0.284 N 
ATOM     18  H   UNL     1      -0.018  -5.597  -5.955  0.00  0.00    +0.155 HD
BRANCH  17  19
ATOM     19  C   UNL     1       0.190  -7.601  -6.399  0.00  0.00    +0.045 A 
ATOM     20  C   UNL     1       0.815  -8.751  -5.934  0.00  0.00    +0.024 A 
ATOM     21  C   UNL     1       0.930  -9.853  -6.756  0.00  0.00    +0.002 A 
ATOM     22  C   UNL     1       0.425  -9.814  -8.043  0.00  0.00    +0.001 A 
ATOM     23  C   UNL     1      -0.197  -8.670  -8.510  0.00  0.00    +0.014 A 
ATOM     24  C   UNL     1      -0.321  -7.566  -7.690  0.00  0.00    +0.076 A 
BRANCH  24  25
ATOM     25  C   UNL     1      -1.006  -6.323  -8.197  0.00  0.00    +0.419 C 
ATOM     26  F   UNL     1      -1.432  -6.529  -9.513  0.00  0.00    -0.166 F 
ATOM     27  F   UNL     1      -2.111  -6.036  -7.388  0.00  0.00    -0.166 F 
ATOM     28  F   UNL     1      -0.109  -5.249  -8.160  0.00  0.00    -0.166 F 
ENDBRANCH  24  25
ENDBRANCH  17  19
ENDBRANCH  14  15
ENDBRANCH  13  14
ENDBRANCH  11  13
BRANCH  10  29
ATOM     29  C   UNL     1       0.116  -5.779   1.359  0.00  0.00    +0.201 C 
BRANCH  29  30
ATOM     30  C   UNL     1      -1.300  -6.232   1.604  0.00  0.00    +0.125 A 
ATOM     31  C   UNL     1      -2.042  -6.984   0.771  0.00  0.00    +0.046 A 
ATOM     32  C   UNL     1      -3.297  -7.169   1.394  0.00  0.00    +0.041 A 
ATOM     33  C   UNL     1      -3.248  -6.519   2.571  0.00  0.00    +0.195 A 
ATOM     34  O   UNL     1      -2.034  -5.959   2.695  0.00  0.00    -0.466 OA
ENDBRANCH  29  30
ENDBRANCH  10  29
TORSDOF 7
