REMARK  Name = ZINC09667324
REMARK  8 active torsions:
REMARK  status: ('A' for Active; 'I' for Inactive)
REMARK    1  A    between atoms: C_1  and  C_2
REMARK    2  A    between atoms: C_3  and  C_12
REMARK    3  A    between atoms: N_22  and  C_23
REMARK    4  A    between atoms: C_23  and  C_25
REMARK    5  A    between atoms: C_23  and  C_26
REMARK    6  A    between atoms: N_28  and  C_29
REMARK    7  A    between atoms: C_29  and  C_30
REMARK    8  A    between atoms: C_30  and  C_31
REMARK                            x       y       z     vdW  Elec       q    Type
REMARK                         _______ _______ _______ _____ _____    ______ ____
ROOT
ATOM      1  C   UNL     1      -3.715   0.570   0.428  0.00  0.00    +0.141 C 
ATOM      2  C   UNL     1      -2.316   0.209   0.860  0.00  0.00    -0.010 A 
ATOM      3  C   UNL     1      -1.678  -0.990   1.083  0.00  0.00    +0.006 A 
ATOM      4  C   UNL     1      -0.351  -1.004   1.479  0.00  0.00    +0.000 A 
ATOM      5  C   UNL     1       0.335   0.184   1.656  0.00  0.00    +0.001 A 
ATOM      6  C   UNL     1      -0.297   1.392   1.441  0.00  0.00    +0.013 A 
ATOM      7  C   UNL     1      -1.634   1.414   1.042  0.00  0.00    +0.042 A 
ATOM      8  C   UNL     1      -2.563   2.521   0.740  0.00  0.00    +0.248 C 
ATOM      9  O   UNL     1      -2.279   3.701   0.798  0.00  0.00    -0.270 OA
ATOM     10  N   UNL     1      -3.763   2.036   0.376  0.00  0.00    -0.275 N 
ENDROOT
BRANCH   1  13
ATOM     11  C   UNL     1      -5.618  -1.848   0.025  0.00  0.00    +0.063 C 
ATOM     12  C   UNL     1      -5.543  -0.992   1.263  0.00  0.00    +0.019 A 
ATOM     13  C   UNL     1      -4.716   0.052   1.428  0.00  0.00    +0.005 A 
ATOM     14  C   UNL     1      -4.976   0.598   2.763  0.00  0.00    +0.005 A 
ATOM     15  C   UNL     1      -4.450   1.664   3.495  0.00  0.00    +0.010 A 
ATOM     16  C   UNL     1      -4.919   1.921   4.752  0.00  0.00    +0.001 A 
ATOM     17  C   UNL     1      -5.915   1.129   5.308  0.00  0.00    +0.002 A 
ATOM     18  C   UNL     1      -6.448   0.072   4.603  0.00  0.00    +0.026 A 
ATOM     19  C   UNL     1      -5.985  -0.207   3.321  0.00  0.00    +0.047 A 
ATOM     20  N   UNL     1      -6.305  -1.166   2.386  0.00  0.00    -0.358 N 
ATOM     21  H   UNL     1      -6.974  -1.858   2.504  0.00  0.00    +0.166 HD
ENDBRANCH   1  13
BRANCH  10  22
ATOM     22  C   UNL     1      -4.930   2.838   0.003  0.00  0.00    +0.160 C 
ATOM     23  C   UNL     1      -4.599   3.674  -1.236  0.00  0.00    +0.038 C 
BRANCH  22  24
ATOM     24  C   UNL     1      -5.296   3.754   1.143  0.00  0.00    +0.233 C 
ATOM     25  O   UNL     1      -4.442   4.127   1.919  0.00  0.00    -0.274 OA
ATOM     26  N   UNL     1      -6.572   4.158   1.300  0.00  0.00    -0.313 N 
ATOM     27  H   UNL     1      -7.255   3.860   0.679  0.00  0.00    +0.149 HD
BRANCH  26  28
ATOM     28  C   UNL     1      -6.927   5.048   2.408  0.00  0.00    +0.109 C 
BRANCH  28  29
ATOM     29  C   UNL     1      -8.426   5.351   2.358  0.00  0.00    +0.054 C 
BRANCH  29  30
ATOM     30  C   UNL     1      -8.792   6.266   3.498  0.00  0.00    -0.046 A 
ATOM     31  C   UNL     1      -9.181   5.735   4.714  0.00  0.00    +0.004 A 
ATOM     32  C   UNL     1      -9.511   6.574   5.761  0.00  0.00    +0.000 A 
ATOM     33  C   UNL     1      -9.463   7.945   5.590  0.00  0.00    +0.000 A 
ATOM     34  C   UNL     1      -9.080   8.476   4.372  0.00  0.00    +0.000 A 
ATOM     35  C   UNL     1      -8.744   7.637   3.327  0.00  0.00    +0.004 A 
ENDBRANCH  29  30
ENDBRANCH  28  29
ENDBRANCH  26  28
ENDBRANCH  22  24
ENDBRANCH  10  22
TORSDOF 6
