REMARK  Name = ZINC16449973
REMARK  10 active torsions:
REMARK  status: ('A' for Active; 'I' for Inactive)
REMARK    1  A    between atoms: C_5  and  C_7
REMARK    2  A    between atoms: C_7  and  O_8
REMARK    3  A    between atoms: O_8  and  C_9
REMARK    4  A    between atoms: C_14  and  C_15
REMARK    5  A    between atoms: C_15  and  N_50
REMARK    6  A    between atoms: C_16  and  C_17
REMARK    7  A    between atoms: C_16  and  N_50
REMARK    8  A    between atoms: C_17  and  N_18
REMARK    9  A    between atoms: N_18  and  C_19
REMARK   10  A    between atoms: C_22  and  N_25
REMARK                            x       y       z     vdW  Elec       q    Type
REMARK                         _______ _______ _______ _____ _____    ______ ____
ROOT
ATOM      1  C   UNL     1       3.341  -6.466  -0.063  0.00  0.00    -0.043 C 
ENDROOT
BRANCH   1   7
ATOM      2  C   UNL     1       5.402  -7.299   1.094  0.00  0.00    +0.122 A 
ATOM      3  C   UNL     1       6.629  -7.947   1.077  0.00  0.00    +0.047 A 
ATOM      4  C   UNL     1       7.131  -8.443  -0.110  0.00  0.00    +0.019 A 
ATOM      5  C   UNL     1       6.409  -8.300  -1.281  0.00  0.00    +0.018 A 
ATOM      6  C   UNL     1       5.182  -7.660  -1.265  0.00  0.00    +0.020 A 
ATOM      7  C   UNL     1       4.677  -7.162  -0.080  0.00  0.00    -0.022 A 
ATOM      8 BR   UNL     1       7.098  -8.980  -2.905  0.00  0.00    -0.050 Br
BRANCH   2   9
ATOM      9  O   UNL     1       4.910  -6.805   2.261  0.00  0.00    -0.487 OA
BRANCH   9  10
ATOM     10  C   UNL     1       5.711  -6.982   3.430  0.00  0.00    +0.266 C 
BRANCH  10  15
ATOM     11  C   UNL     1       3.133  -5.211   5.544  0.00  0.00    +0.000 A 
ATOM     12  C   UNL     1       3.720  -5.261   6.795  0.00  0.00    +0.001 A 
ATOM     13  C   UNL     1       4.951  -5.867   6.958  0.00  0.00    +0.020 A 
ATOM     14  C   UNL     1       5.596  -6.425   5.869  0.00  0.00    +0.047 A 
ATOM     15  C   UNL     1       5.009  -6.375   4.617  0.00  0.00    +0.008 A 
ATOM     16  C   UNL     1       3.780  -5.764   4.455  0.00  0.00    +0.008 A 
ATOM     17 CL   UNL     1       7.143  -7.186   6.072  0.00  0.00    -0.083 Cl
ENDBRANCH  10  15
ENDBRANCH   9  10
ENDBRANCH   2   9
ENDBRANCH   1   7
BRANCH   1  18
ATOM     18  N   UNL     1       3.556  -5.006  -0.058  0.00  0.00    +0.383 N 
ATOM     19  H   UNL     1       4.079  -4.739  -0.900  0.00  0.00    -0.085 HD
ATOM     20  H   UNL     1       4.095  -4.747   0.777  0.00  0.00    -0.085 HD
BRANCH  18  21
ATOM     21  C   UNL     1       2.263  -4.298  -0.042  0.00  0.00    -0.063 C 
BRANCH  21  22
ATOM     22  C   UNL     1       2.518  -2.789  -0.037  0.00  0.00    +0.082 C 
BRANCH  22  23
ATOM     23  N   UNL     1       1.238  -2.077  -0.021  0.00  0.00    -0.346 N 
ATOM     24  H   UNL     1       0.406  -2.576  -0.015  0.00  0.00    +0.146 HD
BRANCH  23  25
ATOM     25  C   UNL     1       1.215  -0.681  -0.013  0.00  0.00    +0.027 A 
ATOM     26  C   UNL     1       0.002  -0.004   0.002  0.00  0.00    +0.025 A 
ATOM     27  C   UNL     1      -0.017   1.377   0.010  0.00  0.00    +0.034 A 
ATOM     28  C   UNL     1       1.171   2.086   0.002  0.00  0.00    +0.126 A 
ATOM     29  C   UNL     1       2.380   1.416  -0.013  0.00  0.00    +0.034 A 
ATOM     30  C   UNL     1       2.406   0.035  -0.021  0.00  0.00    +0.025 A 
BRANCH  28  31
ATOM     31  N   UNL     1       1.147   3.566   0.010  0.00  0.00    +0.056 N 
ATOM     32  O   UNL     1       0.082   4.158   0.023  0.00  0.00    -0.126 OA
ATOM     33  O   UNL     1       2.191   4.192   0.003  0.00  0.00    -0.126 OA
ENDBRANCH  28  31
ENDBRANCH  23  25
ENDBRANCH  22  23
ENDBRANCH  21  22
ENDBRANCH  18  21
ENDBRANCH   1  18
TORSDOF 10
