REMARK  Name = ZINC64044121
REMARK  10 active torsions:
REMARK  status: ('A' for Active; 'I' for Inactive)
REMARK    1  A    between atoms: C_1  and  C_2
REMARK    2  A    between atoms: C_10  and  C_12
REMARK    3  A    between atoms: N_14  and  C_15
REMARK    4  A    between atoms: N_14  and  C_31
REMARK    5  A    between atoms: C_15  and  C_16
REMARK    6  A    between atoms: C_19  and  O_24
REMARK    7  A    between atoms: C_20  and  O_22
REMARK    8  A    between atoms: O_22  and  C_23
REMARK    9  A    between atoms: O_24  and  C_25
REMARK   10  A    between atoms: C_31  and  C_32
REMARK                            x       y       z     vdW  Elec       q    Type
REMARK                         _______ _______ _______ _____ _____    ______ ____
ROOT
ATOM      1  C   UNL     1       0.776  -0.329   0.844  0.00  0.00    +0.243 C 
ATOM      2  O   UNL     1       1.679  -1.089   0.564  0.00  0.00    -0.273 OA
ATOM      3  N   UNL     1       0.723   0.233   2.068  0.00  0.00    -0.291 N 
ENDROOT
BRANCH   1  13
ATOM      4  C   UNL     1       0.310   2.610  -0.408  0.00  0.00    +0.042 C 
ATOM      5  C   UNL     1       0.089   1.224  -0.957  0.00  0.00    -0.033 C 
ATOM      6  C   UNL     1       0.195   0.834  -2.248  0.00  0.00    +0.001 A 
ATOM      7  C   UNL     1       0.533   1.557  -3.480  0.00  0.00    +0.030 A 
ATOM      8  C   UNL     1       0.558   0.881  -4.652  0.00  0.00    +0.042 A 
ATOM      9  C   UNL     1       0.269  -0.490  -4.718  0.00  0.00    +0.022 A 
ATOM     10  C   UNL     1      -0.050  -1.221  -3.629  0.00  0.00    +0.027 A 
ATOM     11  C   UNL     1      -0.105  -0.612  -2.345  0.00  0.00    +0.043 A 
ATOM     12  N   UNL     1      -0.385  -1.098  -1.160  0.00  0.00    -0.370 N 
ATOM     13  C   UNL     1      -0.288  -0.015  -0.176  0.00  0.00    +0.193 C 
ATOM     14 CL   UNL     1       0.957   1.732  -6.112  0.00  0.00    -0.084 Cl
ATOM     15  H   UNL     1      -0.615  -2.020  -0.967  0.00  0.00    +0.161 HD
ENDBRANCH   1  13
BRANCH   3  16
ATOM     16  C   UNL     1       1.822   0.028   3.016  0.00  0.00    +0.143 C 
BRANCH  16  17
ATOM     17  C   UNL     1       2.849   1.117   2.837  0.00  0.00    -0.026 A 
ATOM     18  C   UNL     1       3.888   0.944   1.941  0.00  0.00    +0.009 A 
ATOM     19  C   UNL     1       4.832   1.939   1.774  0.00  0.00    +0.050 A 
ATOM     20  C   UNL     1       4.738   3.114   2.503  0.00  0.00    +0.162 A 
ATOM     21  C   UNL     1       3.692   3.288   3.404  0.00  0.00    +0.162 A 
ATOM     22  C   UNL     1       2.746   2.288   3.563  0.00  0.00    +0.054 A 
BRANCH  21  23
ATOM     23  O   UNL     1       3.595   4.439   4.122  0.00  0.00    -0.491 OA
ATOM     24  C   UNL     1       2.495   4.548   5.027  0.00  0.00    +0.277 C 
ENDBRANCH  21  23
BRANCH  20  25
ATOM     25  O   UNL     1       5.667   4.094   2.339  0.00  0.00    -0.483 OA
BRANCH  25  26
ATOM     26  C   UNL     1       6.761   3.811   1.465  0.00  0.00    +0.201 C 
ATOM     27  C   UNL     1       7.936   4.782   1.736  0.00  0.00    +0.075 C 
ATOM     28  C   UNL     1       8.432   5.099   0.303  0.00  0.00    +0.163 C 
ATOM     29  O   UNL     1       7.215   5.154  -0.471  0.00  0.00    -0.376 OA
ATOM     30  C   UNL     1       6.369   4.088   0.001  0.00  0.00    +0.204 C 
ENDBRANCH  25  26
ENDBRANCH  20  25
ENDBRANCH  16  17
ENDBRANCH   3  16
BRANCH   3  31
ATOM     31  C   UNL     1      -0.432   1.048   2.451  0.00  0.00    +0.144 C 
BRANCH  31  32
ATOM     32  C   UNL     1      -1.418   0.197   3.209  0.00  0.00    -0.012 A 
ATOM     33  C   UNL     1      -2.486  -0.396   2.551  0.00  0.00    +0.008 A 
ATOM     34  C   UNL     1      -3.368  -1.171   3.289  0.00  0.00    +0.020 A 
ATOM     35  C   UNL     1      -3.155  -1.325   4.646  0.00  0.00    +0.111 A 
ATOM     36  N   UNL     1      -2.129  -0.746   5.239  0.00  0.00    -0.263 NA
ATOM     37  C   UNL     1      -1.267  -0.007   4.567  0.00  0.00    +0.115 A 
ENDBRANCH  31  32
ENDBRANCH   3  31
TORSDOF 8
