REMARK  Name = ZINC04428065
REMARK  11 active torsions:
REMARK  status: ('A' for Active; 'I' for Inactive)
REMARK    1  A    between atoms: C_1  and  C_2
REMARK    2  A    between atoms: C_2  and  C_3
REMARK    3  A    between atoms: C_3  and  C_4
REMARK    4  A    between atoms: C_4  and  C_5
REMARK    5  A    between atoms: C_5  and  N_6
REMARK    6  A    between atoms: N_6  and  S_22
REMARK    7  A    between atoms: N_12  and  C_13
REMARK    8  A    between atoms: C_14  and  C_21
REMARK    9  A    between atoms: C_16  and  C_20
REMARK   10  A    between atoms: C_18  and  C_19
REMARK   11  A    between atoms: S_22  and  C_25
REMARK                            x       y       z     vdW  Elec       q    Type
REMARK                         _______ _______ _______ _____ _____    ______ ____
ROOT
ATOM      1  N   UNL     1      -0.894  -1.060   1.331  0.00  0.00    -0.155 N 
ATOM      2  C   UNL     1       0.253  -0.361   1.224  0.00  0.00    +0.329 C 
ATOM      3  O   UNL     1       0.400   0.665   1.858  0.00  0.00    -0.251 OA
ATOM      4  N   UNL     1       1.236  -0.799   0.413  0.00  0.00    -0.222 N 
ATOM      5  C   UNL     1       2.338  -0.046   0.222  0.00  0.00    +0.311 C 
ATOM      6  O   UNL     1       2.444   1.028   0.780  0.00  0.00    -0.252 OA
ATOM      7  N   UNL     1       3.321  -0.484  -0.589  0.00  0.00    -0.269 N 
ATOM      8  H   UNL     1       1.153  -1.658  -0.029  0.00  0.00    +0.161 HD
ATOM      9  H   UNL     1       3.269  -1.371  -0.979  0.00  0.00    +0.156 HD
ENDROOT
BRANCH   7  10
ATOM     10  C   UNL     1       4.418   0.339  -0.867  0.00  0.00    +0.041 A 
ATOM     11  C   UNL     1       4.216   1.639  -1.312  0.00  0.00    -0.029 A 
ATOM     12  C   UNL     1       5.301   2.451  -1.579  0.00  0.00    +0.008 A 
ATOM     13  C   UNL     1       6.586   1.968  -1.417  0.00  0.00    -0.050 A 
ATOM     14  C   UNL     1       6.790   0.672  -0.979  0.00  0.00    +0.008 A 
ATOM     15  C   UNL     1       5.710  -0.144  -0.704  0.00  0.00    -0.029 A 
ATOM     16  C   UNL     1       5.933  -1.556  -0.227  0.00  0.00    +0.045 C 
ATOM     17  C   UNL     1       7.767   2.854  -1.716  0.00  0.00    +0.044 C 
ATOM     18  C   UNL     1       2.816   2.165  -1.496  0.00  0.00    +0.045 C 
ENDBRANCH   7  10
BRANCH   1  19
ATOM     19  S   UNL     1      -2.154  -0.454   2.219  0.00  0.00    +0.078 S 
ATOM     20  O   UNL     1      -3.028  -1.544   2.479  0.00  0.00    -0.150 OA
ATOM     21  O   UNL     1      -1.580   0.327   3.258  0.00  0.00    -0.150 OA
BRANCH  19  22
ATOM     22  C   UNL     1      -3.035   0.662   1.179  0.00  0.00    +0.109 A 
ATOM     23  C   UNL     1      -2.688   2.000   1.149  0.00  0.00    +0.029 A 
ATOM     24  C   UNL     1      -3.377   2.874   0.329  0.00  0.00    +0.002 A 
ATOM     25  C   UNL     1      -4.418   2.413  -0.454  0.00  0.00    +0.000 A 
ATOM     26  C   UNL     1      -4.769   1.076  -0.420  0.00  0.00    +0.002 A 
ATOM     27  C   UNL     1      -4.077   0.201   0.396  0.00  0.00    +0.029 A 
ENDBRANCH  19  22
ENDBRANCH   1  19
BRANCH   1  28
ATOM     28  C   UNL     1      -1.027  -2.357   0.662  0.00  0.00    +0.136 C 
BRANCH  28  29
ATOM     29  C   UNL     1      -0.446  -3.454   1.556  0.00  0.00    +0.021 C 
BRANCH  29  30
ATOM     30  C   UNL     1      -0.584  -4.808   0.857  0.00  0.00    +0.001 C 
BRANCH  30  32
ATOM     31  C   UNL     1      -0.141  -7.259   1.053  0.00  0.00    +0.004 C 
ATOM     32  C   UNL     1      -0.003  -5.905   1.752  0.00  0.00    -0.003 C 
ENDBRANCH  30  32
ENDBRANCH  29  30
ENDBRANCH  28  29
ENDBRANCH   1  28
TORSDOF 7
