REMARK  Name = ZINC50988415
REMARK  4 active torsions:
REMARK  status: ('A' for Active; 'I' for Inactive)
REMARK    1  A    between atoms: C_1  and  C_2
REMARK    2  A    between atoms: C_2  and  C_3
REMARK    3  A    between atoms: C_5  and  C_12
REMARK    4  A    between atoms: N_7  and  C_8
REMARK                            x       y       z     vdW  Elec       q    Type
REMARK                         _______ _______ _______ _____ _____    ______ ____
ROOT
ATOM      1  C   UNL     1       0.692  -0.595  -1.212  0.00  0.00    +0.076 C 
ATOM      2  N   UNL     1       0.094  -0.801  -2.332  0.00  0.00    -0.363 N 
ATOM      3  C   UNL     1       1.112  -1.121  -3.344  0.00  0.00    +0.172 C 
ATOM      4  C   UNL     1       2.420  -1.057  -2.577  0.00  0.00    +0.101 C 
ATOM      5  N   UNL     1       2.050  -0.723  -1.292  0.00  0.00    -0.276 N 
ATOM      6  N   UNL     1       3.613  -1.264  -3.029  0.00  0.00    -0.388 N 
ATOM      7  H   UNL     1       3.740  -1.565  -3.942  0.00  0.00    +0.157 HD
ATOM      8  H   UNL     1       4.381  -1.117  -2.455  0.00  0.00    +0.157 HD
ATOM      9  H   UNL     1      -0.863  -0.753  -2.482  0.00  0.00    +0.162 HD
ENDROOT
BRANCH   3  10
ATOM     10  C   UNL     1       1.098  -0.098  -4.451  0.00  0.00    -0.017 A 
ATOM     11  C   UNL     1       0.900   1.238  -4.155  0.00  0.00    +0.007 A 
ATOM     12  C   UNL     1       0.886   2.176  -5.169  0.00  0.00    +0.022 A 
ATOM     13  C   UNL     1       1.070   1.780  -6.481  0.00  0.00    +0.059 A 
ATOM     14  C   UNL     1       1.268   0.442  -6.778  0.00  0.00    +0.060 A 
ATOM     15  C   UNL     1       1.287  -0.496  -5.761  0.00  0.00    +0.027 A 
ATOM     16 CL   UNL     1       1.499  -0.058  -8.424  0.00  0.00    -0.082 Cl
ATOM     17 CL   UNL     1       1.052   2.958  -7.756  0.00  0.00    -0.082 Cl
ENDBRANCH   3  10
BRANCH   5  18
ATOM     18  C   UNL     1       2.978  -0.538  -0.173  0.00  0.00    +0.081 C 
ATOM     19  C   UNL     1       4.064  -1.597   0.027  0.00  0.00    +0.025 C 
ATOM     20  C   UNL     1       2.881  -1.521   0.995  0.00  0.00    +0.025 C 
ENDBRANCH   5  18
BRANCH   1  22
ATOM     21  C   UNL     1      -0.158   1.281   0.169  0.00  0.00    +0.011 C 
ATOM     22  C   UNL     1      -0.033  -0.240   0.061  0.00  0.00    +0.066 C 
ENDBRANCH   1  22
TORSDOF 3
