REMARK  Name = ZINC01933488
REMARK  8 active torsions:
REMARK  status: ('A' for Active; 'I' for Inactive)
REMARK    1  A    between atoms: C_1  and  C_2
REMARK    2  A    between atoms: C_9  and  N_24
REMARK    3  A    between atoms: C_10  and  C_11
REMARK    4  A    between atoms: N_13  and  C_14
REMARK    5  A    between atoms: C_17  and  C_20
REMARK    6  A    between atoms: C_20  and  O_22
REMARK    7  A    between atoms: O_22  and  C_23
REMARK    8  A    between atoms: C_25  and  C_27
REMARK                            x       y       z     vdW  Elec       q    Type
REMARK                         _______ _______ _______ _____ _____    ______ ____
ROOT
ATOM      1  C   UNL     1      -8.888   7.343   5.219  0.00  0.00    +0.008 C 
ATOM      2  C   UNL     1      -7.991   7.233   3.984  0.00  0.00    -0.009 C 
ATOM      3  C   UNL     1      -7.280   5.877   3.982  0.00  0.00    +0.008 C 
ATOM      4  C   UNL     1      -6.202   5.856   2.897  0.00  0.00    +0.037 C 
ATOM      5  C   UNL     1      -6.833   6.272   1.573  0.00  0.00    -0.023 A 
ATOM      6  C   UNL     1      -8.009   6.937   1.542  0.00  0.00    -0.004 A 
ATOM      7  S   UNL     1      -8.331   7.207  -0.178  0.00  0.00    -0.077 S 
ATOM      8  C   UNL     1      -6.920   6.455  -0.848  0.00  0.00    +0.085 A 
ATOM      9  C   UNL     1      -6.234   6.013   0.275  0.00  0.00    +0.069 A 
ATOM     10  C   UNL     1      -8.847   7.344   2.714  0.00  0.00    +0.046 C 
ENDROOT
BRANCH   9  11
ATOM     11  C   UNL     1      -4.955   5.307   0.155  0.00  0.00    +0.251 C 
ATOM     12  O   UNL     1      -3.912   5.933   0.154  0.00  0.00    -0.270 OA
ATOM     13  N   UNL     1      -4.936   3.964   0.046  0.00  0.00    -0.281 N 
ATOM     14  H   UNL     1      -5.768   3.471  -0.030  0.00  0.00    +0.155 HD
BRANCH  13  15
ATOM     15  C   UNL     1      -3.720   3.283   0.043  0.00  0.00    +0.034 A 
ATOM     16  C   UNL     1      -3.574   2.126  -0.716  0.00  0.00    +0.024 A 
ATOM     17  C   UNL     1      -2.375   1.451  -0.721  0.00  0.00    +0.017 A 
ATOM     18  C   UNL     1      -1.302   1.930   0.036  0.00  0.00    +0.059 A 
ATOM     19  C   UNL     1      -1.453   3.090   0.802  0.00  0.00    +0.017 A 
ATOM     20  C   UNL     1      -2.654   3.763   0.799  0.00  0.00    +0.024 A 
BRANCH  18  21
ATOM     21  C   UNL     1      -0.015   1.210   0.033  0.00  0.00    +0.339 C 
ATOM     22  O   UNL     1       0.114   0.199  -0.629  0.00  0.00    -0.245 OA
BRANCH  21  23
ATOM     23  O   UNL     1       1.020   1.676   0.759  0.00  0.00    -0.464 OA
ATOM     24  C   UNL     1       2.258   0.919   0.703  0.00  0.00    +0.280 C 
ENDBRANCH  21  23
ENDBRANCH  18  21
ENDBRANCH  13  15
ENDBRANCH   9  11
BRANCH   8  25
ATOM     25  N   UNL     1      -6.565   6.327  -2.180  0.00  0.00    -0.275 N 
ATOM     26  C   UNL     1      -7.366   6.824  -3.143  0.00  0.00    +0.255 C 
ATOM     27  O   UNL     1      -8.403   7.386  -2.841  0.00  0.00    -0.269 OA
ATOM     28  H   UNL     1      -5.739   5.878  -2.420  0.00  0.00    +0.156 HD
BRANCH  26  29
ATOM     29  C   UNL     1      -6.990   6.688  -4.552  0.00  0.00    +0.074 A 
ATOM     30  C   UNL     1      -7.664   7.123  -5.683  0.00  0.00    +0.021 A 
ATOM     31  C   UNL     1      -7.081   6.862  -6.897  0.00  0.00    +0.008 A 
ATOM     32  C   UNL     1      -5.893   6.203  -6.935  0.00  0.00    +0.046 A 
ATOM     33  S   UNL     1      -5.540   5.926  -5.261  0.00  0.00    -0.092 S 
ENDBRANCH  26  29
ENDBRANCH   8  25
TORSDOF 6
