REMARK  Name = ZINC59884795
REMARK  10 active torsions:
REMARK  status: ('A' for Active; 'I' for Inactive)
REMARK    1  A    between atoms: C_1  and  S_2
REMARK    2  A    between atoms: S_2  and  C_3
REMARK    3  A    between atoms: C_8  and  N_9
REMARK    4  A    between atoms: C_10  and  C_12
REMARK    5  A    between atoms: C_12  and  S_13
REMARK    6  A    between atoms: S_13  and  C_14
REMARK    7  A    between atoms: N_18  and  N_19
REMARK    8  A    between atoms: N_20  and  N_21
REMARK    9  A    between atoms: C_22  and  C_23
REMARK   10  A    between atoms: C_28  and  N_29
REMARK                            x       y       z     vdW  Elec       q    Type
REMARK                         _______ _______ _______ _____ _____    ______ ____
ROOT
ATOM      1  C   UNL     1       0.111  -7.849   0.336  0.00  0.00    +0.210 A 
ATOM      2  N   UNL     1       1.422  -7.524   0.336  0.00  0.00    -0.119 NA
ATOM      3  N   UNL     1       2.131  -8.592   0.442  0.00  0.00    -0.109 NA
ATOM      4  C   UNL     1       1.320  -9.666   0.516  0.00  0.00    +0.254 A 
ATOM      5  N   UNL     1       0.027  -9.208   0.455  0.00  0.00    -0.211 N 
ATOM      6  N   UNL     1       1.703 -10.941   0.632  0.00  0.00    -0.204 N 
ATOM      7  H   UNL     1       1.038 -11.646   0.677  0.00  0.00    +0.177 HD
ENDROOT
BRANCH   5   8
ATOM      8  N   UNL     1      -1.113  -9.959   0.501  0.00  0.00    -0.294 N 
ATOM      9  H   UNL     1      -1.397 -10.242  -0.425  0.00  0.00    +0.163 HD
ATOM     10  H   UNL     1      -0.994 -10.761   1.102  0.00  0.00    +0.163 HD
ENDBRANCH   5   8
BRANCH   6  11
ATOM     11  N   UNL     1       2.958 -11.235   0.683  0.00  0.00    -0.187 NA
ATOM     12  C   UNL     1       3.335 -12.489   0.797  0.00  0.00    +0.140 C 
BRANCH  12  13
ATOM     13  C   UNL     1       4.760 -12.823   0.856  0.00  0.00    +0.025 A 
ATOM     14  C   UNL     1       5.723 -11.803   0.901  0.00  0.00    +0.012 A 
ATOM     15  C   UNL     1       7.061 -12.127   0.956  0.00  0.00    +0.001 A 
ATOM     16  C   UNL     1       7.457 -13.455   0.966  0.00  0.00    +0.002 A 
ATOM     17  C   UNL     1       6.513 -14.469   0.921  0.00  0.00    +0.033 A 
ATOM     18  C   UNL     1       5.171 -14.165   0.873  0.00  0.00    +0.135 A 
BRANCH  18  19
ATOM     19  N   UNL     1       4.165 -15.251   0.832  0.00  0.00    +0.057 N 
ATOM     20  O   UNL     1       4.554 -16.506   0.740  0.00  0.00    -0.126 OA
ATOM     21  O   UNL     1       2.881 -14.961   0.888  0.00  0.00    -0.126 OA
ENDBRANCH  18  19
ENDBRANCH  12  13
ENDBRANCH   6  11
BRANCH   1  22
ATOM     22  S   UNL     1      -1.164  -6.792   0.220  0.00  0.00    -0.075 S 
BRANCH  22  23
ATOM     23  C   UNL     1      -0.374  -5.165   0.090  0.00  0.00    +0.173 C 
BRANCH  23  25
ATOM     24  N   UNL     1      -1.079  -2.804  -0.132  0.00  0.00    -0.284 N 
ATOM     25  C   UNL     1      -1.434  -4.099  -0.023  0.00  0.00    +0.228 C 
ATOM     26  O   UNL     1      -2.607  -4.408  -0.017  0.00  0.00    -0.275 OA
ATOM     27  H   UNL     1      -0.143  -2.563  -0.220  0.00  0.00    +0.155 HD
BRANCH  24  33
ATOM     28  C   UNL     1      -1.811  -0.569  -0.716  0.00  0.00    +0.029 A 
ATOM     29  C   UNL     1      -2.790   0.414  -0.702  0.00  0.00    +0.016 A 
ATOM     30  C   UNL     1      -4.006   0.170  -0.091  0.00  0.00    +0.001 A 
ATOM     31  C   UNL     1      -4.250  -1.052   0.508  0.00  0.00    +0.002 A 
ATOM     32  C   UNL     1      -3.281  -2.038   0.499  0.00  0.00    +0.024 A 
ATOM     33  C   UNL     1      -2.061  -1.804  -0.117  0.00  0.00    +0.047 A 
BRANCH  28  35
ATOM     34  C   UNL     1      -0.409   1.438  -2.111  0.00  0.00    +0.090 C 
ATOM     35  S   UNL     1      -0.261  -0.262  -1.494  0.00  0.00    -0.127 S 
ENDBRANCH  28  35
ENDBRANCH  24  33
ENDBRANCH  23  25
ENDBRANCH  22  23
ENDBRANCH   1  22
TORSDOF 9
