REMARK  Name = ZINC35640710
REMARK  13 active torsions:
REMARK  status: ('A' for Active; 'I' for Inactive)
REMARK    1  A    between atoms: C_1  and  C_2
REMARK    2  A    between atoms: C_2  and  N_3
REMARK    3  A    between atoms: C_4  and  C_26
REMARK    4  A    between atoms: C_5  and  C_21
REMARK    5  A    between atoms: C_6  and  C_11
REMARK    6  A    between atoms: C_14  and  C_17
REMARK    7  A    between atoms: C_17  and  C_18
REMARK    8  A    between atoms: C_17  and  C_19
REMARK    9  A    between atoms: C_17  and  C_20
REMARK   10  A    between atoms: C_21  and  O_23
REMARK   11  A    between atoms: O_23  and  C_24
REMARK   12  A    between atoms: C_24  and  C_25
REMARK   13  A    between atoms: C_26  and  N_27
REMARK                            x       y       z     vdW  Elec       q    Type
REMARK                         _______ _______ _______ _____ _____    ______ ____
ROOT
ATOM      1  N   UNL     1       0.926  -0.848  -1.503  0.00  0.00    -0.258 N 
ATOM      2  C   UNL     1      -0.092  -0.745  -2.408  0.00  0.00    +0.041 C 
ATOM      3  C   UNL     1       0.151  -0.760  -3.736  0.00  0.00    +0.080 C 
ATOM      4  C   UNL     1       1.591  -0.896  -4.188  0.00  0.00    +0.144 C 
ATOM      5  N   UNL     1       2.614  -1.000  -3.133  0.00  0.00    -0.288 N 
ATOM      6  C   UNL     1       2.215  -0.965  -1.847  0.00  0.00    +0.307 C 
ATOM      7  O   UNL     1       3.052  -1.046  -0.969  0.00  0.00    -0.252 OA
ATOM      8  H   UNL     1       3.554  -1.089  -3.360  0.00  0.00    +0.151 HD
ENDROOT
BRANCH   4   9
ATOM      9  C   UNL     1       1.925   0.300  -5.041  0.00  0.00    -0.022 A 
ATOM     10  C   UNL     1       2.247   1.506  -4.446  0.00  0.00    +0.006 A 
ATOM     11  C   UNL     1       2.554   2.603  -5.229  0.00  0.00    +0.004 A 
ATOM     12  C   UNL     1       2.538   2.495  -6.607  0.00  0.00    -0.042 A 
ATOM     13  C   UNL     1       2.217   1.289  -7.202  0.00  0.00    +0.004 A 
ATOM     14  C   UNL     1       1.915   0.190  -6.419  0.00  0.00    +0.006 A 
BRANCH  12  15
ATOM     15  C   UNL     1       2.871   3.691  -7.461  0.00  0.00    -0.013 C 
ATOM     16  C   UNL     1       4.291   4.165  -7.143  0.00  0.00    +0.015 C 
ATOM     17  C   UNL     1       2.781   3.304  -8.938  0.00  0.00    +0.015 C 
ATOM     18  C   UNL     1       1.879   4.819  -7.167  0.00  0.00    +0.015 C 
ENDBRANCH  12  15
ENDBRANCH   4   9
BRANCH   1  20
ATOM     19  C   UNL     1       0.587   0.623   0.421  0.00  0.00    +0.025 C 
ATOM     20  C   UNL     1       0.590  -0.824  -0.078  0.00  0.00    +0.111 C 
ENDBRANCH   1  20
BRANCH   3  21
ATOM     21  C   UNL     1      -0.902  -0.654  -4.674  0.00  0.00    +0.339 C 
ATOM     22  O   UNL     1      -2.038  -0.446  -4.291  0.00  0.00    -0.245 OA
BRANCH  21  23
ATOM     23  O   UNL     1      -0.647  -0.785  -5.992  0.00  0.00    -0.462 OA
BRANCH  23  24
ATOM     24  C   UNL     1      -1.759  -0.666  -6.883  0.00  0.00    +0.229 C 
ATOM     25  C   UNL     1      -1.278  -0.841  -8.325  0.00  0.00    +0.048 C 
ENDBRANCH  23  24
ENDBRANCH  21  23
ENDBRANCH   3  21
BRANCH   2  26
ATOM     26  C   UNL     1      -1.510  -0.611  -1.915  0.00  0.00    +0.136 C 
BRANCH  26  27
ATOM     27  N   UNL     1      -2.181  -1.916  -1.995  0.00  0.00    -0.300 NA
ATOM     28  C   UNL     1      -1.671  -2.834  -0.968  0.00  0.00    +0.066 C 
ATOM     29  C   UNL     1      -2.350  -4.197  -1.123  0.00  0.00    -0.067 C 
ATOM     30  N   UNL     1      -3.804  -4.037  -0.984  0.00  0.00    +0.381 N 
ATOM     31  C   UNL     1      -4.302  -3.137  -2.033  0.00  0.00    -0.067 C 
ATOM     32  C   UNL     1      -3.639  -1.766  -1.885  0.00  0.00    +0.066 C 
ATOM     33  H   UNL     1      -4.251  -4.938  -1.074  0.00  0.00    -0.086 HD
ATOM     34  H   UNL     1      -4.014  -3.647  -0.078  0.00  0.00    -0.086 HD
ENDBRANCH  26  27
ENDBRANCH   2  26
TORSDOF 8
