REMARK  Name = ZINC16490234
REMARK  6 active torsions:
REMARK  status: ('A' for Active; 'I' for Inactive)
REMARK    1  A    between atoms: C_4  and  N_7
REMARK    2  A    between atoms: N_7  and  N_8
REMARK    3  A    between atoms: N_11  and  N_12
REMARK    4  A    between atoms: N_12  and  C_13
REMARK    5  A    between atoms: N_12  and  S_19
REMARK    6  A    between atoms: S_19  and  C_22
REMARK                            x       y       z     vdW  Elec       q    Type
REMARK                         _______ _______ _______ _____ _____    ______ ____
ROOT
ATOM      1  N   UNL     1       1.036   1.712   0.353  0.00  0.00    -0.117 N 
ENDROOT
BRANCH   1   5
ATOM      2  N   UNL     1      -2.501   0.969   0.290  0.00  0.00    -0.219 N 
ATOM      3  C   UNL     1      -1.336   1.634   0.161  0.00  0.00    +0.334 C 
ATOM      4  O   UNL     1      -1.337   2.808  -0.154  0.00  0.00    -0.250 OA
ATOM      5  N   UNL     1      -0.168   0.997   0.382  0.00  0.00    -0.197 N 
ATOM      6  H   UNL     1      -3.336   1.404   0.057  0.00  0.00    +0.174 HD
ATOM      7  H   UNL     1      -0.162   0.043   0.557  0.00  0.00    +0.176 HD
BRANCH   2   8
ATOM      8  N   UNL     1      -2.506  -0.351   0.760  0.00  0.00    -0.263 N 
ATOM      9  H   UNL     1      -1.677  -0.769   1.042  0.00  0.00    +0.170 HD
BRANCH   8  13
ATOM     10  C   UNL     1      -6.080  -2.479   0.949  0.00  0.00    +0.000 A 
ATOM     11  C   UNL     1      -4.915  -3.042   1.437  0.00  0.00    +0.002 A 
ATOM     12  C   UNL     1      -3.728  -2.339   1.376  0.00  0.00    +0.024 A 
ATOM     13  C   UNL     1      -3.705  -1.065   0.823  0.00  0.00    +0.044 A 
ATOM     14  C   UNL     1      -4.878  -0.500   0.338  0.00  0.00    +0.024 A 
ATOM     15  C   UNL     1      -6.060  -1.211   0.399  0.00  0.00    +0.002 A 
ENDBRANCH   8  13
ENDBRANCH   2   8
ENDBRANCH   1   5
BRANCH   1  16
ATOM     16  C   UNL     1       1.787   1.768  -0.823  0.00  0.00    +0.073 A 
ATOM     17  C   UNL     1       3.035   2.379  -0.824  0.00  0.00    +0.026 A 
ATOM     18  C   UNL     1       3.777   2.428  -1.988  0.00  0.00    +0.002 A 
ATOM     19  C   UNL     1       3.274   1.880  -3.154  0.00  0.00    +0.000 A 
ATOM     20  C   UNL     1       2.030   1.276  -3.158  0.00  0.00    +0.002 A 
ATOM     21  C   UNL     1       1.285   1.219  -1.996  0.00  0.00    +0.026 A 
ENDBRANCH   1  16
BRANCH   1  22
ATOM     22  S   UNL     1       1.569   2.491   1.714  0.00  0.00    +0.096 S 
ATOM     23  O   UNL     1       2.234   3.667   1.274  0.00  0.00    -0.148 OA
ATOM     24  O   UNL     1       0.472   2.528   2.617  0.00  0.00    -0.148 OA
BRANCH  22  25
ATOM     25  C   UNL     1       2.796   1.466   2.454  0.00  0.00    +0.186 A 
ATOM     26  C   UNL     1       2.432   0.269   3.046  0.00  0.00    +0.191 A 
ATOM     27  C   UNL     1       3.397  -0.541   3.624  0.00  0.00    +0.198 A 
ATOM     28  C   UNL     1       4.726  -0.147   3.619  0.00  0.00    +0.199 A 
ATOM     29  C   UNL     1       5.088   1.054   3.031  0.00  0.00    +0.198 A 
ATOM     30  C   UNL     1       4.123   1.860   2.448  0.00  0.00    +0.191 A 
ATOM     31  F   UNL     1       4.476   3.031   1.875  0.00  0.00    -0.200 F 
ATOM     32  F   UNL     1       6.383   1.440   3.025  0.00  0.00    -0.199 F 
ATOM     33  F   UNL     1       5.666  -0.933   4.186  0.00  0.00    -0.199 F 
ATOM     34  F   UNL     1       3.042  -1.712   4.197  0.00  0.00    -0.199 F 
ATOM     35  F   UNL     1       1.136  -0.113   3.056  0.00  0.00    -0.200 F 
ENDBRANCH  22  25
ENDBRANCH   1  22
TORSDOF 6
