REMARK  Name = ZINC20921299
REMARK  11 active torsions:
REMARK  status: ('A' for Active; 'I' for Inactive)
REMARK    1  A    between atoms: C_1  and  C_2
REMARK    2  A    between atoms: C_2  and  C_3
REMARK    3  A    between atoms: C_2  and  N_4
REMARK    4  A    between atoms: C_6  and  C_9
REMARK    5  A    between atoms: N_10  and  N_11
REMARK    6  A    between atoms: C_15  and  S_18
REMARK    7  A    between atoms: N_16  and  N_17
REMARK    8  A    between atoms: S_18  and  C_19
REMARK    9  A    between atoms: C_19  and  C_20
REMARK   10  A    between atoms: C_20  and  C_21
REMARK   11  A    between atoms: N_23  and  C_24
REMARK                            x       y       z     vdW  Elec       q    Type
REMARK                         _______ _______ _______ _____ _____    ______ ____
ROOT
ATOM      1  N   UNL     1      -1.840   3.624   6.768  0.00  0.00    -0.204 N 
ATOM      2  C   UNL     1      -2.924   4.081   7.503  0.00  0.00    +0.254 A 
ATOM      3  N   UNL     1      -4.139   4.272   7.048  0.00  0.00    -0.109 NA
ATOM      4  N   UNL     1      -4.931   4.734   8.107  0.00  0.00    -0.119 NA
ATOM      5  C   UNL     1      -4.172   4.819   9.173  0.00  0.00    +0.210 A 
ATOM      6  N   UNL     1      -2.912   4.418   8.828  0.00  0.00    -0.211 N 
ATOM      7  H   UNL     1      -0.860   3.504   7.251  0.00  0.00    +0.177 HD
ENDROOT
BRANCH   6   8
ATOM      8  N   UNL     1      -1.831   4.362   9.661  0.00  0.00    -0.294 N 
ATOM      9  H   UNL     1      -1.933   4.658  10.716  0.00  0.00    +0.163 HD
ATOM     10  H   UNL     1      -0.858   4.022   9.277  0.00  0.00    +0.163 HD
ENDBRANCH   6   8
BRANCH   1  12
ATOM     11  C   UNL     1      -0.981   2.886   4.723  0.00  0.00    +0.141 C 
ATOM     12  N   UNL     1      -1.995   3.314   5.411  0.00  0.00    -0.187 NA
BRANCH  11  15
ATOM     13  N   UNL     1      -0.726   1.928   1.230  0.00  0.00    -0.268 N 
ATOM     14  C   UNL     1      -0.162   2.099   2.443  0.00  0.00    +0.118 A 
ATOM     15  C   UNL     1      -1.144   2.560   3.293  0.00  0.00    +0.032 A 
ATOM     16  C   UNL     1      -2.334   2.663   2.541  0.00  0.00    +0.143 A 
ATOM     17  N   UNL     1      -2.075   2.292   1.316  0.00  0.00    -0.179 NA
BRANCH  13  19
ATOM     18  C   UNL     1      -0.034  -0.080   0.018  0.00  0.00    +0.032 C 
ATOM     19  C   UNL     1      -0.042   1.450   0.026  0.00  0.00    +0.101 C 
ATOM     20  C   UNL     1       1.397   1.969   0.017  0.00  0.00    +0.032 C 
ENDBRANCH  13  19
ENDBRANCH  11  15
ENDBRANCH   1  12
BRANCH   5  21
ATOM     21  S   UNL     1      -4.687   5.356  10.770  0.00  0.00    -0.084 S 
BRANCH  21  22
ATOM     22  C   UNL     1      -6.447   5.739  10.559  0.00  0.00    +0.086 C 
BRANCH  22  23
ATOM     23  C   UNL     1      -7.027   6.224  11.889  0.00  0.00    +0.107 C 
BRANCH  23  24
ATOM     24  C   UNL     1      -8.490   6.542  11.713  0.00  0.00    +0.218 C 
ATOM     25  O   UNL     1      -9.016   6.395  10.630  0.00  0.00    -0.275 OA
ATOM     26  N   UNL     1      -9.213   6.990  12.758  0.00  0.00    -0.284 N 
ATOM     27  H   UNL     1      -8.755   7.053  13.757  0.00  0.00    +0.155 HD
BRANCH  26  28
ATOM     28  C   UNL     1     -10.546   7.374  12.574  0.00  0.00    +0.053 A 
ATOM     29  C   UNL     1     -11.343   6.703  11.656  0.00  0.00    +0.044 A 
ATOM     30  C   UNL     1     -12.661   7.082  11.480  0.00  0.00    +0.043 A 
ATOM     31  C   UNL     1     -13.183   8.135  12.210  0.00  0.00    +0.021 A 
ATOM     32  C   UNL     1     -12.390   8.808  13.121  0.00  0.00    +0.023 A 
ATOM     33  C   UNL     1     -11.073   8.431  13.306  0.00  0.00    +0.062 A 
ATOM     34 CL   UNL     1     -10.079   9.277  14.450  0.00  0.00    -0.082 Cl
ATOM     35 CL   UNL     1     -13.660   6.239  10.338  0.00  0.00    -0.083 Cl
ENDBRANCH  26  28
ENDBRANCH  23  24
ENDBRANCH  22  23
ENDBRANCH  21  22
ENDBRANCH   5  21
TORSDOF 9
