REMARK  Name = ZINC06817284
REMARK  5 active torsions:
REMARK  status: ('A' for Active; 'I' for Inactive)
REMARK    1  A    between atoms: C_1  and  C_2
REMARK    2  A    between atoms: C_10  and  S_16
REMARK    3  A    between atoms: S_16  and  N_19
REMARK    4  A    between atoms: N_19  and  C_20
REMARK    5  A    between atoms: C_20  and  C_21
REMARK                            x       y       z     vdW  Elec       q    Type
REMARK                         _______ _______ _______ _____ _____    ______ ____
ROOT
ATOM      1  C   UNL     1       1.137   4.594  -2.598  0.00  0.00    +0.027 C 
ATOM      2  C   UNL     1       1.702   5.582  -1.576  0.00  0.00    +0.158 C 
ATOM      3  C   UNL     1       2.724   4.889  -0.712  0.00  0.00    +0.229 C 
ATOM      4  O   UNL     1       3.856   5.324  -0.663  0.00  0.00    -0.275 OA
ATOM      5  N   UNL     1       2.409   3.810  -0.001  0.00  0.00    -0.283 N 
ATOM      6  C   UNL     1       1.168   3.179   0.008  0.00  0.00    +0.055 A 
ATOM      7  C   UNL     1       1.171   1.782   0.001  0.00  0.00    +0.027 A 
ATOM      8  C   UNL     1      -0.013   1.076   0.008  0.00  0.00    +0.030 A 
ATOM      9  C   UNL     1      -1.219   1.752   0.017  0.00  0.00    +0.107 A 
ATOM     10  C   UNL     1      -1.233   3.130   0.031  0.00  0.00    +0.053 A 
ATOM     11  C   UNL     1      -0.040   3.857   0.023  0.00  0.00    +0.057 A 
ATOM     12  N   UNL     1      -0.149   5.244   0.030  0.00  0.00    -0.283 N 
ATOM     13  C   UNL     1       0.594   6.084  -0.687  0.00  0.00    +0.229 C 
ATOM     14  O   UNL     1       0.375   7.275  -0.623  0.00  0.00    -0.275 OA
ATOM     15  H   UNL     1       3.103   3.430   0.561  0.00  0.00    +0.155 HD
ATOM     16  H   UNL     1      -0.826   5.632   0.607  0.00  0.00    +0.155 HD
ENDROOT
BRANCH   9  17
ATOM     17  S   UNL     1      -2.735   0.854   0.020  0.00  0.00    +0.059 S 
ATOM     18  O   UNL     1      -3.722   1.721  -0.522  0.00  0.00    -0.153 OA
ATOM     19  O   UNL     1      -2.452  -0.422  -0.539  0.00  0.00    -0.153 OA
BRANCH  17  20
ATOM     20  N   UNL     1      -3.148   0.596   1.603  0.00  0.00    -0.186 NA
ATOM     21  H   UNL     1      -3.173  -0.307   1.956  0.00  0.00    +0.148 HD
BRANCH  20  22
ATOM     22  C   UNL     1      -3.476   1.731   2.469  0.00  0.00    +0.153 C 
BRANCH  22  23
ATOM     23  C   UNL     1      -4.171   1.224   3.734  0.00  0.00    +0.226 C 
ATOM     24  C   UNL     1      -4.628   2.415   4.586  0.00  0.00    +0.275 C 
ATOM     25  O   UNL     1      -5.261   1.906   5.766  0.00  0.00    -0.485 OA
ATOM     26  C   UNL     1      -4.616   0.902   6.420  0.00  0.00    +0.162 A 
ATOM     27  C   UNL     1      -4.965   0.609   7.730  0.00  0.00    +0.049 A 
ATOM     28  C   UNL     1      -4.322  -0.410   8.407  0.00  0.00    +0.004 A 
ATOM     29  C   UNL     1      -3.330  -1.140   7.780  0.00  0.00    +0.004 A 
ATOM     30  C   UNL     1      -2.977  -0.854   6.476  0.00  0.00    +0.049 A 
ATOM     31  C   UNL     1      -3.617   0.169   5.791  0.00  0.00    +0.163 A 
ATOM     32  O   UNL     1      -3.254   0.444   4.509  0.00  0.00    -0.480 OA
ENDBRANCH  22  23
ENDBRANCH  20  22
ENDBRANCH  17  20
ENDBRANCH   9  17
TORSDOF 4
