REMARK  Name = ZINC20644621
REMARK  12 active torsions:
REMARK  status: ('A' for Active; 'I' for Inactive)
REMARK    1  A    between atoms: C_1  and  C_2
REMARK    2  A    between atoms: C_2  and  O_3
REMARK    3  A    between atoms: O_3  and  C_4
REMARK    4  A    between atoms: C_9  and  O_10
REMARK    5  A    between atoms: O_10  and  C_11
REMARK    6  A    between atoms: C_11  and  C_12
REMARK    7  A    between atoms: N_17  and  C_20
REMARK    8  A    between atoms: C_20  and  C_21
REMARK    9  A    between atoms: C_24  and  C_27
REMARK   10  A    between atoms: N_29  and  C_30
REMARK   11  A    between atoms: C_35  and  C_40
REMARK   12  A    between atoms: C_37  and  C_39
REMARK                            x       y       z     vdW  Elec       q    Type
REMARK                         _______ _______ _______ _____ _____    ______ ____
ROOT
ATOM      1  C   UNL     1       0.467   1.480 -12.412  0.00  0.00    +0.163 A 
ATOM      2  C   UNL     1       1.232   1.184 -11.301  0.00  0.00    +0.064 A 
ATOM      3  C   UNL     1       1.035  -0.025 -10.633  0.00  0.00    +0.067 A 
ATOM      4  C   UNL     1       0.064  -0.935 -11.091  0.00  0.00    +0.057 A 
ATOM      5  C   UNL     1      -0.697  -0.627 -12.205  0.00  0.00    +0.075 A 
ATOM      6  C   UNL     1      -0.496   0.576 -12.864  0.00  0.00    +0.164 A 
ATOM      7  N   UNL     1      -0.107  -2.130 -10.404  0.00  0.00    -0.334 N 
ATOM      8  H   UNL     1      -0.863  -2.855 -10.740  0.00  0.00    +0.168 HD
ATOM      9  C   UNL     1       0.646  -2.414  -9.327  0.00  0.00    +0.161 A 
ATOM     10  S   UNL     1       0.398  -3.905  -8.523  0.00  0.00    -0.013 S 
ATOM     11  N   UNL     1       1.580  -1.575  -8.851  0.00  0.00    -0.284 N 
ATOM     12  C   UNL     1       1.825  -0.388  -9.445  0.00  0.00    +0.263 A 
ATOM     13  O   UNL     1       2.677   0.363  -9.010  0.00  0.00    -0.267 OA
ENDROOT
BRANCH   1  14
ATOM     14  O   UNL     1       0.653   2.657 -13.068  0.00  0.00    -0.489 OA
BRANCH  14  16
ATOM     15  C   UNL     1       1.718   4.799 -13.414  0.00  0.00    +0.048 C 
ATOM     16  C   UNL     1       1.654   3.536 -12.553  0.00  0.00    +0.226 C 
ENDBRANCH  14  16
ENDBRANCH   1  14
BRANCH   6  17
ATOM     17  O   UNL     1      -1.243   0.878 -13.957  0.00  0.00    -0.489 OA
BRANCH  17  18
ATOM     18  C   UNL     1      -2.212  -0.089 -14.368  0.00  0.00    +0.226 C 
ATOM     19  C   UNL     1      -2.950   0.423 -15.607  0.00  0.00    +0.048 C 
ENDBRANCH  17  18
ENDBRANCH   6  17
BRANCH  11  20
ATOM     20  C   UNL     1       2.353  -1.959  -7.667  0.00  0.00    +0.162 C 
BRANCH  20  21
ATOM     21  C   UNL     1       1.647  -1.473  -6.427  0.00  0.00    -0.028 A 
ATOM     22  C   UNL     1       0.719  -2.284  -5.800  0.00  0.00    +0.006 A 
ATOM     23  C   UNL     1       0.070  -1.846  -4.664  0.00  0.00    +0.013 A 
ATOM     24  C   UNL     1       0.351  -0.580  -4.149  0.00  0.00    +0.037 A 
ATOM     25  C   UNL     1       1.284   0.237  -4.790  0.00  0.00    +0.013 A 
ATOM     26  C   UNL     1       1.930  -0.216  -5.921  0.00  0.00    +0.006 A 
BRANCH  24  27
ATOM     27  C   UNL     1      -0.341  -0.103  -2.932  0.00  0.00    +0.244 C 
ATOM     28  O   UNL     1      -1.157  -0.814  -2.379  0.00  0.00    -0.270 OA
ATOM     29  N   UNL     1      -0.067   1.120  -2.437  0.00  0.00    -0.308 N 
ATOM     30  H   UNL     1       0.671   1.764  -2.937  0.00  0.00    +0.149 HD
BRANCH  29  31
ATOM     31  C   UNL     1      -0.753   1.593  -1.232  0.00  0.00    +0.076 C 
ATOM     32  C   UNL     1      -0.013   1.086   0.008  0.00  0.00    +0.022 C 
ATOM     33  C   UNL     1      -0.729   1.579   1.267  0.00  0.00    +0.002 C 
ATOM     34  C   UNL     1      -0.750   3.109   1.275  0.00  0.00    +0.003 C 
ATOM     35  C   UNL     1      -1.490   3.616   0.036  0.00  0.00    -0.009 C 
ATOM     36  C   UNL     1      -0.773   3.123  -1.223  0.00  0.00    +0.009 C 
ATOM     37  C   UNL     1      -1.513   3.629  -2.463  0.00  0.00    +0.009 C 
ATOM     38  C   UNL     1      -1.510   5.146   0.044  0.00  0.00    +0.008 C 
ENDBRANCH  29  31
ENDBRANCH  24  27
ENDBRANCH  20  21
ENDBRANCH  11  20
TORSDOF 8
