REMARK  Name = ZINC12937401
REMARK  10 active torsions:
REMARK  status: ('A' for Active; 'I' for Inactive)
REMARK    1  A    between atoms: C_1  and  C_2
REMARK    2  A    between atoms: C_5  and  C_33
REMARK    3  A    between atoms: N_6  and  N_7
REMARK    4  A    between atoms: C_8  and  C_10
REMARK    5  A    between atoms: C_13  and  O_16
REMARK    6  A    between atoms: O_16  and  C_17
REMARK    7  A    between atoms: C_17  and  C_19
REMARK    8  A    between atoms: C_17  and  C_20
REMARK    9  A    between atoms: N_22  and  C_23
REMARK   10  A    between atoms: C_26  and  N_30
REMARK                            x       y       z     vdW  Elec       q    Type
REMARK                         _______ _______ _______ _____ _____    ______ ____
ROOT
ATOM      1  C   UNL     1       5.755   0.360  -1.626  0.00  0.00    +0.039 A 
ATOM      2  C   UNL     1       6.333  -0.911  -1.589  0.00  0.00    +0.016 A 
ATOM      3  C   UNL     1       7.695  -1.051  -1.734  0.00  0.00    +0.046 A 
ATOM      4  C   UNL     1       8.496   0.072  -1.904  0.00  0.00    +0.122 A 
ATOM      5  C   UNL     1       7.926   1.339  -1.935  0.00  0.00    +0.046 A 
ATOM      6  C   UNL     1       6.564   1.487  -1.798  0.00  0.00    +0.016 A 
ENDROOT
BRANCH   1   8
ATOM      7  N   UNL     1       3.515  -0.573  -1.313  0.00  0.00    -0.219 N 
ATOM      8  C   UNL     1       4.294   0.514  -1.478  0.00  0.00    +0.262 C 
ATOM      9  O   UNL     1       3.794   1.622  -1.506  0.00  0.00    -0.268 OA
ATOM     10  H   UNL     1       3.921  -1.448  -1.203  0.00  0.00    +0.176 HD
BRANCH   7  16
ATOM     11  C   UNL     1       1.964   1.426  -3.041  0.00  0.00    +0.065 C 
ATOM     12  C   UNL     1       1.399   0.437  -2.054  0.00  0.00    +0.036 A 
ATOM     13  C   UNL     1       0.093   0.267  -1.764  0.00  0.00    +0.024 A 
ATOM     14  C   UNL     1       0.005  -0.753  -0.796  0.00  0.00    +0.024 A 
ATOM     15  C   UNL     1       1.261  -1.167  -0.531  0.00  0.00    +0.036 A 
ATOM     16  N   UNL     1       2.121  -0.441  -1.300  0.00  0.00    -0.268 N 
ATOM     17  C   UNL     1       1.647  -2.247   0.446  0.00  0.00    +0.065 C 
ENDBRANCH   7  16
ENDBRANCH   1   8
BRANCH   4  18
ATOM     18  O   UNL     1       9.839  -0.070  -2.039  0.00  0.00    -0.480 OA
BRANCH  18  19
ATOM     19  C   UNL     1      10.606   1.127  -2.187  0.00  0.00    +0.256 C 
ATOM     20  C   UNL     1      10.586   1.569  -3.651  0.00  0.00    +0.062 C 
BRANCH  19  21
ATOM     21  C   UNL     1      12.028   0.869  -1.759  0.00  0.00    +0.258 C 
ATOM     22  O   UNL     1      12.375  -0.253  -1.454  0.00  0.00    -0.271 OA
ATOM     23  N   UNL     1      12.914   1.883  -1.717  0.00  0.00    -0.281 N 
ATOM     24  H   UNL     1      12.619   2.792  -1.883  0.00  0.00    +0.155 HD
BRANCH  23  25
ATOM     25  C   UNL     1      14.260   1.625  -1.433  0.00  0.00    +0.052 A 
ATOM     26  C   UNL     1      14.770   0.343  -1.583  0.00  0.00    +0.027 A 
ATOM     27  C   UNL     1      16.099   0.091  -1.302  0.00  0.00    +0.034 A 
ATOM     28  C   UNL     1      16.922   1.116  -0.870  0.00  0.00    +0.128 A 
ATOM     29  C   UNL     1      16.418   2.394  -0.720  0.00  0.00    +0.054 A 
ATOM     30  C   UNL     1      15.091   2.654  -1.005  0.00  0.00    +0.064 A 
ATOM     31 CL   UNL     1      14.461   4.261  -0.822  0.00  0.00    -0.082 Cl
BRANCH  28  32
ATOM     32  N   UNL     1      18.345   0.842  -0.570  0.00  0.00    +0.056 N 
ATOM     33  O   UNL     1      18.790  -0.284  -0.703  0.00  0.00    -0.126 OA
ATOM     34  O   UNL     1      19.071   1.743  -0.190  0.00  0.00    -0.126 OA
ENDBRANCH  28  32
ENDBRANCH  23  25
ENDBRANCH  19  21
ENDBRANCH  18  19
ENDBRANCH   4  18
TORSDOF 7
