REMARK  Name = ZINC08717733
REMARK  3 active torsions:
REMARK  status: ('A' for Active; 'I' for Inactive)
REMARK    1  A    between atoms: C_4  and  C_7
REMARK    2  A    between atoms: C_7  and  N_58
REMARK    3  A    between atoms: C_17  and  C_19
REMARK                            x       y       z     vdW  Elec       q    Type
REMARK                         _______ _______ _______ _____ _____    ______ ____
ROOT
ATOM      1  C   UNL     1      -2.821   0.581  -0.599  0.00  0.00    -0.073 C 
ATOM      2  C   UNL     1      -2.361  -0.225   0.619  0.00  0.00    +0.052 C 
ATOM      3  C   UNL     1      -1.069  -0.966   0.276  0.00  0.00    +0.189 C 
ATOM      4  C   UNL     1      -1.294  -1.859  -0.943  0.00  0.00    +0.052 C 
ATOM      5  C   UNL     1      -1.786  -1.003  -2.114  0.00  0.00    -0.073 C 
ATOM      6  N   UNL     1       0.002  -0.004   0.002  0.00  0.00    -0.207 N 
ATOM      7  C   UNL     1       1.388  -0.463  -0.244  0.00  0.00    +0.136 C 
ATOM      8  C   UNL     1       2.210   0.818  -0.050  0.00  0.00    +0.086 C 
ATOM      9  C   UNL     1       1.162   1.911   0.001  0.00  0.00    +0.068 C 
ATOM     10  N   UNL     1      -0.017   1.379   0.010  0.00  0.00    -0.185 NA
ATOM     11  C   UNL     1       1.683  -1.509   0.799  0.00  0.00    +0.018 A 
ATOM     12  C   UNL     1       2.997  -1.867   1.042  0.00  0.00    +0.024 A 
ATOM     13  C   UNL     1       3.293  -2.837   1.981  0.00  0.00    +0.018 A 
ATOM     14  C   UNL     1       2.269  -3.453   2.678  0.00  0.00    +0.019 A 
ATOM     15  C   UNL     1       0.959  -3.093   2.443  0.00  0.00    +0.047 A 
ATOM     16  C   UNL     1       0.651  -2.108   1.505  0.00  0.00    +0.129 A 
ATOM     17  O   UNL     1      -0.656  -1.771   1.362  0.00  0.00    -0.467 OA
ATOM     18 BR   UNL     1       5.091  -3.321   2.311  0.00  0.00    -0.050 Br
ATOM     19  N   UNL     1      -3.053  -0.346  -1.727  0.00  0.00    +0.383 N 
ATOM     20  H   UNL     1      -3.725  -1.065  -1.434  0.00  0.00    -0.081 HD
ENDROOT
BRANCH   9  21
ATOM     21  C   UNL     1       1.442   3.359   0.036  0.00  0.00    -0.002 A 
ATOM     22  C   UNL     1       2.761   3.818   0.028  0.00  0.00    +0.011 A 
ATOM     23  C   UNL     1       3.017   5.173   0.057  0.00  0.00    +0.020 A 
ATOM     24  C   UNL     1       1.969   6.077   0.103  0.00  0.00    +0.041 A 
ATOM     25  C   UNL     1       0.659   5.629   0.117  0.00  0.00    +0.020 A 
ATOM     26  C   UNL     1       0.390   4.276   0.083  0.00  0.00    +0.011 A 
ATOM     27 CL   UNL     1       2.300   7.781   0.146  0.00  0.00    -0.084 Cl
ENDBRANCH   9  21
BRANCH  19  28
ATOM     28  C   UNL     1      -3.611   0.392  -2.879  0.00  0.00    -0.043 C 
BRANCH  28  32
ATOM     29  C   UNL     1      -4.827  -2.422  -5.854  0.00  0.00    +0.000 A 
ATOM     30  C   UNL     1      -5.713  -2.034  -4.867  0.00  0.00    +0.000 A 
ATOM     31  C   UNL     1      -5.319  -1.123  -3.904  0.00  0.00    +0.002 A 
ATOM     32  C   UNL     1      -4.040  -0.601  -3.929  0.00  0.00    -0.064 A 
ATOM     33  C   UNL     1      -3.155  -0.986  -4.919  0.00  0.00    +0.002 A 
ATOM     34  C   UNL     1      -3.547  -1.900  -5.879  0.00  0.00    +0.000 A 
ENDBRANCH  28  32
ENDBRANCH  19  28
TORSDOF 3
