REMARK  Name = ZINC04073380
REMARK  15 active torsions:
REMARK  status: ('A' for Active; 'I' for Inactive)
REMARK    1  A    between atoms: C_1  and  C_2
REMARK    2  A    between atoms: C_2  and  C_3
REMARK    3  A    between atoms: C_3  and  C_4
REMARK    4  A    between atoms: C_4  and  N_75
REMARK    5  A    between atoms: C_5  and  C_6
REMARK    6  A    between atoms: C_5  and  N_75
REMARK    7  A    between atoms: C_6  and  C_7
REMARK    8  A    between atoms: C_7  and  C_8
REMARK    9  A    between atoms: C_9  and  C_10
REMARK   10  A    between atoms: C_9  and  N_75
REMARK   11  A    between atoms: C_10  and  C_11
REMARK   12  A    between atoms: C_11  and  N_77
REMARK   13  A    between atoms: C_12  and  C_13
REMARK   14  A    between atoms: C_12  and  N_77
REMARK   15  A    between atoms: C_20  and  C_33
REMARK                            x       y       z     vdW  Elec       q    Type
REMARK                         _______ _______ _______ _____ _____    ______ ____
ROOT
ATOM      1  C   UNL     1       1.582  -2.317  -3.732  0.00  0.00    -0.068 C 
ENDROOT
BRANCH   1   2
ATOM      2  C   UNL     1       0.597  -1.147  -3.690  0.00  0.00    +0.087 C 
ATOM      3  C   UNL     1       0.001  -0.987  -2.259  0.00  0.00    +0.042 C 
ATOM      4  C   UNL     1      -0.245   0.510  -2.058  0.00  0.00    +0.014 C 
ATOM      5  C   UNL     1      -1.234   0.748  -0.919  0.00  0.00    +0.030 C 
ATOM      6  C   UNL     1      -2.576   0.115  -1.311  0.00  0.00    -0.023 C 
ATOM      7  C   UNL     1      -3.617   0.426  -0.236  0.00  0.00    +0.007 C 
ATOM      8  C   UNL     1      -3.846   1.936  -0.157  0.00  0.00    +0.003 C 
ATOM      9  C   UNL     1      -2.547   2.628   0.271  0.00  0.00    +0.037 C 
ATOM     10  C   UNL     1      -1.437   2.249  -0.712  0.00  0.00    +0.096 C 
ATOM     11  C   UNL     1      -1.187   3.177  -1.900  0.00  0.00    +0.196 C 
ATOM     12  O   UNL     1      -0.293   3.098  -0.788  0.00  0.00    -0.368 OA
ATOM     13  C   UNL     1      -2.372  -1.397  -1.411  0.00  0.00    +0.052 C 
ATOM     14  C   UNL     1      -1.327  -1.745  -2.443  0.00  0.00    +0.181 C 
ATOM     15  O   UNL     1      -1.726  -1.409  -3.803  0.00  0.00    -0.461 OA
ATOM     16  C   UNL     1      -0.609  -1.438  -4.564  0.00  0.00    +0.309 C 
ATOM     17  O   UNL     1      -0.576  -1.659  -5.751  0.00  0.00    -0.251 OA
ATOM     18  C   UNL     1      -3.030   0.664  -2.665  0.00  0.00    +0.011 C 
ENDBRANCH   1   2
BRANCH   1  19
ATOM     19  N   UNL     1       2.216  -2.367  -5.063  0.00  0.00    +0.380 N 
ATOM     20  H   UNL     1       1.492  -2.496  -5.779  0.00  0.00    -0.086 HD
ATOM     21  H   UNL     1       2.714  -1.486  -5.235  0.00  0.00    -0.086 HD
BRANCH  19  22
ATOM     22  C   UNL     1       3.174  -3.487  -5.132  0.00  0.00    -0.084 C 
BRANCH  22  23
ATOM     23  C   UNL     1       3.814  -3.514  -6.521  0.00  0.00    -0.038 C 
BRANCH  23  24
ATOM     24  C   UNL     1       4.809  -4.674  -6.601  0.00  0.00    -0.081 C 
BRANCH  24  25
ATOM     25  N   UNL     1       5.403  -4.700  -7.955  0.00  0.00    +0.380 N 
ATOM     26  H   UNL     1       4.648  -4.689  -8.650  0.00  0.00    -0.082 HD
BRANCH  25  27
ATOM     27  C   UNL     1       6.257  -3.510  -8.154  0.00  0.00    -0.079 C 
BRANCH  27  28
ATOM     28  C   UNL     1       7.381  -3.475  -7.117  0.00  0.00    -0.019 C 
BRANCH  28  30
ATOM     29  C   UNL     1       9.354  -2.185  -6.288  0.00  0.00    +0.004 C 
ATOM     30  C   UNL     1       8.229  -2.220  -7.325  0.00  0.00    -0.005 C 
ENDBRANCH  28  30
ENDBRANCH  27  28
ENDBRANCH  25  27
BRANCH  25  31
ATOM     31  C   UNL     1       6.203  -5.930  -8.132  0.00  0.00    -0.079 C 
BRANCH  31  32
ATOM     32  C   UNL     1       6.496  -6.115  -9.622  0.00  0.00    -0.019 C 
BRANCH  32  33
ATOM     33  C   UNL     1       7.308  -7.396  -9.827  0.00  0.00    -0.005 C 
ATOM     34  C   UNL     1       7.601  -7.580 -11.317  0.00  0.00    +0.004 C 
ENDBRANCH  32  33
ENDBRANCH  31  32
ENDBRANCH  25  31
ENDBRANCH  24  25
ENDBRANCH  23  24
ENDBRANCH  22  23
ENDBRANCH  19  22
ENDBRANCH   1  19
TORSDOF 12
