REMARK  Name = ZINC45347864
REMARK  6 active torsions:
REMARK  status: ('A' for Active; 'I' for Inactive)
REMARK    1  A    between atoms: C_4  and  C_7
REMARK    2  A    between atoms: C_7  and  C_9
REMARK    3  A    between atoms: C_7  and  N_12
REMARK    4  A    between atoms: N_15  and  N_16
REMARK    5  A    between atoms: C_17  and  C_19
REMARK    6  A    between atoms: C_19  and  C_20
REMARK                            x       y       z     vdW  Elec       q    Type
REMARK                         _______ _______ _______ _____ _____    ______ ____
ROOT
ATOM      1  N   UNL     1       3.611  -1.865  -0.930  0.00  0.00    -0.291 N 
ATOM      2  C   UNL     1       4.721  -2.370  -1.504  0.00  0.00    +0.316 C 
ATOM      3  O   UNL     1       5.805  -1.866  -1.281  0.00  0.00    -0.251 OA
ATOM      4  N   UNL     1       4.629  -3.435  -2.325  0.00  0.00    -0.218 N 
ATOM      5  H   UNL     1       2.747  -2.267  -1.108  0.00  0.00    +0.151 HD
ATOM      6  H   UNL     1       5.428  -3.799  -2.738  0.00  0.00    +0.174 HD
ENDROOT
BRANCH   4   7
ATOM      7  N   UNL     1       3.381  -4.016  -2.582  0.00  0.00    -0.233 N 
ATOM      8  C   UNL     1       3.289  -5.081  -3.404  0.00  0.00    +0.234 C 
ATOM      9  O   UNL     1       4.287  -5.536  -3.920  0.00  0.00    -0.274 OA
ATOM     10  H   UNL     1       2.582  -3.652  -2.169  0.00  0.00    +0.173 HD
BRANCH   8  11
ATOM     11  C   UNL     1       1.946  -5.706  -3.680  0.00  0.00    +0.134 C 
BRANCH  11  12
ATOM     12  C   UNL     1       2.118  -6.870  -4.621  0.00  0.00    -0.014 A 
ATOM     13  C   UNL     1       1.988  -6.843  -5.957  0.00  0.00    +0.087 A 
ATOM     14  N   UNL     1       2.217  -8.089  -6.474  0.00  0.00    -0.360 N 
ATOM     15  H   UNL     1       2.181  -8.317  -7.416  0.00  0.00    +0.165 HD
ATOM     16  C   UNL     1       2.507  -8.971  -5.457  0.00  0.00    +0.047 A 
ATOM     17  C   UNL     1       2.464  -8.245  -4.253  0.00  0.00    +0.003 A 
ATOM     18  C   UNL     1       2.726  -8.888  -3.042  0.00  0.00    +0.010 A 
ATOM     19  C   UNL     1       3.027 -10.221  -3.033  0.00  0.00    +0.001 A 
ATOM     20  C   UNL     1       3.076 -10.941  -4.219  0.00  0.00    +0.002 A 
ATOM     21  C   UNL     1       2.811 -10.328  -5.424  0.00  0.00    +0.026 A 
ENDBRANCH  11  12
ENDBRANCH   8  11
ENDBRANCH   4   7
BRANCH   1  22
ATOM     22  C   UNL     1       3.711  -0.707  -0.038  0.00  0.00    +0.108 C 
BRANCH  22  26
ATOM     23  C   UNL     1      -0.017   1.378   0.010  0.00  0.00    +0.000 A 
ATOM     24  C   UNL     1       1.171   2.086   0.002  0.00  0.00    +0.000 A 
ATOM     25  C   UNL     1       2.377   1.411  -0.013  0.00  0.00    +0.005 A 
ATOM     26  C   UNL     1       2.396   0.029  -0.020  0.00  0.00    -0.027 A 
ATOM     27  C   UNL     1       1.208  -0.679  -0.012  0.00  0.00    +0.005 A 
ATOM     28  C   UNL     1       0.002  -0.004   0.002  0.00  0.00    +0.000 A 
ENDBRANCH  22  26
BRANCH  22  29
ATOM     29  C   UNL     1       4.049  -1.182   1.377  0.00  0.00    +0.014 C 
ATOM     30  C   UNL     1       5.234  -0.518   2.081  0.00  0.00    +0.006 C 
ATOM     31  C   UNL     1       5.355  -1.955   1.570  0.00  0.00    +0.006 C 
ENDBRANCH  22  29
ENDBRANCH   1  22
TORSDOF 6
