REMARK  Name = ZINC18935357
REMARK  10 active torsions:
REMARK  status: ('A' for Active; 'I' for Inactive)
REMARK    1  A    between atoms: C_1  and  C_2
REMARK    2  A    between atoms: C_5  and  N_9
REMARK    3  A    between atoms: C_6  and  C_8
REMARK    4  A    between atoms: C_10  and  C_12
REMARK    5  A    between atoms: C_13  and  C_36
REMARK    6  A    between atoms: C_19  and  C_23
REMARK    7  A    between atoms: C_23  and  N_64
REMARK    8  A    between atoms: C_24  and  N_64
REMARK    9  A    between atoms: C_25  and  C_26
REMARK   10  A    between atoms: C_25  and  N_64
REMARK                            x       y       z     vdW  Elec       q    Type
REMARK                         _______ _______ _______ _____ _____    ______ ____
ROOT
ATOM      1  C   UNL     1       3.708  -0.942   0.177  0.00  0.00    +0.080 A 
ATOM      2  C   UNL     1       3.936  -2.283   0.284  0.00  0.00    -0.017 A 
ATOM      3  C   UNL     1       5.246  -2.761   0.360  0.00  0.00    +0.076 A 
ATOM      4  C   UNL     1       5.727  -4.157   0.476  0.00  0.00    +0.260 A 
ATOM      5  O   UNL     1       4.942  -5.088   0.513  0.00  0.00    -0.267 OA
ATOM      6  N   UNL     1       7.056  -4.370   0.539  0.00  0.00    -0.312 N 
ATOM      7  H   UNL     1       7.388  -5.279   0.615  0.00  0.00    +0.170 HD
ATOM      8  C   UNL     1       7.939  -3.342   0.499  0.00  0.00    +0.094 A 
ATOM      9  N   UNL     1       7.548  -2.101   0.398  0.00  0.00    -0.229 NA
ATOM     10  C   UNL     1       6.262  -1.780   0.328  0.00  0.00    +0.116 A 
ATOM     11  S   UNL     1       5.357  -0.260   0.188  0.00  0.00    -0.064 S 
ATOM     12  C   UNL     1       2.777  -3.246   0.317  0.00  0.00    +0.046 C 
ENDROOT
BRANCH   1  14
ATOM     13  N   UNL     1       2.402   1.107  -0.014  0.00  0.00    -0.281 N 
ATOM     14  C   UNL     1       2.426  -0.237   0.081  0.00  0.00    +0.255 C 
ATOM     15  O   UNL     1       1.384  -0.865   0.088  0.00  0.00    -0.269 OA
ATOM     16  H   UNL     1       3.233   1.603  -0.085  0.00  0.00    +0.155 HD
BRANCH  13  21
ATOM     17  C   UNL     1      -2.556   3.863   0.003  0.00  0.00    +0.044 C 
ATOM     18  C   UNL     1      -1.238   3.131  -0.002  0.00  0.00    -0.050 A 
ATOM     19  C   UNL     1      -1.140   1.891  -0.607  0.00  0.00    +0.005 A 
ATOM     20  C   UNL     1       0.064   1.216  -0.608  0.00  0.00    +0.024 A 
ATOM     21  C   UNL     1       1.180   1.787  -0.010  0.00  0.00    +0.037 A 
ATOM     22  C   UNL     1       1.079   3.034   0.592  0.00  0.00    -0.029 A 
ATOM     23  C   UNL     1      -0.130   3.702   0.595  0.00  0.00    +0.008 A 
ATOM     24  C   UNL     1       2.287   3.657   1.243  0.00  0.00    +0.045 C 
ENDBRANCH  13  21
ENDBRANCH   1  14
BRANCH   8  25
ATOM     25  C   UNL     1       9.414  -3.641   0.574  0.00  0.00    -0.003 C 
BRANCH  25  27
ATOM     26  C   UNL     1       9.921  -1.560   1.704  0.00  0.00    -0.095 C 
ATOM     27  N   UNL     1      10.162  -2.369   0.491  0.00  0.00    +0.385 N 
ATOM     28  H   UNL     1       9.838  -1.845  -0.330  0.00  0.00    -0.081 HD
BRANCH  27  29
ATOM     29  C   UNL     1      11.608  -2.643   0.345  0.00  0.00    -0.043 C 
BRANCH  29  30
ATOM     30  C   UNL     1      12.319  -1.349   0.043  0.00  0.00    -0.063 A 
ATOM     31  C   UNL     1      12.476  -0.946  -1.282  0.00  0.00    +0.002 A 
ATOM     32  C   UNL     1      13.109   0.219  -1.590  0.00  0.00    +0.009 A 
ATOM     33  C   UNL     1      13.623   1.024  -0.559  0.00  0.00    -0.018 A 
ATOM     34  C   UNL     1      14.288   2.230  -0.839  0.00  0.00    +0.008 A 
ATOM     35  C   UNL     1      14.773   2.985   0.185  0.00  0.00    +0.001 A 
ATOM     36  C   UNL     1      14.620   2.579   1.510  0.00  0.00    +0.001 A 
ATOM     37  C   UNL     1      13.982   1.417   1.818  0.00  0.00    +0.008 A 
ATOM     38  C   UNL     1      13.468   0.612   0.787  0.00  0.00    -0.018 A 
ATOM     39  C   UNL     1      12.804  -0.595   1.066  0.00  0.00    +0.010 A 
ENDBRANCH  29  30
ENDBRANCH  27  29
ENDBRANCH  25  27
ENDBRANCH   8  25
TORSDOF 6
