REMARK  Name = ZINC11207266
REMARK  9 active torsions:
REMARK  status: ('A' for Active; 'I' for Inactive)
REMARK    1  A    between atoms: C_4  and  C_7
REMARK    2  A    between atoms: C_10  and  S_18
REMARK    3  A    between atoms: N_11  and  C_12
REMARK    4  A    between atoms: S_18  and  C_19
REMARK    5  A    between atoms: C_19  and  C_20
REMARK    6  A    between atoms: N_22  and  C_23
REMARK    7  A    between atoms: C_23  and  C_24
REMARK    8  A    between atoms: C_27  and  S_29
REMARK    9  A    between atoms: S_29  and  N_32
REMARK                            x       y       z     vdW  Elec       q    Type
REMARK                         _______ _______ _______ _____ _____    ______ ____
ROOT
ATOM      1  S   UNL     1      -0.224  -2.424  -2.385  0.00  0.00    -0.076 S 
ENDROOT
BRANCH   1   5
ATOM      2  C   UNL     1       1.813  -2.911   0.917  0.00  0.00    +0.169 A 
ATOM      3  N   UNL     1       1.633  -4.144   0.502  0.00  0.00    -0.128 NA
ATOM      4  N   UNL     1       0.968  -4.145  -0.597  0.00  0.00    -0.122 NA
ATOM      5  C   UNL     1       0.676  -2.914  -0.951  0.00  0.00    +0.197 A 
ATOM      6  N   UNL     1       1.200  -2.083   0.002  0.00  0.00    -0.270 N 
BRANCH   2  10
ATOM      7  C   UNL     1       3.882  -1.703   4.424  0.00  0.00    +0.000 A 
ATOM      8  C   UNL     1       3.014  -0.825   3.800  0.00  0.00    +0.001 A 
ATOM      9  C   UNL     1       2.339  -1.211   2.660  0.00  0.00    +0.011 A 
ATOM     10  C   UNL     1       2.533  -2.490   2.138  0.00  0.00    +0.020 A 
ATOM     11  C   UNL     1       3.405  -3.373   2.776  0.00  0.00    +0.011 A 
ATOM     12  C   UNL     1       4.079  -2.973   3.911  0.00  0.00    +0.001 A 
ENDBRANCH   2  10
BRANCH   6  13
ATOM     13  C   UNL     1       1.133  -0.684   0.036  0.00  0.00    +0.051 A 
ATOM     14  C   UNL     1      -0.084  -0.051   0.247  0.00  0.00    +0.026 A 
ATOM     15  C   UNL     1      -0.147   1.329   0.280  0.00  0.00    +0.002 A 
ATOM     16  C   UNL     1       1.001   2.079   0.104  0.00  0.00    +0.000 A 
ATOM     17  C   UNL     1       2.215   1.451  -0.106  0.00  0.00    +0.002 A 
ATOM     18  C   UNL     1       2.284   0.072  -0.140  0.00  0.00    +0.026 A 
ENDBRANCH   6  13
ENDBRANCH   1   5
BRANCH   1  19
ATOM     19  C   UNL     1      -0.562  -4.045  -3.113  0.00  0.00    +0.173 C 
BRANCH  19  20
ATOM     20  C   UNL     1      -1.346  -3.870  -4.388  0.00  0.00    +0.224 C 
ATOM     21  O   UNL     1      -1.646  -2.757  -4.767  0.00  0.00    -0.275 OA
ATOM     22  N   UNL     1      -1.713  -4.949  -5.108  0.00  0.00    -0.310 N 
ATOM     23  H   UNL     1      -1.473  -5.838  -4.805  0.00  0.00    +0.149 HD
BRANCH  22  24
ATOM     24  C   UNL     1      -2.474  -4.778  -6.348  0.00  0.00    +0.146 C 
BRANCH  24  25
ATOM     25  C   UNL     1      -2.756  -6.128  -6.954  0.00  0.00    +0.009 A 
ATOM     26  C   UNL     1      -3.815  -6.950  -6.753  0.00  0.00    +0.015 A 
ATOM     27  C   UNL     1      -3.864  -8.157  -7.426  0.00  0.00    +0.036 A 
ATOM     28  C   UNL     1      -2.852  -8.482  -8.267  0.00  0.00    +0.142 A 
ATOM     29  S   UNL     1      -1.786  -7.057  -8.130  0.00  0.00    -0.072 S 
BRANCH  28  30
ATOM     30  S   UNL     1      -2.646  -9.932  -9.247  0.00  0.00    +0.062 S 
ATOM     31  O   UNL     1      -1.253 -10.063  -9.491  0.00  0.00    -0.153 OA
ATOM     32  O   UNL     1      -3.410 -10.955  -8.623  0.00  0.00    -0.153 OA
BRANCH  30  33
ATOM     33  N   UNL     1      -3.357  -9.637 -10.713  0.00  0.00    -0.203 NA
ATOM     34  H   UNL     1      -3.780  -8.781 -10.884  0.00  0.00    +0.144 HD
ATOM     35  H   UNL     1      -3.351 -10.321 -11.401  0.00  0.00    +0.144 HD
ENDBRANCH  30  33
ENDBRANCH  28  30
ENDBRANCH  24  25
ENDBRANCH  22  24
ENDBRANCH  19  20
ENDBRANCH   1  19
TORSDOF 9
