REMARK  Name = ZINC55154750
REMARK  11 active torsions:
REMARK  status: ('A' for Active; 'I' for Inactive)
REMARK    1  A    between atoms: C_1  and  C_2
REMARK    2  A    between atoms: C_4  and  O_23
REMARK    3  A    between atoms: C_7  and  N_8
REMARK    4  A    between atoms: N_8  and  C_9
REMARK    5  A    between atoms: C_9  and  C_11
REMARK    6  A    between atoms: C_9  and  C_12
REMARK    7  A    between atoms: N_14  and  C_15
REMARK    8  A    between atoms: C_16  and  C_20
REMARK    9  A    between atoms: O_23  and  C_24
REMARK   10  A    between atoms: C_24  and  C_25
REMARK   11  A    between atoms: C_24  and  C_26
REMARK                            x       y       z     vdW  Elec       q    Type
REMARK                         _______ _______ _______ _____ _____    ______ ____
ROOT
ATOM      1  C   UNL     1      -1.046  -0.855   3.618  0.00  0.00    +0.154 C 
ATOM      2  C   UNL     1       0.313  -1.206   4.228  0.00  0.00    +0.038 C 
ENDROOT
BRANCH   1   3
ATOM      3  C   UNL     1      -1.836  -0.024   4.597  0.00  0.00    +0.238 C 
ATOM      4  O   UNL     1      -2.195   1.093   4.292  0.00  0.00    -0.273 OA
ATOM      5  N   UNL     1      -2.143  -0.523   5.810  0.00  0.00    -0.278 N 
ATOM      6  H   UNL     1      -1.856  -1.417   6.054  0.00  0.00    +0.155 HD
BRANCH   5   7
ATOM      7  C   UNL     1      -2.870   0.241   6.710  0.00  0.00    +0.084 A 
ATOM      8  C   UNL     1      -3.269  -0.103   7.994  0.00  0.00    +0.065 A 
ATOM      9  C   UNL     1      -4.024   0.890   8.723  0.00  0.00    +0.022 A 
ATOM     10  C   UNL     1      -4.258   2.044   8.073  0.00  0.00    +0.048 A 
ATOM     11  S   UNL     1      -3.462   1.796   6.500  0.00  0.00    -0.081 S 
BRANCH   8  12
ATOM     12  C   UNL     1      -2.942  -1.407   8.579  0.00  0.00    +0.244 C 
ATOM     13  O   UNL     1      -2.305  -2.220   7.936  0.00  0.00    -0.270 OA
ATOM     14  N   UNL     1      -3.348  -1.705   9.829  0.00  0.00    -0.325 N 
ATOM     15  H   UNL     1      -3.856  -1.057  10.342  0.00  0.00    +0.145 HD
ATOM     16  H   UNL     1      -3.132  -2.567  10.217  0.00  0.00    +0.145 HD
ENDBRANCH   8  12
ENDBRANCH   5   7
ENDBRANCH   1   3
BRANCH   1  17
ATOM     17  N   UNL     1      -0.844  -0.094   2.383  0.00  0.00    -0.333 N 
ATOM     18  H   UNL     1      -0.861   0.876   2.402  0.00  0.00    +0.147 HD
BRANCH  17  25
ATOM     19  C   UNL     1      -0.462   1.462   0.033  0.00  0.00    +0.046 C 
ATOM     20  C   UNL     1      -0.435  -0.045   0.004  0.00  0.00    -0.026 A 
ATOM     21  C   UNL     1      -0.214  -0.709  -1.187  0.00  0.00    +0.050 A 
ATOM     22  C   UNL     1      -0.189  -2.095  -1.214  0.00  0.00    +0.121 A 
ATOM     23  C   UNL     1      -0.386  -2.816  -0.046  0.00  0.00    +0.047 A 
ATOM     24  C   UNL     1      -0.607  -2.154   1.146  0.00  0.00    +0.027 A 
ATOM     25  C   UNL     1      -0.626  -0.766   1.175  0.00  0.00    +0.031 A 
BRANCH  22  26
ATOM     26  O   UNL     1       0.028  -2.748  -2.388  0.00  0.00    -0.489 OA
BRANCH  26  27
ATOM     27  C   UNL     1       0.158  -4.170  -2.324  0.00  0.00    +0.167 C 
ATOM     28  C   UNL     1      -1.230  -4.811  -2.358  0.00  0.00    +0.051 C 
ATOM     29  C   UNL     1       0.976  -4.660  -3.521  0.00  0.00    +0.051 C 
ENDBRANCH  26  27
ENDBRANCH  22  26
ENDBRANCH  17  25
ENDBRANCH   1  17
TORSDOF 7
