REMARK  Name = ZINC35665846
REMARK  17 active torsions:
REMARK  status: ('A' for Active; 'I' for Inactive)
REMARK    1  A    between atoms: C_1  and  N_2
REMARK    2  A    between atoms: N_2  and  C_3
REMARK    3  A    between atoms: N_2  and  C_4
REMARK    4  A    between atoms: C_4  and  C_5
REMARK    5  A    between atoms: C_5  and  N_6
REMARK    6  A    between atoms: N_6  and  C_7
REMARK    7  A    between atoms: C_7  and  C_8
REMARK    8  A    between atoms: C_11  and  S_17
REMARK    9  A    between atoms: N_12  and  C_13
REMARK   10  A    between atoms: C_13  and  C_14
REMARK   11  A    between atoms: C_14  and  O_15
REMARK   12  A    between atoms: O_15  and  C_16
REMARK   13  A    between atoms: S_17  and  C_20
REMARK   14  A    between atoms: C_20  and  C_21
REMARK   15  A    between atoms: C_25  and  O_27
REMARK   16  A    between atoms: O_27  and  C_28
REMARK   17  A    between atoms: C_29  and  C_31
REMARK                            x       y       z     vdW  Elec       q    Type
REMARK                         _______ _______ _______ _____ _____    ______ ____
ROOT
ATOM      1  C   UNL     1      -2.870  -3.950  -1.916  0.00  0.00    +0.057 A 
ATOM      2  C   UNL     1      -3.415  -5.176  -2.035  0.00  0.00    +0.137 A 
ATOM      3  N   UNL     1      -2.730  -5.845  -2.975  0.00  0.00    -0.220 NA
ATOM      4  C   UNL     1      -1.782  -5.081  -3.443  0.00  0.00    +0.252 A 
ATOM      5  N   UNL     1      -1.838  -3.887  -2.813  0.00  0.00    -0.310 N 
ENDROOT
BRANCH   4   6
ATOM      6  S   UNL     1      -0.625  -5.529  -4.694  0.00  0.00    +0.034 S 
ATOM      7  O   UNL     1       0.512  -4.714  -4.444  0.00  0.00    -0.166 OA
ATOM      8  O   UNL     1      -0.534  -6.945  -4.613  0.00  0.00    -0.166 OA
BRANCH   6   9
ATOM      9  C   UNL     1      -1.413  -5.042  -6.254  0.00  0.00    +0.210 C 
BRANCH   9  10
ATOM     10  C   UNL     1      -0.501  -5.383  -7.404  0.00  0.00    -0.023 A 
ATOM     11  C   UNL     1       0.428  -4.459  -7.847  0.00  0.00    +0.005 A 
ATOM     12  C   UNL     1       1.266  -4.768  -8.902  0.00  0.00    +0.004 A 
ATOM     13  C   UNL     1       1.176  -6.002  -9.518  0.00  0.00    +0.045 A 
ATOM     14  C   UNL     1       0.245  -6.930  -9.076  0.00  0.00    +0.120 A 
ATOM     15  C   UNL     1      -0.591  -6.619  -8.013  0.00  0.00    +0.051 A 
BRANCH  14  16
ATOM     16  O   UNL     1       0.155  -8.144  -9.680  0.00  0.00    -0.495 OA
ATOM     17  C   UNL     1       1.050  -8.397 -10.765  0.00  0.00    +0.277 C 
ENDBRANCH  14  16
ENDBRANCH   9  10
ENDBRANCH   6   9
ENDBRANCH   4   6
BRANCH   1  18
ATOM     18  C   UNL     1      -3.315  -2.856  -0.980  0.00  0.00    +0.163 C 
BRANCH  18  19
ATOM     19  N   UNL     1      -3.910  -3.451   0.219  0.00  0.00    -0.293 N 
ATOM     20  C   UNL     1      -5.221  -3.762   0.237  0.00  0.00    +0.253 C 
ATOM     21  O   UNL     1      -5.891  -3.631  -0.770  0.00  0.00    -0.269 OA
BRANCH  20  22
ATOM     22  C   UNL     1      -5.840  -4.256   1.471  0.00  0.00    +0.074 A 
ATOM     23  C   UNL     1      -7.177  -4.505   1.739  0.00  0.00    +0.021 A 
ATOM     24  C   UNL     1      -7.457  -4.970   3.002  0.00  0.00    +0.008 A 
ATOM     25  C   UNL     1      -6.438  -5.149   3.878  0.00  0.00    +0.046 A 
ATOM     26  S   UNL     1      -5.068  -4.701   3.015  0.00  0.00    -0.092 S 
ENDBRANCH  20  22
BRANCH  19  27
ATOM     27  C   UNL     1      -3.079  -3.709   1.398  0.00  0.00    +0.090 C 
BRANCH  27  28
ATOM     28  C   UNL     1      -2.653  -5.179   1.410  0.00  0.00    -0.060 C 
BRANCH  28  30
ATOM     29  C   UNL     1      -1.511  -6.872   2.669  0.00  0.00    -0.097 C 
ATOM     30  N   UNL     1      -1.820  -5.438   2.592  0.00  0.00    +0.377 N 
ATOM     31  C   UNL     1      -0.571  -4.672   2.488  0.00  0.00    -0.097 C 
ATOM     32  H   UNL     1      -2.319  -5.157   3.423  0.00  0.00    -0.083 HD
ENDBRANCH  28  30
ENDBRANCH  27  28
ENDBRANCH  19  27
ENDBRANCH  18  19
ENDBRANCH   1  18
BRANCH   5  33
ATOM     33  C   UNL     1      -0.956  -2.740  -3.045  0.00  0.00    +0.153 C 
BRANCH  33  34
ATOM     34  C   UNL     1       0.212  -2.788  -2.058  0.00  0.00    +0.181 C 
BRANCH  34  35
ATOM     35  O   UNL     1       1.019  -1.619  -2.219  0.00  0.00    -0.381 OA
ATOM     36  C   UNL     1       2.144  -1.564  -1.339  0.00  0.00    +0.194 C 
ENDBRANCH  34  35
ENDBRANCH  33  34
ENDBRANCH   5  33
TORSDOF 13
