REMARK  Name = ZINC60533571
REMARK  4 active torsions:
REMARK  status: ('A' for Active; 'I' for Inactive)
REMARK    1  A    between atoms: C_3  and  C_6
REMARK    2  A    between atoms: C_9  and  S_12
REMARK    3  A    between atoms: S_12  and  C_13
REMARK    4  A    between atoms: C_13  and  C_14
REMARK                            x       y       z     vdW  Elec       q    Type
REMARK                         _______ _______ _______ _____ _____    ______ ____
ROOT
ATOM      1  C   UNL     1       3.740   1.825  -0.024  0.00  0.00    +0.189 A 
ATOM      2  N   UNL     1       4.842   1.059  -0.039  0.00  0.00    -0.200 NA
ATOM      3  H   UNL     1       6.073   3.900  -0.038  0.00  0.00    +0.191 HD
ATOM      4  C   UNL     1       5.911   1.824  -0.046  0.00  0.00    +0.185 A 
ATOM      5  N   UNL     1       5.505   3.113  -0.036  0.00  0.00    -0.253 N 
ATOM      6  N   UNL     1       4.102   3.090  -0.027  0.00  0.00    -0.151 NA
ENDROOT
BRANCH   1   9
ATOM      7  C   UNL     1      -0.016   1.353   0.009  0.00  0.00    +0.008 A 
ATOM      8  C   UNL     1       1.178   2.041   0.002  0.00  0.00    +0.019 A 
ATOM      9  C   UNL     1       2.347   1.329  -0.013  0.00  0.00    +0.058 A 
ATOM     10  S   UNL     1       1.752  -0.354  -0.017  0.00  0.00    -0.093 S 
ATOM     11  C   UNL     1       0.002  -0.004   0.002  0.00  0.00    +0.046 A 
ENDBRANCH   1   9
BRANCH   4  12
ATOM     12  S   UNL     1       7.582   1.266  -0.065  0.00  0.00    -0.082 S 
BRANCH  12  13
ATOM     13  C   UNL     1       7.441  -0.543  -0.072  0.00  0.00    +0.112 C 
BRANCH  13  14
ATOM     14  C   UNL     1       8.818  -1.155  -0.088  0.00  0.00    -0.031 A 
ATOM     15  C   UNL     1       9.457  -1.431  -1.287  0.00  0.00    +0.044 A 
ATOM     16  C   UNL     1      10.721  -1.993  -1.263  0.00  0.00    +0.131 A 
ATOM     17  N   UNL     1      11.317  -2.265  -0.118  0.00  0.00    -0.224 NA
ATOM     18  C   UNL     1      10.739  -2.014   1.042  0.00  0.00    +0.131 A 
ATOM     19  C   UNL     1       9.477  -1.448   1.095  0.00  0.00    +0.044 A 
ATOM     20 CL   UNL     1      11.572  -2.394   2.517  0.00  0.00    -0.062 Cl
ATOM     21 CL   UNL     1      11.532  -2.344  -2.757  0.00  0.00    -0.062 Cl
ENDBRANCH  13  14
ENDBRANCH  12  13
ENDBRANCH   4  12
TORSDOF 4
