REMARK  Name = ZINC13033863
REMARK  10 active torsions:
REMARK  status: ('A' for Active; 'I' for Inactive)
REMARK    1  A    between atoms: C_1  and  C_2
REMARK    2  A    between atoms: C_5  and  C_8
REMARK    3  A    between atoms: C_8  and  N_69
REMARK    4  A    between atoms: C_9  and  C_10
REMARK    5  A    between atoms: C_9  and  N_69
REMARK    6  A    between atoms: C_26  and  C_27
REMARK    7  A    between atoms: C_26  and  N_69
REMARK    8  A    between atoms: N_31  and  C_32
REMARK    9  A    between atoms: C_32  and  C_33
REMARK   10  A    between atoms: C_33  and  C_34
REMARK                            x       y       z     vdW  Elec       q    Type
REMARK                         _______ _______ _______ _____ _____    ______ ____
ROOT
ATOM      1  N   UNL     1      -0.951  -2.026  -2.712  0.00  0.00    +0.390 N 
ATOM      2  H   UNL     1      -0.161  -2.477  -2.236  0.00  0.00    -0.080 HD
ENDROOT
BRANCH   1   3
ATOM      3  C   UNL     1      -1.860  -3.071  -3.227  0.00  0.00    -0.042 C 
BRANCH   3   8
ATOM      4  C   UNL     1       1.289  -7.149  -5.845  0.00  0.00    +0.044 C 
ATOM      5  C   UNL     1       0.467  -6.085  -5.162  0.00  0.00    -0.050 A 
ATOM      6  C   UNL     1       0.292  -6.121  -3.791  0.00  0.00    +0.003 A 
ATOM      7  C   UNL     1      -0.462  -5.146  -3.165  0.00  0.00    +0.002 A 
ATOM      8  C   UNL     1      -1.039  -4.134  -3.910  0.00  0.00    -0.064 A 
ATOM      9  C   UNL     1      -0.868  -4.101  -5.281  0.00  0.00    +0.002 A 
ATOM     10  C   UNL     1      -0.111  -5.074  -5.907  0.00  0.00    +0.003 A 
ENDBRANCH   3   8
ENDBRANCH   1   3
BRANCH   1  11
ATOM     11  C   UNL     1      -0.434  -1.209  -3.830  0.00  0.00    -0.036 C 
BRANCH  11  12
ATOM     12  C   UNL     1       0.829  -0.520  -3.381  0.00  0.00    +0.001 A 
ATOM     13  C   UNL     1       2.034  -1.104  -3.604  0.00  0.00    +0.017 A 
ATOM     14  C   UNL     1       3.241  -0.408  -3.162  0.00  0.00    +0.002 A 
ATOM     15  C   UNL     1       4.511  -0.960  -3.369  0.00  0.00    +0.059 A 
ATOM     16  C   UNL     1       5.631  -0.282  -2.936  0.00  0.00    +0.163 A 
ATOM     17  C   UNL     1       5.502   0.952  -2.292  0.00  0.00    +0.164 A 
ATOM     18  C   UNL     1       4.251   1.505  -2.082  0.00  0.00    +0.075 A 
ATOM     19  C   UNL     1       3.112   0.835  -2.511  0.00  0.00    +0.053 A 
ATOM     20  N   UNL     1       1.857   1.371  -2.309  0.00  0.00    -0.322 N 
ATOM     21  H   UNL     1       1.769   2.227  -1.860  0.00  0.00    +0.169 HD
ATOM     22  C   UNL     1       0.753   0.725  -2.725  0.00  0.00    +0.251 A 
ATOM     23  O   UNL     1      -0.339   1.229  -2.529  0.00  0.00    -0.268 OA
ATOM     24  O   UNL     1       6.603   1.629  -1.865  0.00  0.00    -0.485 OA
ATOM     25  C   UNL     1       7.817   0.879  -1.754  0.00  0.00    +0.270 C 
ATOM     26  C   UNL     1       7.985   0.043  -3.030  0.00  0.00    +0.270 C 
ATOM     27  O   UNL     1       6.859  -0.834  -3.143  0.00  0.00    -0.485 OA
ENDBRANCH  11  12
ENDBRANCH   1  11
BRANCH   1  28
ATOM     28  C   UNL     1      -1.665  -1.166  -1.746  0.00  0.00    +0.001 C 
BRANCH  28  29
ATOM     29  C   UNL     1      -1.987  -1.977  -0.517  0.00  0.00    +0.135 A 
ATOM     30  N   UNL     1      -3.079  -2.669  -0.300  0.00  0.00    -0.115 NA
ATOM     31  N   UNL     1      -2.977  -3.221   0.859  0.00  0.00    -0.023 NA
ATOM     32  N   UNL     1      -1.846  -2.904   1.386  0.00  0.00    -0.044 NA
ATOM     33  N   UNL     1      -1.209  -2.133   0.570  0.00  0.00    -0.231 N 
BRANCH  33  34
ATOM     34  C   UNL     1       0.115  -1.543   0.784  0.00  0.00    +0.152 C 
BRANCH  34  35
ATOM     35  C   UNL     1      -0.038  -0.181   1.463  0.00  0.00    +0.058 C 
BRANCH  35  36
ATOM     36  C   UNL     1       1.324   0.426   1.683  0.00  0.00    -0.046 A 
ATOM     37  C   UNL     1       2.008   0.181   2.859  0.00  0.00    +0.004 A 
ATOM     38  C   UNL     1       3.259   0.733   3.059  0.00  0.00    +0.000 A 
ATOM     39  C   UNL     1       3.822   1.539   2.087  0.00  0.00    +0.000 A 
ATOM     40  C   UNL     1       3.136   1.789   0.914  0.00  0.00    +0.000 A 
ATOM     41  C   UNL     1       1.887   1.232   0.712  0.00  0.00    +0.004 A 
ENDBRANCH  35  36
ENDBRANCH  34  35
ENDBRANCH  33  34
ENDBRANCH  28  29
ENDBRANCH   1  28
TORSDOF 9
