REMARK  Name = ZINC58949496
REMARK  8 active torsions:
REMARK  status: ('A' for Active; 'I' for Inactive)
REMARK    1  A    between atoms: C_1  and  C_2
REMARK    2  A    between atoms: C_2  and  O_3
REMARK    3  A    between atoms: O_3  and  C_4
REMARK    4  A    between atoms: C_4  and  C_6
REMARK    5  A    between atoms: C_7  and  N_31
REMARK    6  A    between atoms: C_9  and  C_30
REMARK    7  A    between atoms: C_10  and  C_27
REMARK    8  A    between atoms: C_11  and  C_13
REMARK                            x       y       z     vdW  Elec       q    Type
REMARK                         _______ _______ _______ _____ _____    ______ ____
ROOT
ATOM      1  C   UNL     1      -2.650  -2.160  -0.054  0.00  0.00    +0.105 C 
ATOM      2  C   UNL     1      -2.556  -3.513  -0.126  0.00  0.00    +0.195 C 
ATOM      3  O   UNL     1      -3.644  -4.297  -0.034  0.00  0.00    -0.446 OA
ATOM      4  C   UNL     1      -4.864  -3.776  -0.240  0.00  0.00    +0.113 C 
ATOM      5  C   UNL     1      -5.093  -2.459  -0.176  0.00  0.00    +0.064 C 
ATOM      6  C   UNL     1      -3.984  -1.490   0.139  0.00  0.00    +0.100 C 
ATOM      7  C   UNL     1      -6.011  -4.702  -0.554  0.00  0.00    +0.087 C 
ENDROOT
BRANCH   6   8
ATOM      8  C   UNL     1      -4.109  -1.028   1.568  0.00  0.00    -0.020 A 
ATOM      9  C   UNL     1      -4.167  -1.958   2.604  0.00  0.00    -0.013 A 
ATOM     10  C   UNL     1      -4.109  -3.344   2.343  0.00  0.00    +0.009 A 
ATOM     11  C   UNL     1      -4.167  -4.223   3.376  0.00  0.00    +0.001 A 
ATOM     12  C   UNL     1      -4.284  -3.794   4.699  0.00  0.00    +0.001 A 
ATOM     13  C   UNL     1      -4.344  -2.477   5.019  0.00  0.00    +0.008 A 
ATOM     14  C   UNL     1      -4.288  -1.507   3.994  0.00  0.00    -0.017 A 
ATOM     15  C   UNL     1      -4.348  -0.146   4.288  0.00  0.00    +0.017 A 
ATOM     16  C   UNL     1      -4.292   0.784   3.252  0.00  0.00    -0.017 A 
ATOM     17  C   UNL     1      -4.162   0.334   1.862  0.00  0.00    -0.013 A 
ATOM     18  C   UNL     1      -4.101   1.303   0.838  0.00  0.00    +0.009 A 
ATOM     19  C   UNL     1      -4.155   2.621   1.159  0.00  0.00    +0.001 A 
ATOM     20  C   UNL     1      -4.271   3.050   2.482  0.00  0.00    +0.001 A 
ATOM     21  C   UNL     1      -4.349   2.170   3.513  0.00  0.00    +0.008 A 
ENDBRANCH   6   8
BRANCH   5  22
ATOM     22  C   UNL     1      -6.443  -1.953  -0.412  0.00  0.00    +0.242 C 
ATOM     23  O   UNL     1      -7.348  -2.727  -0.663  0.00  0.00    -0.271 OA
ATOM     24  N   UNL     1      -6.687  -0.629  -0.350  0.00  0.00    -0.325 N 
ATOM     25  H   UNL     1      -5.966  -0.012  -0.150  0.00  0.00    +0.145 HD
ATOM     26  H   UNL     1      -7.583  -0.293  -0.507  0.00  0.00    +0.145 HD
ENDBRANCH   5  22
BRANCH   2  27
ATOM     27  N   UNL     1      -1.326  -4.091  -0.296  0.00  0.00    -0.329 N 
ATOM     28  H   UNL     1      -0.527  -3.542  -0.287  0.00  0.00    +0.145 HD
ATOM     29  H   UNL     1      -1.255  -5.049  -0.427  0.00  0.00    +0.145 HD
ENDBRANCH   2  27
BRANCH   1  30
ATOM     30  C   UNL     1      -1.489  -1.377  -0.155  0.00  0.00    +0.341 C 
ATOM     31  O   UNL     1      -1.220  -0.819  -1.204  0.00  0.00    -0.245 OA
BRANCH  30  32
ATOM     32  O   UNL     1      -0.670  -1.243   0.911  0.00  0.00    -0.462 OA
BRANCH  32  34
ATOM     33  C   UNL     1       1.291  -0.399   2.042  0.00  0.00    +0.048 C 
ATOM     34  C   UNL     1       0.493  -0.432   0.737  0.00  0.00    +0.229 C 
ENDBRANCH  32  34
ENDBRANCH  30  32
ENDBRANCH   1  30
TORSDOF 6
