REMARK  Name = ZINC07325931
REMARK  12 active torsions:
REMARK  status: ('A' for Active; 'I' for Inactive)
REMARK    1  A    between atoms: C_1  and  C_2
REMARK    2  A    between atoms: C_2  and  C_3
REMARK    3  A    between atoms: C_3  and  C_4
REMARK    4  A    between atoms: C_4  and  N_5
REMARK    5  A    between atoms: C_6  and  N_28
REMARK    6  A    between atoms: C_7  and  N_14
REMARK    7  A    between atoms: N_14  and  C_15
REMARK    8  A    between atoms: N_14  and  C_16
REMARK    9  A    between atoms: C_16  and  N_18
REMARK   10  A    between atoms: N_18  and  C_19
REMARK   11  A    between atoms: C_20  and  C_27
REMARK   12  A    between atoms: C_22  and  C_26
REMARK                            x       y       z     vdW  Elec       q    Type
REMARK                         _______ _______ _______ _____ _____    ______ ____
ROOT
ATOM      1  N   UNL     1      -3.750  -0.671  -2.099  0.00  0.00    -0.280 N 
ATOM      2  C   UNL     1      -2.810  -1.346  -2.843  0.00  0.00    +0.127 A 
ATOM      3  C   UNL     1      -1.796  -2.021  -2.195  0.00  0.00    +0.139 A 
ATOM      4  C   UNL     1      -1.761  -2.007  -0.788  0.00  0.00    +0.277 A 
ATOM      5  O   UNL     1      -0.879  -2.599  -0.190  0.00  0.00    -0.266 OA
ATOM      6  N   UNL     1      -2.709  -1.335  -0.107  0.00  0.00    -0.273 N 
ATOM      7  H   UNL     1      -2.686  -1.325   0.893  0.00  0.00    +0.173 HD
ATOM      8  C   UNL     1      -3.687  -0.678  -0.755  0.00  0.00    +0.331 A 
ATOM      9  O   UNL     1      -4.530  -0.079  -0.115  0.00  0.00    -0.246 OA
ENDROOT
BRANCH   2  10
ATOM     10  N   UNL     1      -2.877  -1.344  -4.216  0.00  0.00    -0.343 N 
ATOM     11  H   UNL     1      -3.537  -0.795  -4.668  0.00  0.00    +0.144 HD
ATOM     12  H   UNL     1      -2.265  -1.891  -4.733  0.00  0.00    +0.144 HD
ENDBRANCH   2  10
BRANCH   3  13
ATOM     13  N   UNL     1      -0.813  -2.719  -2.931  0.00  0.00    -0.279 N 
ATOM     14  C   UNL     1       0.129  -1.981  -3.776  0.00  0.00    +0.137 C 
BRANCH  13  15
ATOM     15  C   UNL     1      -0.742  -4.062  -2.855  0.00  0.00    +0.141 C 
ATOM     16  S   UNL     1      -1.770  -4.915  -1.785  0.00  0.00    -0.018 S 
BRANCH  15  17
ATOM     17  N   UNL     1       0.139  -4.734  -3.622  0.00  0.00    -0.295 N 
ATOM     18  H   UNL     1       0.758  -4.248  -4.190  0.00  0.00    +0.154 HD
BRANCH  17  19
ATOM     19  C   UNL     1       0.162  -6.133  -3.600  0.00  0.00    +0.054 A 
ATOM     20  C   UNL     1       0.493  -6.805  -2.430  0.00  0.00    -0.028 A 
ATOM     21  C   UNL     1       0.515  -8.186  -2.411  0.00  0.00    +0.008 A 
ATOM     22  C   UNL     1       0.207  -8.900  -3.555  0.00  0.00    -0.049 A 
ATOM     23  C   UNL     1      -0.123  -8.235  -4.721  0.00  0.00    +0.025 A 
ATOM     24  C   UNL     1      -0.152  -6.854  -4.746  0.00  0.00    +0.063 A 
ATOM     25 CL   UNL     1      -0.575  -6.019  -6.208  0.00  0.00    -0.082 Cl
ATOM     26  C   UNL     1       0.231 -10.407  -3.529  0.00  0.00    +0.044 C 
ATOM     27  C   UNL     1       0.830  -6.028  -1.184  0.00  0.00    +0.046 C 
ENDBRANCH  17  19
ENDBRANCH  15  17
ENDBRANCH  13  15
ENDBRANCH   3  13
BRANCH   1  28
ATOM     28  C   UNL     1      -4.829   0.054  -2.774  0.00  0.00    +0.128 C 
BRANCH  28  29
ATOM     29  C   UNL     1      -4.386   1.494  -3.041  0.00  0.00    +0.021 C 
BRANCH  29  31
ATOM     30  C   UNL     1      -5.071   3.692  -4.013  0.00  0.00    +0.004 C 
ATOM     31  C   UNL     1      -5.513   2.252  -3.746  0.00  0.00    -0.002 C 
ENDBRANCH  29  31
ENDBRANCH  28  29
ENDBRANCH   1  28
TORSDOF 8
