REMARK  Name = ZINC36627217
REMARK  9 active torsions:
REMARK  status: ('A' for Active; 'I' for Inactive)
REMARK    1  A    between atoms: C_1  and  C_2
REMARK    2  A    between atoms: C_2  and  O_3
REMARK    3  A    between atoms: O_3  and  C_4
REMARK    4  A    between atoms: C_4  and  C_6
REMARK    5  A    between atoms: C_7  and  C_20
REMARK    6  A    between atoms: C_12  and  C_14
REMARK    7  A    between atoms: C_20  and  S_21
REMARK    8  A    between atoms: S_21  and  C_22
REMARK    9  A    between atoms: N_27  and  C_28
REMARK                            x       y       z     vdW  Elec       q    Type
REMARK                         _______ _______ _______ _____ _____    ______ ____
ROOT
ATOM      1  C   UNL     1       1.331  -2.340  -2.530  0.00  0.00    +0.079 C 
ATOM      2  C   UNL     1       1.628  -3.654  -2.615  0.00  0.00    +0.034 C 
ATOM      3  N   UNL     1       2.351  -4.147  -3.663  0.00  0.00    -0.272 N 
ATOM      4  C   UNL     1       2.815  -3.390  -4.666  0.00  0.00    +0.304 C 
ATOM      5  O   UNL     1       3.451  -3.920  -5.556  0.00  0.00    -0.252 OA
ATOM      6  N   UNL     1       2.599  -2.061  -4.720  0.00  0.00    -0.288 N 
ATOM      7  C   UNL     1       1.823  -1.432  -3.639  0.00  0.00    +0.144 C 
ATOM      8  H   UNL     1       2.541  -5.098  -3.682  0.00  0.00    +0.156 HD
ATOM      9  H   UNL     1       2.945  -1.532  -5.456  0.00  0.00    +0.151 HD
ENDROOT
BRANCH   7  10
ATOM     10  C   UNL     1       0.623  -0.757  -4.254  0.00  0.00    -0.023 A 
ATOM     11  C   UNL     1      -0.158  -1.437  -5.170  0.00  0.00    +0.006 A 
ATOM     12  C   UNL     1      -1.258  -0.818  -5.734  0.00  0.00    +0.000 A 
ATOM     13  C   UNL     1      -1.577   0.480  -5.381  0.00  0.00    +0.000 A 
ATOM     14  C   UNL     1      -0.796   1.159  -4.465  0.00  0.00    +0.000 A 
ATOM     15  C   UNL     1       0.301   0.539  -3.897  0.00  0.00    +0.006 A 
ENDBRANCH   7  10
BRANCH   1  16
ATOM     16  C   UNL     1       0.580  -1.828  -1.445  0.00  0.00    +0.339 C 
ATOM     17  O   UNL     1       1.144  -1.251  -0.534  0.00  0.00    -0.245 OA
BRANCH  16  18
ATOM     18  O   UNL     1      -0.760  -1.980  -1.421  0.00  0.00    -0.462 OA
BRANCH  18  20
ATOM     19  C   UNL     1      -2.953  -1.707  -0.442  0.00  0.00    +0.048 C 
ATOM     20  C   UNL     1      -1.454  -1.439  -0.295  0.00  0.00    +0.229 C 
ENDBRANCH  18  20
ENDBRANCH  16  18
ENDBRANCH   1  16
BRANCH   2  21
ATOM     21  C   UNL     1       1.153  -4.593  -1.536  0.00  0.00    +0.127 C 
BRANCH  21  22
ATOM     22  S   UNL     1      -0.251  -5.562  -2.152  0.00  0.00    -0.091 S 
BRANCH  22  23
ATOM     23  C   UNL     1      -0.684  -6.596  -0.793  0.00  0.00    +0.160 A 
ATOM     24  N   UNL     1      -0.142  -6.670   0.408  0.00  0.00    -0.133 NA
ATOM     25  N   UNL     1      -0.642  -7.559   1.331  0.00  0.00    -0.125 NA
ATOM     26  C   UNL     1      -1.661  -8.333   1.012  0.00  0.00    +0.183 A 
ATOM     27  S   UNL     1      -1.981  -7.819  -0.669  0.00  0.00    -0.025 S 
ATOM     28  N   UNL     1      -2.316  -9.288   1.780  0.00  0.00    -0.319 N 
ATOM     29  H   UNL     1      -3.059  -9.786   1.406  0.00  0.00    +0.148 HD
BRANCH  28  30
ATOM     30  C   UNL     1      -1.883  -9.544   3.156  0.00  0.00    +0.072 C 
ATOM     31  C   UNL     1      -0.731 -10.551   3.150  0.00  0.00    +0.022 C 
ATOM     32  C   UNL     1      -0.279 -10.818   4.587  0.00  0.00    +0.002 C 
ATOM     33  C   UNL     1      -1.448 -11.387   5.392  0.00  0.00    +0.000 C 
ATOM     34  C   UNL     1      -2.600 -10.380   5.399  0.00  0.00    +0.002 C 
ATOM     35  C   UNL     1      -3.053 -10.113   3.962  0.00  0.00    +0.022 C 
ENDBRANCH  28  30
ENDBRANCH  22  23
ENDBRANCH  21  22
ENDBRANCH   2  21
TORSDOF 8
