REMARK  Name = ZINC39668769
REMARK  12 active torsions:
REMARK  status: ('A' for Active; 'I' for Inactive)
REMARK    1  A    between atoms: C_1  and  C_2
REMARK    2  A    between atoms: C_2  and  C_4
REMARK    3  A    between atoms: C_2  and  O_33
REMARK    4  A    between atoms: C_4  and  N_5
REMARK    5  A    between atoms: C_6  and  C_8
REMARK    6  A    between atoms: C_19  and  C_21
REMARK    7  A    between atoms: C_21  and  C_23
REMARK    8  A    between atoms: C_21  and  O_26
REMARK    9  A    between atoms: C_23  and  C_24
REMARK   10  A    between atoms: C_23  and  C_25
REMARK   11  A    between atoms: O_26  and  C_27
REMARK   12  A    between atoms: O_33  and  C_34
REMARK                            x       y       z     vdW  Elec       q    Type
REMARK                         _______ _______ _______ _____ _____    ______ ____
ROOT
ATOM      1  C   UNL     1      -2.462  -5.095   1.132  0.00  0.00    +0.100 C 
ATOM      2  C   UNL     1      -2.078  -4.951   2.622  0.00  0.00    +0.121 C 
ATOM      3  N   UNL     1      -3.326  -4.513   3.289  0.00  0.00    -0.297 N 
ATOM      4  C   UNL     1      -4.395  -5.293   2.622  0.00  0.00    +0.115 C 
ATOM      5  C   UNL     1      -3.983  -5.324   1.137  0.00  0.00    -0.004 C 
ATOM      6  C   UNL     1      -4.316  -6.681   0.524  0.00  0.00    -0.010 C 
ATOM      7  C   UNL     1      -5.836  -6.860   0.486  0.00  0.00    -0.082 C 
ATOM      8  N   UNL     1      -6.439  -5.782  -0.307  0.00  0.00    +0.379 N 
ATOM      9  C   UNL     1      -6.193  -4.487   0.340  0.00  0.00    -0.082 C 
ATOM     10  C   UNL     1      -4.688  -4.207   0.372  0.00  0.00    -0.010 C 
ATOM     11  C   UNL     1      -3.460  -3.608   4.280  0.00  0.00    +0.257 C 
ATOM     12  O   UNL     1      -4.547  -3.412   4.779  0.00  0.00    -0.272 OA
ATOM     13  H   UNL     1      -6.032  -5.777  -1.230  0.00  0.00    -0.086 HD
ATOM     14  H   UNL     1      -7.433  -5.936  -0.381  0.00  0.00    -0.086 HD
ENDROOT
BRANCH   1  16
ATOM     15  N   UNL     1      -1.432  -3.906  -0.776  0.00  0.00    -0.312 N 
ATOM     16  C   UNL     1      -2.124  -3.835   0.378  0.00  0.00    +0.218 C 
ATOM     17  O   UNL     1      -2.473  -2.757   0.810  0.00  0.00    -0.275 OA
ATOM     18  H   UNL     1      -1.152  -4.768  -1.122  0.00  0.00    +0.149 HD
BRANCH  15  19
ATOM     19  C   UNL     1      -1.103  -2.681  -1.509  0.00  0.00    +0.148 C 
BRANCH  19  21
ATOM     20  C   UNL     1       0.024  -1.759  -3.540  0.00  0.00    +0.053 C 
ATOM     21  C   UNL     1      -0.320  -3.038  -2.775  0.00  0.00    +0.187 C 
BRANCH  21  22
ATOM     22  O   UNL     1       0.885  -3.716  -2.414  0.00  0.00    -0.486 OA
BRANCH  22  23
ATOM     23  C   UNL     1       1.402  -4.583  -3.325  0.00  0.00    +0.139 A 
ATOM     24  C   UNL     1       0.836  -4.696  -4.591  0.00  0.00    +0.049 A 
ATOM     25  C   UNL     1       1.398  -5.592  -5.486  0.00  0.00    +0.023 A 
ATOM     26  C   UNL     1       2.494  -6.339  -5.094  0.00  0.00    +0.111 A 
ATOM     27  N   UNL     1       3.006  -6.208  -3.886  0.00  0.00    -0.260 NA
ATOM     28  C   UNL     1       2.504  -5.362  -3.008  0.00  0.00    +0.156 A 
ENDBRANCH  22  23
ENDBRANCH  21  22
ENDBRANCH  19  21
ENDBRANCH  15  19
ENDBRANCH   1  16
BRANCH  11  29
ATOM     29  C   UNL     1      -2.257  -2.842   4.768  0.00  0.00    +0.261 C 
BRANCH  29  30
ATOM     30  C   UNL     1      -2.438  -1.356   4.454  0.00  0.00    +0.033 C 
ATOM     31  C   UNL     1      -1.276  -0.562   5.055  0.00  0.00    +0.011 C 
ATOM     32  C   UNL     1      -2.464  -1.153   2.938  0.00  0.00    +0.011 C 
ENDBRANCH  29  30
BRANCH  29  33
ATOM     33  O   UNL     1      -2.120  -3.018   6.179  0.00  0.00    -0.479 OA
BRANCH  33  34
ATOM     34  C   UNL     1      -0.856  -3.106   6.670  0.00  0.00    +0.122 A 
ATOM     35  C   UNL     1      -0.649  -3.238   8.036  0.00  0.00    +0.045 A 
ATOM     36  C   UNL     1       0.637  -3.327   8.532  0.00  0.00    +0.004 A 
ATOM     37  C   UNL     1       1.717  -3.284   7.670  0.00  0.00    +0.000 A 
ATOM     38  C   UNL     1       1.513  -3.152   6.309  0.00  0.00    +0.004 A 
ATOM     39  C   UNL     1       0.229  -3.069   5.807  0.00  0.00    +0.045 A 
ENDBRANCH  33  34
ENDBRANCH  29  33
ENDBRANCH  11  29
TORSDOF 9
