REMARK  Name = ZINC13073191
REMARK  8 active torsions:
REMARK  status: ('A' for Active; 'I' for Inactive)
REMARK    1  A    between atoms: C_1  and  N_57
REMARK    2  A    between atoms: C_2  and  N_57
REMARK    3  A    between atoms: C_3  and  C_5
REMARK    4  A    between atoms: C_3  and  C_27
REMARK    5  A    between atoms: C_3  and  N_57
REMARK    6  A    between atoms: C_5  and  N_6
REMARK    7  A    between atoms: N_17  and  S_18
REMARK    8  A    between atoms: S_18  and  C_21
REMARK                            x       y       z     vdW  Elec       q    Type
REMARK                         _______ _______ _______ _____ _____    ______ ____
ROOT
ATOM      1  N   UNL     1       4.339  -2.172  -4.216  0.00  0.00    -0.328 N 
ATOM      2  C   UNL     1       4.036  -1.020  -3.507  0.00  0.00    +0.161 A 
ATOM      3  C   UNL     1       3.421  -1.119  -2.235  0.00  0.00    +0.179 A 
ATOM      4  N   UNL     1       3.123  -0.032  -1.553  0.00  0.00    -0.226 NA
ATOM      5  C   UNL     1       3.413   1.175  -2.062  0.00  0.00    +0.091 A 
ATOM      6  C   UNL     1       3.109   2.347  -1.352  0.00  0.00    +0.030 A 
ATOM      7  C   UNL     1       3.408   3.561  -1.893  0.00  0.00    +0.002 A 
ATOM      8  C   UNL     1       4.013   3.658  -3.143  0.00  0.00    +0.002 A 
ATOM      9  C   UNL     1       4.321   2.541  -3.859  0.00  0.00    +0.030 A 
ATOM     10  C   UNL     1       4.027   1.273  -3.333  0.00  0.00    +0.091 A 
ATOM     11  N   UNL     1       4.321   0.158  -4.020  0.00  0.00    -0.227 NA
ATOM     12  N   UNL     1       3.126  -2.366  -1.707  0.00  0.00    -0.197 N 
ATOM     13  H   UNL     1       4.130  -3.042  -3.841  0.00  0.00    +0.147 HD
ATOM     14  H   UNL     1       3.341  -3.168  -2.208  0.00  0.00    +0.175 HD
ENDROOT
BRANCH  12  15
ATOM     15  S   UNL     1       2.407  -2.487  -0.220  0.00  0.00    +0.074 S 
ATOM     16  O   UNL     1       3.150  -1.654   0.659  0.00  0.00    -0.150 OA
ATOM     17  O   UNL     1       2.214  -3.873   0.026  0.00  0.00    -0.150 OA
BRANCH  15  18
ATOM     18  C   UNL     1       0.803  -1.771  -0.357  0.00  0.00    +0.109 A 
ATOM     19  C   UNL     1      -0.276  -2.557  -0.715  0.00  0.00    +0.029 A 
ATOM     20  C   UNL     1      -1.534  -1.995  -0.823  0.00  0.00    +0.002 A 
ATOM     21  C   UNL     1      -1.713  -0.647  -0.573  0.00  0.00    +0.000 A 
ATOM     22  C   UNL     1      -0.634   0.138  -0.215  0.00  0.00    +0.002 A 
ATOM     23  C   UNL     1       0.624  -0.423  -0.107  0.00  0.00    +0.029 A 
ENDBRANCH  15  18
ENDBRANCH  12  15
BRANCH   1  24
ATOM     24  C   UNL     1       4.975  -2.076  -5.533  0.00  0.00    +0.092 C 
BRANCH  24  25
ATOM     25  C   UNL     1       5.318  -3.479  -6.038  0.00  0.00    -0.021 C 
BRANCH  25  26
ATOM     26  C   UNL     1       6.327  -4.112  -5.115  0.00  0.00    -0.059 A 
ATOM     27  C   UNL     1       7.666  -3.788  -5.228  0.00  0.00    +0.002 A 
ATOM     28  C   UNL     1       8.591  -4.366  -4.379  0.00  0.00    +0.000 A 
ATOM     29  C   UNL     1       8.178  -5.275  -3.423  0.00  0.00    +0.000 A 
ATOM     30  C   UNL     1       6.840  -5.603  -3.313  0.00  0.00    +0.000 A 
ATOM     31  C   UNL     1       5.915  -5.022  -4.160  0.00  0.00    +0.002 A 
ENDBRANCH  25  26
BRANCH  25  34
ATOM     32  C   UNL     1       6.175  -4.723  -7.930  0.00  0.00    -0.096 C 
ATOM     33  C   UNL     1       4.984  -2.645  -8.286  0.00  0.00    -0.096 C 
ATOM     34  N   UNL     1       5.906  -3.374  -7.390  0.00  0.00    +0.382 N 
ATOM     35  H   UNL     1       6.791  -2.856  -7.329  0.00  0.00    -0.082 HD
ENDBRANCH  25  34
ENDBRANCH  24  25
ENDBRANCH   1  24
TORSDOF 6
