REMARK  Name = ZINC03838695
REMARK  14 active torsions:
REMARK  status: ('A' for Active; 'I' for Inactive)
REMARK    1  A    between atoms: C_1  and  C_2
REMARK    2  A    between atoms: C_2  and  C_3
REMARK    3  A    between atoms: C_2  and  C_4
REMARK    4  A    between atoms: C_4  and  C_5
REMARK    5  A    between atoms: C_5  and  C_7
REMARK    6  A    between atoms: C_5  and  N_68
REMARK    7  A    between atoms: N_9  and  C_10
REMARK    8  A    between atoms: C_13  and  C_21
REMARK    9  A    between atoms: C_15  and  O_20
REMARK   10  A    between atoms: C_17  and  O_19
REMARK   11  A    between atoms: C_32  and  C_34
REMARK   12  A    between atoms: C_34  and  O_36
REMARK   13  A    between atoms: O_36  and  C_37
REMARK   14  A    between atoms: C_38  and  N_68
REMARK                            x       y       z     vdW  Elec       q    Type
REMARK                         _______ _______ _______ _____ _____    ______ ____
ROOT
ATOM      1  C   UNL     1       5.277   4.705  -1.736  0.00  0.00    +0.127 C 
ATOM      2  C   UNL     1       4.183   5.432  -1.010  0.00  0.00    +0.006 C 
ATOM      3  C   UNL     1       2.903   5.277  -1.272  0.00  0.00    +0.015 C 
ATOM      4  C   UNL     1       2.373   4.356  -2.333  0.00  0.00    +0.074 C 
ATOM      5  C   UNL     1       3.451   3.356  -2.751  0.00  0.00    +0.149 C 
ATOM      6  C   UNL     1       4.745   4.125  -3.048  0.00  0.00    +0.167 C 
ENDROOT
BRANCH   3   7
ATOM      7  C   UNL     1       1.935   6.046  -0.476  0.00  0.00    +0.243 C 
ATOM      8  O   UNL     1       0.746   5.965  -0.720  0.00  0.00    -0.270 OA
ATOM      9  N   UNL     1       2.365   6.841   0.524  0.00  0.00    -0.280 N 
ATOM     10  C   UNL     1       3.689   7.470   0.483  0.00  0.00    +0.144 C 
ATOM     11  C   UNL     1       3.580   8.913   0.906  0.00  0.00    -0.027 A 
ATOM     12  C   UNL     1       4.683   9.732   0.707  0.00  0.00    +0.005 A 
ATOM     13  C   UNL     1       4.652  11.056   1.093  0.00  0.00    +0.000 A 
ATOM     14  C   UNL     1       3.513  11.569   1.687  0.00  0.00    +0.000 A 
ATOM     15  C   UNL     1       2.413  10.760   1.875  0.00  0.00    +0.004 A 
ATOM     16  C   UNL     1       2.441   9.427   1.484  0.00  0.00    -0.040 A 
ATOM     17  C   UNL     1       1.199   8.606   1.712  0.00  0.00    +0.069 C 
ATOM     18  C   UNL     1       1.524   7.113   1.702  0.00  0.00    +0.189 C 
BRANCH  18  19
ATOM     19  C   UNL     1       0.249   6.314   1.614  0.00  0.00    +0.328 C 
ATOM     20  O   UNL     1       0.290   5.138   1.341  0.00  0.00    -0.249 OA
BRANCH  19  21
ATOM     21  O   UNL     1      -0.933   6.910   1.840  0.00  0.00    -0.467 OA
ATOM     22  C   UNL     1      -2.120   6.079   1.738  0.00  0.00    +0.280 C 
ENDBRANCH  19  21
ENDBRANCH  18  19
ENDBRANCH   3   7
BRANCH   1  25
ATOM     23  C   UNL     1       6.728   3.860   0.030  0.00  0.00    +0.200 C 
ATOM     24  O   UNL     1       7.168   4.982   0.165  0.00  0.00    -0.278 OA
ATOM     25  N   UNL     1       5.778   3.615  -0.894  0.00  0.00    -0.308 N 
ATOM     26  H   UNL     1       5.426   2.718  -1.002  0.00  0.00    +0.149 HD
BRANCH  23  27
ATOM     27  C   UNL     1       7.243   2.739   0.896  0.00  0.00    +0.016 C 
BRANCH  27  29
ATOM     28  C   UNL     1       9.593   2.752   0.313  0.00  0.00    -0.099 C 
ATOM     29  N   UNL     1       8.604   3.062   1.363  0.00  0.00    +0.385 N 
ATOM     30  H   UNL     1       8.815   2.508   2.201  0.00  0.00    -0.085 HD
ATOM     31  H   UNL     1       8.655   4.062   1.591  0.00  0.00    -0.085 HD
ENDBRANCH  27  29
BRANCH  27  32
ATOM     32  C   UNL     1       6.324   2.567   2.108  0.00  0.00    -0.004 C 
BRANCH  32  34
ATOM     33  C   UNL     1       5.935   1.252   4.196  0.00  0.00    +0.007 C 
ATOM     34  C   UNL     1       6.774   1.351   2.920  0.00  0.00    -0.018 C 
ATOM     35  C   UNL     1       6.585   0.083   2.087  0.00  0.00    +0.007 C 
ENDBRANCH  32  34
ENDBRANCH  27  32
ENDBRANCH  23  27
ENDBRANCH   1  25
BRANCH   6  36
ATOM     36  O   UNL     1       5.715   3.239  -3.610  0.00  0.00    -0.387 OA
ATOM     37  H   UNL     1       5.442   2.835  -4.445  0.00  0.00    +0.210 HD
ENDBRANCH   6  36
BRANCH   5  38
ATOM     38  O   UNL     1       3.032   2.651  -3.921  0.00  0.00    -0.389 OA
ATOM     39  H   UNL     1       2.218   2.143  -3.803  0.00  0.00    +0.210 HD
ENDBRANCH   5  38
TORSDOF 10
