REMARK  Name = ZINC13495957
REMARK  14 active torsions:
REMARK  status: ('A' for Active; 'I' for Inactive)
REMARK    1  A    between atoms: C_1  and  C_2
REMARK    2  A    between atoms: C_2  and  C_3
REMARK    3  A    between atoms: C_3  and  C_5
REMARK    4  A    between atoms: C_3  and  N_79
REMARK    5  A    between atoms: N_9  and  C_10
REMARK    6  A    between atoms: C_16  and  C_17
REMARK    7  A    between atoms: C_16  and  N_79
REMARK    8  A    between atoms: C_17  and  C_18
REMARK    9  A    between atoms: C_22  and  C_24
REMARK   10  A    between atoms: C_25  and  C_26
REMARK   11  A    between atoms: C_25  and  N_79
REMARK   12  A    between atoms: C_30  and  O_38
REMARK   13  A    between atoms: O_38  and  C_39
REMARK   14  A    between atoms: C_39  and  C_40
REMARK                            x       y       z     vdW  Elec       q    Type
REMARK                         _______ _______ _______ _____ _____    ______ ____
ROOT
ATOM      1  N   UNL     1      -3.656   4.912   1.918  0.00  0.00    +0.389 N 
ATOM      2  H   UNL     1      -3.184   5.417   2.677  0.00  0.00    -0.080 HD
ENDROOT
BRANCH   1   3
ATOM      3  C   UNL     1      -4.483   5.865   1.149  0.00  0.00    +0.003 C 
BRANCH   3   4
ATOM      4  C   UNL     1      -3.771   7.192   1.104  0.00  0.00    +0.138 A 
ATOM      5  N   UNL     1      -2.490   7.387   0.906  0.00  0.00    -0.115 NA
ATOM      6  N   UNL     1      -2.270   8.656   0.938  0.00  0.00    -0.023 NA
ATOM      7  N   UNL     1      -3.378   9.276   1.150  0.00  0.00    -0.044 NA
ATOM      8  N   UNL     1      -4.327   8.409   1.253  0.00  0.00    -0.228 N 
BRANCH   8   9
ATOM      9  C   UNL     1      -5.744   8.694   1.491  0.00  0.00    +0.111 C 
ATOM     10  C   UNL     1      -6.288   9.562   0.354  0.00  0.00    +0.027 C 
ATOM     11  C   UNL     1      -7.768   9.860   0.603  0.00  0.00    +0.002 C 
ATOM     12  C   UNL     1      -7.922  10.604   1.931  0.00  0.00    +0.000 C 
ATOM     13  C   UNL     1      -7.379   9.736   3.068  0.00  0.00    +0.002 C 
ATOM     14  C   UNL     1      -5.899   9.438   2.819  0.00  0.00    +0.027 C 
ENDBRANCH   8   9
ENDBRANCH   3   4
BRANCH   3  16
ATOM     15  C   UNL     1      -5.475   4.036  -0.234  0.00  0.00    +0.002 C 
ATOM     16  C   UNL     1      -4.701   5.355  -0.277  0.00  0.00    -0.011 C 
ENDBRANCH   3  16
ENDBRANCH   1   3
BRANCH   1  17
ATOM     17  C   UNL     1      -4.511   3.857   2.501  0.00  0.00    -0.073 C 
BRANCH  17  18
ATOM     18  C   UNL     1      -5.312   4.457   3.658  0.00  0.00    +0.016 C 
BRANCH  18  19
ATOM     19  C   UNL     1      -6.073   3.364   4.363  0.00  0.00    -0.049 A 
ATOM     20  C   UNL     1      -7.354   3.040   3.956  0.00  0.00    +0.003 A 
ATOM     21  C   UNL     1      -8.050   2.035   4.600  0.00  0.00    +0.001 A 
ATOM     22  C   UNL     1      -7.469   1.359   5.657  0.00  0.00    +0.003 A 
ATOM     23  C   UNL     1      -6.190   1.686   6.067  0.00  0.00    -0.050 A 
ATOM     24  C   UNL     1      -5.492   2.689   5.420  0.00  0.00    +0.007 A 
ATOM     25  C   UNL     1      -5.556   0.950   7.219  0.00  0.00    +0.044 C 
ENDBRANCH  18  19
ENDBRANCH  17  18
ENDBRANCH   1  17
BRANCH   1  26
ATOM     26  C   UNL     1      -2.635   4.305   1.038  0.00  0.00    -0.037 C 
BRANCH  26  27
ATOM     27  C   UNL     1      -1.599   3.625   1.895  0.00  0.00    +0.001 A 
ATOM     28  C   UNL     1      -1.699   2.297   2.151  0.00  0.00    +0.017 A 
ATOM     29  C   UNL     1      -0.672   1.665   2.982  0.00  0.00    +0.002 A 
ATOM     30  C   UNL     1      -0.720   0.298   3.273  0.00  0.00    +0.055 A 
ATOM     31  C   UNL     1       0.261  -0.265   4.065  0.00  0.00    +0.121 A 
ATOM     32  C   UNL     1       1.292   0.522   4.572  0.00  0.00    +0.047 A 
ATOM     33  C   UNL     1       1.351   1.869   4.291  0.00  0.00    +0.030 A 
ATOM     34  C   UNL     1       0.372   2.456   3.495  0.00  0.00    +0.049 A 
ATOM     35  N   UNL     1       0.413   3.805   3.204  0.00  0.00    -0.322 N 
ATOM     36  H   UNL     1       1.133   4.349   3.558  0.00  0.00    +0.169 HD
ATOM     37  C   UNL     1      -0.531   4.375   2.435  0.00  0.00    +0.251 A 
ATOM     38  O   UNL     1      -0.464   5.568   2.197  0.00  0.00    -0.268 OA
BRANCH  31  39
ATOM     39  O   UNL     1       0.219  -1.593   4.352  0.00  0.00    -0.492 OA
BRANCH  39  40
ATOM     40  C   UNL     1       1.264  -2.112   5.176  0.00  0.00    +0.225 C 
ATOM     41  C   UNL     1       1.050  -3.612   5.388  0.00  0.00    +0.048 C 
ENDBRANCH  39  40
ENDBRANCH  31  39
ENDBRANCH  26  27
ENDBRANCH   1  26
TORSDOF 11
