REMARK  Name = ZINC06444127
REMARK  10 active torsions:
REMARK  status: ('A' for Active; 'I' for Inactive)
REMARK    1  A    between atoms: C_1  and  C_2
REMARK    2  A    between atoms: C_12  and  C_14
REMARK    3  A    between atoms: C_14  and  C_16
REMARK    4  A    between atoms: C_14  and  N_64
REMARK    5  A    between atoms: N_20  and  C_21
REMARK    6  A    between atoms: C_21  and  C_22
REMARK    7  A    between atoms: C_28  and  C_29
REMARK    8  A    between atoms: C_28  and  N_64
REMARK    9  A    between atoms: C_34  and  C_35
REMARK   10  A    between atoms: C_34  and  N_64
REMARK                            x       y       z     vdW  Elec       q    Type
REMARK                         _______ _______ _______ _____ _____    ______ ____
ROOT
ATOM      1  C   UNL     1       0.146  -2.814   5.010  0.00  0.00    +0.040 C 
ENDROOT
BRANCH   1  13
ATOM      2  C   UNL     1      -2.742   0.767   0.316  0.00  0.00    +0.046 C 
ATOM      3  C   UNL     1      -2.317  -0.678   0.345  0.00  0.00    -0.026 A 
ATOM      4  C   UNL     1      -2.530  -1.484  -0.753  0.00  0.00    +0.005 A 
ATOM      5  C   UNL     1      -2.138  -2.816  -0.740  0.00  0.00    +0.001 A 
ATOM      6  C   UNL     1      -1.545  -3.356   0.366  0.00  0.00    +0.010 A 
ATOM      7  C   UNL     1      -1.325  -2.558   1.493  0.00  0.00    -0.001 A 
ATOM      8  C   UNL     1      -1.715  -1.206   1.482  0.00  0.00    +0.052 A 
ATOM      9  N   UNL     1      -1.494  -0.424   2.596  0.00  0.00    -0.322 N 
ATOM     10  H   UNL     1      -1.764   0.508   2.587  0.00  0.00    +0.169 HD
ATOM     11  C   UNL     1      -0.912  -0.934   3.695  0.00  0.00    +0.251 A 
ATOM     12  O   UNL     1      -0.734  -0.214   4.662  0.00  0.00    -0.268 OA
ATOM     13  C   UNL     1      -0.503  -2.284   3.758  0.00  0.00    +0.011 A 
ATOM     14  C   UNL     1      -0.691  -3.104   2.695  0.00  0.00    +0.017 A 
ENDBRANCH   1  13
BRANCH   1  15
ATOM     15  C   UNL     1      -0.812  -2.684   6.166  0.00  0.00    +0.143 A 
ATOM     16  N   UNL     1      -1.165  -1.575   6.769  0.00  0.00    -0.115 NA
ATOM     17  N   UNL     1      -2.000  -1.877   7.703  0.00  0.00    -0.023 NA
ATOM     18  N   UNL     1      -2.182  -3.151   7.716  0.00  0.00    -0.044 NA
ATOM     19  N   UNL     1      -1.467  -3.684   6.784  0.00  0.00    -0.226 N 
BRANCH  19  20
ATOM     20  C   UNL     1      -1.384  -5.110   6.459  0.00  0.00    +0.182 C 
BRANCH  20  21
ATOM     21  C   UNL     1      -0.377  -5.774   7.363  0.00  0.00    -0.026 A 
ATOM     22  C   UNL     1       0.949  -5.851   6.981  0.00  0.00    +0.005 A 
ATOM     23  C   UNL     1       1.873  -6.455   7.813  0.00  0.00    +0.000 A 
ATOM     24  C   UNL     1       1.469  -6.991   9.021  0.00  0.00    +0.000 A 
ATOM     25  C   UNL     1       0.142  -6.918   9.401  0.00  0.00    +0.000 A 
ATOM     26  C   UNL     1      -0.781  -6.309   8.571  0.00  0.00    +0.005 A 
ENDBRANCH  20  21
ENDBRANCH  19  20
ENDBRANCH   1  15
BRANCH   1  27
ATOM     27  N   UNL     1       1.356  -2.017   5.301  0.00  0.00    +0.397 N 
ATOM     28  H   UNL     1       1.076  -1.055   5.523  0.00  0.00    -0.079 HD
BRANCH  27  29
ATOM     29  C   UNL     1       2.244  -1.998   4.120  0.00  0.00    -0.001 C 
BRANCH  29  30
ATOM     30  C   UNL     1       1.925  -0.775   3.300  0.00  0.00    +0.089 A 
ATOM     31  C   UNL     1       2.378   0.469   3.534  0.00  0.00    +0.042 A 
ATOM     32  C   UNL     1       1.834   1.300   2.528  0.00  0.00    +0.041 A 
ATOM     33  C   UNL     1       1.080   0.514   1.739  0.00  0.00    +0.195 A 
ATOM     34  O   UNL     1       1.144  -0.743   2.208  0.00  0.00    -0.470 OA
ENDBRANCH  29  30
ENDBRANCH  27  29
BRANCH  27  35
ATOM     35  C   UNL     1       2.071  -2.589   6.461  0.00  0.00    -0.034 C 
BRANCH  35  36
ATOM     36  C   UNL     1       1.381  -2.138   7.723  0.00  0.00    -0.027 A 
ATOM     37  C   UNL     1       0.627  -2.859   8.588  0.00  0.00    +0.009 A 
ATOM     38  C   UNL     1       0.088  -2.228   9.694  0.00  0.00    +0.008 A 
ATOM     39  C   UNL     1       0.328  -0.907   9.880  0.00  0.00    +0.045 A 
ATOM     40  S   UNL     1       1.351  -0.516   8.469  0.00  0.00    -0.103 S 
ENDBRANCH  35  36
ENDBRANCH  27  35
ENDBRANCH   1  27
TORSDOF 9
