REMARK  Name = ZINC09442053
REMARK  9 active torsions:
REMARK  status: ('A' for Active; 'I' for Inactive)
REMARK    1  A    between atoms: C_4  and  C_7
REMARK    2  A    between atoms: C_7  and  S_8
REMARK    3  A    between atoms: S_8  and  N_11
REMARK    4  A    between atoms: C_16  and  C_18
REMARK    5  A    between atoms: C_16  and  C_29
REMARK    6  A    between atoms: C_16  and  N_63
REMARK    7  A    between atoms: C_18  and  N_19
REMARK    8  A    between atoms: N_19  and  S_20
REMARK    9  A    between atoms: S_20  and  C_23
REMARK                            x       y       z     vdW  Elec       q    Type
REMARK                         _______ _______ _______ _____ _____    ______ ____
ROOT
ATOM      1  C   UNL     1       0.002  -0.004   0.002  0.00  0.00    -0.022 C 
ENDROOT
BRANCH   1   7
ATOM      2  N   UNL     1      -0.783   3.941  -1.195  0.00  0.00    -0.184 NA
ATOM      3  C   UNL     1       0.401   3.722  -0.352  0.00  0.00    +0.090 C 
ATOM      4  C   UNL     1       0.792   2.243  -0.435  0.00  0.00    -0.061 C 
ATOM      5  C   UNL     1      -1.461   1.603  -1.067  0.00  0.00    -0.061 C 
ATOM      6  C   UNL     1      -1.943   3.056  -1.009  0.00  0.00    +0.090 C 
ATOM      7  N   UNL     1      -0.383   1.421  -0.070  0.00  0.00    +0.387 N 
ATOM      8  H   UNL     1      -0.726   1.720   0.850  0.00  0.00    -0.081 HD
BRANCH   2   9
ATOM      9  S   UNL     1      -0.811   5.151  -2.325  0.00  0.00    +0.036 S 
ATOM     10  O   UNL     1      -2.187   5.470  -2.482  0.00  0.00    -0.158 OA
ATOM     11  O   UNL     1       0.107   6.122  -1.839  0.00  0.00    -0.158 OA
BRANCH   9  12
ATOM     12  C   UNL     1      -0.169   4.389  -3.841  0.00  0.00    +0.220 C 
BRANCH  12  16
ATOM     13  C   UNL     1      -0.113   7.286  -6.979  0.00  0.00    +0.000 A 
ATOM     14  C   UNL     1       0.990   7.133  -6.160  0.00  0.00    +0.000 A 
ATOM     15  C   UNL     1       0.972   6.196  -5.144  0.00  0.00    +0.005 A 
ATOM     16  C   UNL     1      -0.149   5.411  -4.948  0.00  0.00    -0.025 A 
ATOM     17  C   UNL     1      -1.250   5.560  -5.771  0.00  0.00    +0.005 A 
ATOM     18  C   UNL     1      -1.234   6.501  -6.783  0.00  0.00    +0.000 A 
ENDBRANCH  12  16
ENDBRANCH   9  12
ENDBRANCH   2   9
ENDBRANCH   1   7
BRANCH   1  19
ATOM     19  C   UNL     1       0.482  -0.493  -1.340  0.00  0.00    -0.060 A 
ATOM     20  C   UNL     1       1.817  -0.797  -1.528  0.00  0.00    +0.002 A 
ATOM     21  C   UNL     1       2.257  -1.249  -2.758  0.00  0.00    +0.000 A 
ATOM     22  C   UNL     1       1.363  -1.388  -3.803  0.00  0.00    +0.000 A 
ATOM     23  C   UNL     1       0.028  -1.079  -3.617  0.00  0.00    +0.000 A 
ATOM     24  C   UNL     1      -0.412  -0.631  -2.386  0.00  0.00    +0.002 A 
ENDBRANCH   1  19
BRANCH   1  25
ATOM     25  C   UNL     1      -1.214  -0.824   0.438  0.00  0.00    +0.095 C 
BRANCH  25  26
ATOM     26  N   UNL     1      -1.753  -0.273   1.684  0.00  0.00    -0.191 NA
ATOM     27  H   UNL     1      -1.223   0.347   2.209  0.00  0.00    +0.148 HD
BRANCH  26  28
ATOM     28  S   UNL     1      -3.267  -0.708   2.195  0.00  0.00    +0.058 S 
ATOM     29  O   UNL     1      -3.487  -0.038   3.429  0.00  0.00    -0.153 OA
ATOM     30  O   UNL     1      -4.133  -0.553   1.079  0.00  0.00    -0.153 OA
BRANCH  28  31
ATOM     31  C   UNL     1      -3.218  -2.431   2.560  0.00  0.00    +0.105 A 
ATOM     32  C   UNL     1      -3.515  -3.355   1.575  0.00  0.00    +0.028 A 
ATOM     33  C   UNL     1      -3.472  -4.707   1.860  0.00  0.00    +0.002 A 
ATOM     34  C   UNL     1      -3.143  -5.135   3.132  0.00  0.00    +0.000 A 
ATOM     35  C   UNL     1      -2.852  -4.211   4.119  0.00  0.00    +0.002 A 
ATOM     36  C   UNL     1      -2.889  -2.859   3.832  0.00  0.00    +0.028 A 
ENDBRANCH  28  31
ENDBRANCH  26  28
ENDBRANCH  25  26
ENDBRANCH   1  25
TORSDOF 9
