REMARK  Name = ZINC39675572
REMARK  12 active torsions:
REMARK  status: ('A' for Active; 'I' for Inactive)
REMARK    1  A    between atoms: C_1  and  N_2
REMARK    2  A    between atoms: N_2  and  C_3
REMARK    3  A    between atoms: N_2  and  C_4
REMARK    4  A    between atoms: C_4  and  C_6
REMARK    5  A    between atoms: C_4  and  C_33
REMARK    6  A    between atoms: C_6  and  N_7
REMARK    7  A    between atoms: C_8  and  C_10
REMARK    8  A    between atoms: C_21  and  C_23
REMARK    9  A    between atoms: C_25  and  O_31
REMARK   10  A    between atoms: C_27  and  O_29
REMARK   11  A    between atoms: O_29  and  C_30
REMARK   12  A    between atoms: O_31  and  C_32
REMARK                            x       y       z     vdW  Elec       q    Type
REMARK                         _______ _______ _______ _____ _____    ______ ____
ROOT
ATOM      1  C   UNL     1      -0.468   6.796  -1.502  0.00  0.00    +0.100 C 
ATOM      2  C   UNL     1       0.530   6.226  -2.535  0.00  0.00    +0.121 C 
ATOM      3  N   UNL     1      -0.324   5.648  -3.600  0.00  0.00    -0.296 N 
ATOM      4  C   UNL     1      -1.440   6.613  -3.741  0.00  0.00    +0.115 C 
ATOM      5  C   UNL     1      -1.758   7.052  -2.298  0.00  0.00    -0.004 C 
ATOM      6  C   UNL     1      -2.902   6.215  -1.733  0.00  0.00    -0.010 C 
ATOM      7  C   UNL     1      -4.187   6.529  -2.505  0.00  0.00    -0.082 C 
ATOM      8  N   UNL     1      -4.495   7.959  -2.385  0.00  0.00    +0.379 N 
ATOM      9  C   UNL     1      -3.433   8.754  -3.014  0.00  0.00    -0.082 C 
ATOM     10  C   UNL     1      -2.116   8.534  -2.264  0.00  0.00    -0.010 C 
ATOM     11  C   UNL     1      -0.128   4.504  -4.285  0.00  0.00    +0.247 C 
ATOM     12  O   UNL     1      -0.910   4.177  -5.157  0.00  0.00    -0.270 OA
ATOM     13  H   UNL     1      -5.373   8.153  -2.843  0.00  0.00    -0.086 HD
ATOM     14  H   UNL     1      -4.565   8.206  -1.409  0.00  0.00    -0.086 HD
ENDROOT
BRANCH  11  15
ATOM     15  C   UNL     1       1.037   3.647  -3.978  0.00  0.00    +0.044 A 
ATOM     16  C   UNL     1       1.089   2.944  -2.774  0.00  0.00    +0.059 A 
ATOM     17  C   UNL     1       2.182   2.142  -2.490  0.00  0.00    +0.124 A 
ATOM     18  C   UNL     1       3.225   2.039  -3.400  0.00  0.00    +0.091 A 
ATOM     19  C   UNL     1       3.177   2.737  -4.598  0.00  0.00    +0.124 A 
ATOM     20  C   UNL     1       2.085   3.536  -4.892  0.00  0.00    +0.059 A 
BRANCH  19  21
ATOM     21  O   UNL     1       4.200   2.632  -5.485  0.00  0.00    -0.495 OA
ATOM     22  C   UNL     1       5.292   1.786  -5.120  0.00  0.00    +0.277 C 
ENDBRANCH  19  21
BRANCH  17  23
ATOM     23  O   UNL     1       2.234   1.456  -1.318  0.00  0.00    -0.495 OA
ATOM     24  C   UNL     1       3.391   0.648  -1.089  0.00  0.00    +0.277 C 
ENDBRANCH  17  23
ENDBRANCH  11  15
BRANCH   1  26
ATOM     25  N   UNL     1      -1.110   6.211   0.814  0.00  0.00    -0.316 N 
ATOM     26  C   UNL     1      -0.718   5.793  -0.405  0.00  0.00    +0.218 C 
ATOM     27  O   UNL     1      -0.566   4.609  -0.620  0.00  0.00    -0.275 OA
ATOM     28  H   UNL     1      -1.309   7.149   0.964  0.00  0.00    +0.149 HD
BRANCH  25  29
ATOM     29  C   UNL     1      -1.237   5.250   1.913  0.00  0.00    +0.093 C 
BRANCH  29  30
ATOM     30  C   UNL     1      -1.586   5.995   3.203  0.00  0.00    -0.021 C 
BRANCH  30  31
ATOM     31  C   UNL     1      -2.210   7.324   2.864  0.00  0.00    -0.059 A 
ATOM     32  C   UNL     1      -3.545   7.391   2.512  0.00  0.00    +0.002 A 
ATOM     33  C   UNL     1      -4.117   8.610   2.201  0.00  0.00    +0.000 A 
ATOM     34  C   UNL     1      -3.355   9.762   2.242  0.00  0.00    +0.000 A 
ATOM     35  C   UNL     1      -2.020   9.695   2.595  0.00  0.00    +0.000 A 
ATOM     36  C   UNL     1      -1.448   8.477   2.910  0.00  0.00    +0.002 A 
ENDBRANCH  30  31
BRANCH  30  38
ATOM     37  C   UNL     1      -1.940   3.885   4.288  0.00  0.00    -0.096 C 
ATOM     38  N   UNL     1      -2.534   5.194   3.989  0.00  0.00    +0.382 N 
ATOM     39  C   UNL     1      -2.841   5.892   5.245  0.00  0.00    -0.096 C 
ATOM     40  H   UNL     1      -3.384   5.065   3.460  0.00  0.00    -0.082 HD
ENDBRANCH  30  38
ENDBRANCH  29  30
ENDBRANCH  25  29
ENDBRANCH   1  26
TORSDOF 8
