REMARK  Name = ZINC50830584
REMARK  5 active torsions:
REMARK  status: ('A' for Active; 'I' for Inactive)
REMARK    1  A    between atoms: C_3  and  N_20
REMARK    2  A    between atoms: C_4  and  C_10
REMARK    3  A    between atoms: C_6  and  N_7
REMARK    4  A    between atoms: C_10  and  O_11
REMARK    5  A    between atoms: O_11  and  C_12
REMARK                            x       y       z     vdW  Elec       q    Type
REMARK                         _______ _______ _______ _____ _____    ______ ____
ROOT
ATOM      1  C   UNL     1      -0.017   1.378   0.010  0.00  0.00    +0.034 A 
ATOM      2  C   UNL     1       1.169   2.087   0.002  0.00  0.00    +0.025 A 
ATOM      3  C   UNL     1       2.381   1.409  -0.013  0.00  0.00    +0.031 A 
ATOM      4  C   UNL     1       2.396   0.020  -0.021  0.00  0.00    +0.012 A 
ATOM      5  C   UNL     1       1.207  -0.682  -0.013  0.00  0.00    +0.041 A 
ATOM      6  C   UNL     1       0.002  -0.004   0.002  0.00  0.00    +0.127 A 
ENDROOT
BRANCH   6   7
ATOM      7  N   UNL     1      -1.270  -0.760   0.010  0.00  0.00    +0.056 N 
ATOM      8  O   UNL     1      -2.325  -0.168   0.023  0.00  0.00    -0.126 OA
ATOM      9  O   UNL     1      -1.256  -1.969   0.004  0.00  0.00    -0.126 OA
ENDBRANCH   6   7
BRANCH   3  10
ATOM     10  N   UNL     1       3.582   2.122  -0.021  0.00  0.00    -0.358 N 
ATOM     11  H   UNL     1       3.570   3.092  -0.016  0.00  0.00    +0.142 HD
ATOM     12  H   UNL     1       4.428   1.647  -0.032  0.00  0.00    +0.142 HD
ENDBRANCH   3  10
BRANCH   4  13
ATOM     13  C   UNL     1       3.709  -0.720  -0.038  0.00  0.00    +0.266 C 
BRANCH  13  14
ATOM     14  O   UNL     1       3.462  -2.128  -0.043  0.00  0.00    -0.486 OA
BRANCH  14  15
ATOM     15  C   UNL     1       4.549  -2.945  -0.058  0.00  0.00    +0.135 A 
ATOM     16  C   UNL     1       5.825  -2.402  -0.062  0.00  0.00    +0.049 A 
ATOM     17  C   UNL     1       6.929  -3.234  -0.077  0.00  0.00    +0.042 A 
ATOM     18  C   UNL     1       6.761  -4.608  -0.089  0.00  0.00    +0.125 A 
ATOM     19  C   UNL     1       5.488  -5.152  -0.085  0.00  0.00    +0.057 A 
ATOM     20  C   UNL     1       4.382  -4.322  -0.064  0.00  0.00    +0.062 A 
ATOM     21 BR   UNL     1       2.643  -5.065  -0.051  0.00  0.00    -0.046 Br
ATOM     22  F   UNL     1       7.841  -5.419  -0.104  0.00  0.00    -0.205 F 
ENDBRANCH  14  15
ENDBRANCH  13  14
ENDBRANCH   4  13
TORSDOF 5
