REMARK  Name = ZINC20913074
REMARK  7 active torsions:
REMARK  status: ('A' for Active; 'I' for Inactive)
REMARK    1  A    between atoms: C_10  and  C_11
REMARK    2  A    between atoms: N_12  and  N_13
REMARK    3  A    between atoms: C_17  and  S_20
REMARK    4  A    between atoms: N_18  and  N_19
REMARK    5  A    between atoms: S_20  and  C_21
REMARK    6  A    between atoms: C_21  and  C_22
REMARK    7  A    between atoms: N_24  and  C_25
REMARK                            x       y       z     vdW  Elec       q    Type
REMARK                         _______ _______ _______ _____ _____    ______ ____
ROOT
ATOM      1  N   UNL     1      -7.518   2.698   0.045  0.00  0.00    -0.204 N 
ATOM      2  C   UNL     1      -6.133   2.633   0.030  0.00  0.00    +0.254 A 
ATOM      3  N   UNL     1      -5.314   3.656   0.025  0.00  0.00    -0.109 NA
ATOM      4  N   UNL     1      -4.003   3.162   0.014  0.00  0.00    -0.119 NA
ATOM      5  C   UNL     1      -4.065   1.851   0.006  0.00  0.00    +0.210 A 
ATOM      6  N   UNL     1      -5.382   1.490   0.019  0.00  0.00    -0.211 N 
ATOM      7  H   UNL     1      -8.112   1.772   0.049  0.00  0.00    +0.177 HD
ENDROOT
BRANCH   6   8
ATOM      8  N   UNL     1      -5.864   0.212   0.021  0.00  0.00    -0.294 N 
ATOM      9  H   UNL     1      -5.168  -0.638   0.011  0.00  0.00    +0.163 HD
ATOM     10  H   UNL     1      -6.950   0.034   0.031  0.00  0.00    +0.163 HD
ENDBRANCH   6   8
BRANCH   1  12
ATOM     11  C   UNL     1      -9.460   4.003   0.069  0.00  0.00    +0.139 C 
ATOM     12  N   UNL     1      -8.161   3.943   0.056  0.00  0.00    -0.187 NA
BRANCH  11  22
ATOM     13  C   UNL     1      -7.963   8.929   0.389  0.00  0.00    +0.001 A 
ATOM     14  C   UNL     1      -7.287   7.711   0.382  0.00  0.00    +0.001 A 
ATOM     15  C   UNL     1      -7.968   6.533   0.284  0.00  0.00    +0.009 A 
ATOM     16  C   UNL     1      -9.364   6.547   0.188  0.00  0.00    -0.009 A 
ATOM     17  C   UNL     1     -10.054   7.784   0.195  0.00  0.00    -0.017 A 
ATOM     18  C   UNL     1      -9.320   8.979   0.297  0.00  0.00    +0.008 A 
ATOM     19  C   UNL     1     -11.456   7.794   0.099  0.00  0.00    +0.008 A 
ATOM     20  C   UNL     1     -12.153   6.629   0.000  0.00  0.00    +0.001 A 
ATOM     21  C   UNL     1     -11.519   5.395  -0.017  0.00  0.00    +0.010 A 
ATOM     22  C   UNL     1     -10.135   5.310   0.080  0.00  0.00    +0.002 A 
ENDBRANCH  11  22
ENDBRANCH   1  12
BRANCH   5  23
ATOM     23  S   UNL     1      -2.689   0.750  -0.011  0.00  0.00    -0.075 S 
BRANCH  23  24
ATOM     24  C   UNL     1      -1.330   1.944  -0.023  0.00  0.00    +0.173 C 
BRANCH  24  25
ATOM     25  C   UNL     1      -0.015   1.209  -0.038  0.00  0.00    +0.224 C 
ATOM     26  O   UNL     1       0.002  -0.004  -0.042  0.00  0.00    -0.275 OA
ATOM     27  N   UNL     1       1.143   1.899  -0.055  0.00  0.00    -0.312 N 
ATOM     28  H   UNL     1       1.128   2.998  -0.052  0.00  0.00    +0.149 HD
BRANCH  27  29
ATOM     29  C   UNL     1       2.421   1.183  -0.076  0.00  0.00    +0.073 C 
ATOM     30  C   UNL     1       2.827   0.821   1.354  0.00  0.00    +0.022 C 
ATOM     31  C   UNL     1       4.162   0.074   1.332  0.00  0.00    +0.002 C 
ATOM     32  C   UNL     1       5.236   0.968   0.707  0.00  0.00    +0.000 C 
ATOM     33  C   UNL     1       4.830   1.330  -0.723  0.00  0.00    +0.002 C 
ATOM     34  C   UNL     1       3.495   2.077  -0.700  0.00  0.00    +0.022 C 
ENDBRANCH  27  29
ENDBRANCH  24  25
ENDBRANCH  23  24
ENDBRANCH   5  23
TORSDOF 7
