REMARK  Name = ZINC39440397
REMARK  5 active torsions:
REMARK  status: ('A' for Active; 'I' for Inactive)
REMARK    1  A    between atoms: C_6  and  C_7
REMARK    2  A    between atoms: C_11  and  C_21
REMARK    3  A    between atoms: C_15  and  C_17
REMARK    4  A    between atoms: N_23  and  C_24
REMARK    5  A    between atoms: C_24  and  C_25
REMARK                            x       y       z     vdW  Elec       q    Type
REMARK                         _______ _______ _______ _____ _____    ______ ____
ROOT
ATOM      1  C   UNL     1      -1.268  -0.763   0.010  0.00  0.00    +0.075 C 
ATOM      2  N   UNL     1      -1.246  -2.079   0.008  0.00  0.00    -0.231 NA
ATOM      3  C   UNL     1      -2.398  -2.796   0.016  0.00  0.00    +0.138 C 
ATOM      4  C   UNL     1      -2.568  -4.135   0.015  0.00  0.00    +0.047 C 
ATOM      5  C   UNL     1      -4.059  -4.385   0.026  0.00  0.00    +0.185 C 
ATOM      6  N   UNL     1      -4.657  -3.038   0.032  0.00  0.00    -0.218 NA
ATOM      7  N   UNL     1      -3.622  -2.143   0.026  0.00  0.00    -0.213 N 
ATOM      8  C   UNL     1      -3.658  -0.768   0.027  0.00  0.00    +0.133 C 
ATOM      9  C   UNL     1      -2.505  -0.070   0.025  0.00  0.00    +0.057 C 
ATOM     10  H   UNL     1      -5.244  -2.907   0.843  0.00  0.00    +0.146 HD
ENDROOT
BRANCH   1  16
ATOM     11  C   UNL     1      -0.017   1.391   0.010  0.00  0.00    +0.014 A 
ATOM     12  C   UNL     1       1.168   2.097   0.002  0.00  0.00    +0.050 A 
ATOM     13  C   UNL     1       2.381   1.424  -0.013  0.00  0.00    +0.166 A 
ATOM     14  C   UNL     1       2.406   0.029  -0.021  0.00  0.00    +0.167 A 
ATOM     15  C   UNL     1       1.222  -0.682  -0.013  0.00  0.00    +0.059 A 
ATOM     16  C   UNL     1       0.002  -0.004   0.002  0.00  0.00    +0.004 A 
ATOM     17  O   UNL     1       3.708  -0.383  -0.037  0.00  0.00    -0.453 OA
ATOM     18  C   UNL     1       4.470   0.767  -0.451  0.00  0.00    +0.466 C 
ATOM     19  O   UNL     1       3.666   1.883  -0.024  0.00  0.00    -0.453 OA
ENDBRANCH   1  16
BRANCH   8  20
ATOM     20  C   UNL     1      -4.980  -0.045   0.038  0.00  0.00    +0.432 C 
ATOM     21  F   UNL     1      -4.756   1.336   0.037  0.00  0.00    -0.165 F 
ATOM     22  F   UNL     1      -5.714  -0.399  -1.099  0.00  0.00    -0.165 F 
ATOM     23  F   UNL     1      -5.697  -0.401   1.185  0.00  0.00    -0.165 F 
ENDBRANCH   8  20
BRANCH   5  24
ATOM     24  C   UNL     1      -4.456  -5.145   1.265  0.00  0.00    +0.236 C 
ATOM     25  O   UNL     1      -5.225  -4.649   2.061  0.00  0.00    -0.274 OA
ATOM     26  N   UNL     1      -3.957  -6.377   1.488  0.00  0.00    -0.308 N 
ATOM     27  H   UNL     1      -3.342  -6.774   0.852  0.00  0.00    +0.149 HD
BRANCH  26  28
ATOM     28  C   UNL     1      -4.343  -7.117   2.692  0.00  0.00    +0.157 C 
BRANCH  28  29
ATOM     29  C   UNL     1      -3.651  -8.456   2.703  0.00  0.00    +0.034 A 
ATOM     30  H   UNL     1      -4.930  -9.637   1.560  0.00  0.00    +0.166 HD
ATOM     31  C   UNL     1      -2.496  -8.721   3.333  0.00  0.00    +0.032 A 
ATOM     32  C   UNL     1      -2.187 -10.132   3.085  0.00  0.00    +0.001 A 
ATOM     33  C   UNL     1      -1.144 -10.977   3.465  0.00  0.00    +0.030 A 
ATOM     34  C   UNL     1      -1.148 -12.292   3.054  0.00  0.00    +0.042 A 
ATOM     35  C   UNL     1      -2.183 -12.778   2.266  0.00  0.00    +0.022 A 
ATOM     36  C   UNL     1      -3.219 -11.955   1.882  0.00  0.00    +0.027 A 
ATOM     37  C   UNL     1      -3.235 -10.625   2.286  0.00  0.00    +0.047 A 
ATOM     38  N   UNL     1      -4.111  -9.582   2.077  0.00  0.00    -0.357 N 
ATOM     39 CL   UNL     1       0.147 -13.348   3.525  0.00  0.00    -0.084 Cl
ENDBRANCH  28  29
ENDBRANCH  26  28
ENDBRANCH   5  24
TORSDOF 5
