REMARK  Name = ZINC01052637
REMARK  9 active torsions:
REMARK  status: ('A' for Active; 'I' for Inactive)
REMARK    1  A    between atoms: C_1  and  C_2
REMARK    2  A    between atoms: C_7  and  N_8
REMARK    3  A    between atoms: N_8  and  C_9
REMARK    4  A    between atoms: C_9  and  C_10
REMARK    5  A    between atoms: N_12  and  N_13
REMARK    6  A    between atoms: C_14  and  C_15
REMARK    7  A    between atoms: C_17  and  O_23
REMARK    8  A    between atoms: C_18  and  O_22
REMARK    9  A    between atoms: O_23  and  C_24
REMARK                            x       y       z     vdW  Elec       q    Type
REMARK                         _______ _______ _______ _____ _____    ______ ____
ROOT
ATOM      1  C   UNL     1      -0.742   1.585  -1.213  0.00  0.00    +0.249 C 
ATOM      2  O   UNL     1      -1.736   2.268  -1.088  0.00  0.00    -0.272 OA
ATOM      3  N   UNL     1      -0.288   1.272  -2.443  0.00  0.00    -0.206 N 
ATOM      4  H   UNL     1       0.507   0.726  -2.543  0.00  0.00    +0.177 HD
ENDROOT
BRANCH   3   5
ATOM      5  N   UNL     1      -0.966   1.736  -3.578  0.00  0.00    -0.188 NA
ATOM      6  C   UNL     1      -0.530   1.435  -4.763  0.00  0.00    +0.138 C 
BRANCH   6   7
ATOM      7  C   UNL     1      -1.243   1.924  -5.957  0.00  0.00    -0.001 A 
ATOM      8  C   UNL     1      -0.771   1.605  -7.234  0.00  0.00    +0.059 A 
ATOM      9  C   UNL     1      -1.446   2.061  -8.350  0.00  0.00    +0.163 A 
ATOM     10  C   UNL     1      -2.588   2.846  -8.202  0.00  0.00    +0.173 A 
ATOM     11  C   UNL     1      -3.054   3.167  -6.935  0.00  0.00    +0.063 A 
ATOM     12  C   UNL     1      -2.388   2.711  -5.816  0.00  0.00    +0.028 A 
ATOM     13 BR   UNL     1      -4.604   4.232  -6.742  0.00  0.00    -0.046 Br
BRANCH  10  14
ATOM     14  O   UNL     1      -3.247   3.297  -9.302  0.00  0.00    -0.503 OA
ATOM     15  H   UNL     1      -2.938   4.156  -9.621  0.00  0.00    +0.292 HD
ENDBRANCH  10  14
BRANCH   9  16
ATOM     16  O   UNL     1      -0.993   1.747  -9.594  0.00  0.00    -0.491 OA
ATOM     17  C   UNL     1       0.183   0.939  -9.671  0.00  0.00    +0.277 C 
ENDBRANCH   9  16
ENDBRANCH   6   7
ENDBRANCH   3   5
BRANCH   1  18
ATOM     18  C   UNL     1      -0.013   1.086   0.008  0.00  0.00    +0.199 C 
BRANCH  18  19
ATOM     19  N   UNL     1      -0.698   1.558   1.213  0.00  0.00    -0.335 N 
ATOM     20  H   UNL     1      -1.495   2.106   1.135  0.00  0.00    +0.147 HD
BRANCH  19  27
ATOM     21  C   UNL     1      -2.092   2.518   3.500  0.00  0.00    +0.045 C 
ATOM     22  C   UNL     1      -0.854   1.668   3.619  0.00  0.00    -0.030 A 
ATOM     23  C   UNL     1      -0.363   1.331   4.866  0.00  0.00    +0.005 A 
ATOM     24  C   UNL     1       0.773   0.550   4.976  0.00  0.00    +0.000 A 
ATOM     25  C   UNL     1       1.421   0.103   3.839  0.00  0.00    +0.002 A 
ATOM     26  C   UNL     1       0.933   0.432   2.590  0.00  0.00    +0.023 A 
ATOM     27  C   UNL     1      -0.205   1.221   2.475  0.00  0.00    +0.030 A 
ENDBRANCH  19  27
ENDBRANCH  18  19
ENDBRANCH   1  18
TORSDOF 7
