REMARK  Name = ZINC16312537
REMARK  9 active torsions:
REMARK  status: ('A' for Active; 'I' for Inactive)
REMARK    1  A    between atoms: C_1  and  C_2
REMARK    2  A    between atoms: C_5  and  N_9
REMARK    3  A    between atoms: C_7  and  C_8
REMARK    4  A    between atoms: N_9  and  S_10
REMARK    5  A    between atoms: S_10  and  C_13
REMARK    6  A    between atoms: C_16  and  N_19
REMARK    7  A    between atoms: N_19  and  C_20
REMARK    8  A    between atoms: C_22  and  C_31
REMARK    9  A    between atoms: C_23  and  C_29
REMARK                            x       y       z     vdW  Elec       q    Type
REMARK                         _______ _______ _______ _____ _____    ______ ____
ROOT
ATOM      1  C   UNL     1       2.575  -4.249  -0.169  0.00  0.00    +0.109 A 
ATOM      2  C   UNL     1       3.319  -3.368  -0.932  0.00  0.00    +0.030 A 
ATOM      3  C   UNL     1       4.669  -3.212  -0.690  0.00  0.00    +0.025 A 
ATOM      4  C   UNL     1       5.281  -3.942   0.322  0.00  0.00    +0.031 A 
ATOM      5  C   UNL     1       4.531  -4.826   1.087  0.00  0.00    +0.025 A 
ATOM      6  C   UNL     1       3.179  -4.973   0.843  0.00  0.00    +0.030 A 
ENDROOT
BRANCH   1   7
ATOM      7  S   UNL     1       0.852  -4.444  -0.481  0.00  0.00    +0.072 S 
ATOM      8  O   UNL     1       0.492  -5.726   0.015  0.00  0.00    -0.150 OA
ATOM      9  O   UNL     1       0.638  -4.062  -1.833  0.00  0.00    -0.150 OA
BRANCH   7  10
ATOM     10  N   UNL     1       0.056  -3.334   0.456  0.00  0.00    -0.216 N 
ATOM     11  H   UNL     1      -0.532  -3.632   1.167  0.00  0.00    +0.174 HD
BRANCH  10  16
ATOM     12  C   UNL     1       0.769   2.211  -0.495  0.00  0.00    +0.044 C 
ATOM     13  C   UNL     1       0.579   0.737  -0.242  0.00  0.00    -0.047 A 
ATOM     14  C   UNL     1       0.374  -0.124  -1.304  0.00  0.00    +0.005 A 
ATOM     15  C   UNL     1       0.200  -1.475  -1.077  0.00  0.00    +0.025 A 
ATOM     16  C   UNL     1       0.232  -1.968   0.222  0.00  0.00    +0.048 A 
ATOM     17  C   UNL     1       0.439  -1.101   1.286  0.00  0.00    +0.028 A 
ATOM     18  C   UNL     1       0.617   0.249   1.051  0.00  0.00    -0.046 A 
ATOM     19  C   UNL     1       0.848   1.190   2.205  0.00  0.00    +0.044 C 
ENDBRANCH  10  16
ENDBRANCH   7  10
ENDBRANCH   1   7
BRANCH   4  20
ATOM     20  N   UNL     1       6.647  -3.787   0.569  0.00  0.00    -0.320 N 
ATOM     21  H   UNL     1       7.170  -3.169   0.034  0.00  0.00    +0.152 HD
BRANCH  20  22
ATOM     22  C   UNL     1       7.238  -4.495   1.549  0.00  0.00    +0.085 C 
ATOM     23  C   UNL     1       8.572  -4.262   1.869  0.00  0.00    +0.055 C 
ATOM     24  C   UNL     1       9.265  -5.139   2.732  0.00  0.00    -0.015 C 
ATOM     25  C   UNL     1      10.595  -4.874   3.026  0.00  0.00    +0.117 C 
ATOM     26  C   UNL     1      11.244  -3.700   2.441  0.00  0.00    +0.261 C 
ATOM     27  O   UNL     1      12.411  -3.467   2.699  0.00  0.00    -0.269 OA
ATOM     28  N   UNL     1      10.568  -2.877   1.621  0.00  0.00    -0.248 N 
ATOM     29  C   UNL     1       9.280  -3.103   1.307  0.00  0.00    +0.252 C 
ATOM     30  O   UNL     1       8.696  -2.342   0.558  0.00  0.00    -0.270 OA
ATOM     31  C   UNL     1       8.573  -6.341   3.322  0.00  0.00    +0.046 C 
ATOM     32  H   UNL     1      11.020  -2.105   1.244  0.00  0.00    +0.158 HD
BRANCH  25  33
ATOM     33  C   UNL     1      11.327  -5.743   3.898  0.00  0.00    +0.105 C 
ATOM     34  N   UNL     1      11.908  -6.432   4.590  0.00  0.00    -0.191 NA
ENDBRANCH  25  33
ENDBRANCH  20  22
ENDBRANCH   4  20
TORSDOF 6
