REMARK  Name = ZINC37947680
REMARK  6 active torsions:
REMARK  status: ('A' for Active; 'I' for Inactive)
REMARK    1  A    between atoms: C_1  and  C_2
REMARK    2  A    between atoms: C_3  and  C_19
REMARK    3  A    between atoms: C_5  and  C_10
REMARK    4  A    between atoms: C_13  and  C_16
REMARK    5  A    between atoms: C_16  and  C_17
REMARK    6  A    between atoms: C_16  and  C_18
REMARK                            x       y       z     vdW  Elec       q    Type
REMARK                         _______ _______ _______ _____ _____    ______ ____
ROOT
ATOM      1  C   UNL     1      -0.018   1.503   0.010  0.00  0.00    +0.051 C 
ATOM      2  C   UNL     1       0.002  -0.004   0.002  0.00  0.00    +0.035 A 
ATOM      3  C   UNL     1      -1.163  -0.713   0.004  0.00  0.00    +0.049 A 
ATOM      4  N   UNL     1      -1.135  -2.045  -0.003  0.00  0.00    -0.234 NA
ATOM      5  C   UNL     1       0.003  -2.707  -0.012  0.00  0.00    +0.141 A 
ATOM      6  N   UNL     1       1.199  -2.054  -0.014  0.00  0.00    -0.307 N 
ATOM      7  H   UNL     1       2.029  -2.557  -0.021  0.00  0.00    +0.170 HD
ATOM      8  C   UNL     1       1.225  -0.704  -0.013  0.00  0.00    +0.255 A 
ATOM      9  O   UNL     1       2.286  -0.102  -0.020  0.00  0.00    -0.268 OA
ATOM     10  C   UNL     1      -2.484   0.011   0.014  0.00  0.00    +0.066 C 
ENDROOT
BRANCH   5  11
ATOM     11  C   UNL     1      -0.017  -4.184  -0.019  0.00  0.00    +0.017 A 
ATOM     12  C   UNL     1       1.180  -4.902  -0.023  0.00  0.00    +0.012 A 
ATOM     13  C   UNL     1       1.154  -6.281  -0.030  0.00  0.00    +0.004 A 
ATOM     14  C   UNL     1      -0.055  -6.953  -0.033  0.00  0.00    -0.045 A 
ATOM     15  C   UNL     1      -1.246  -6.248  -0.029  0.00  0.00    +0.004 A 
ATOM     16  C   UNL     1      -1.234  -4.869  -0.017  0.00  0.00    +0.012 A 
BRANCH  14  17
ATOM     17  C   UNL     1      -0.076  -8.460  -0.041  0.00  0.00    +0.013 C 
ATOM     18  C   UNL     1      -0.804  -8.967   1.206  0.00  0.00    +0.012 C 
ATOM     19  C   UNL     1      -0.805  -8.954  -1.293  0.00  0.00    +0.012 C 
ENDBRANCH  14  17
ENDBRANCH   5  11
TORSDOF 2
