REMARK  Name = ZINC44561381
REMARK  5 active torsions:
REMARK  status: ('A' for Active; 'I' for Inactive)
REMARK    1  A    between atoms: C_1  and  N_2
REMARK    2  A    between atoms: C_7  and  C_9
REMARK    3  A    between atoms: C_9  and  N_10
REMARK    4  A    between atoms: N_10  and  C_11
REMARK    5  A    between atoms: C_11  and  C_12
REMARK                            x       y       z     vdW  Elec       q    Type
REMARK                         _______ _______ _______ _____ _____    ______ ____
ROOT
ATOM      1  N   UNL     1      -0.124   1.306   2.356  0.00  0.00    +0.383 N 
ATOM      2  H   UNL     1       0.758   1.758   2.169  0.00  0.00    -0.085 HD
ATOM      3  H   UNL     1      -0.776   1.522   1.617  0.00  0.00    -0.085 HD
ENDROOT
BRANCH   1   4
ATOM      4  C   UNL     1       0.076  -0.148   2.422  0.00  0.00    -0.063 C 
BRANCH   4  11
ATOM      5  C   UNL     1       2.864   0.055   2.098  0.00  0.00    +0.105 C 
ATOM      6  N   UNL     1       1.989   0.128   0.920  0.00  0.00    -0.304 NA
ATOM      7  C   UNL     1       2.690  -0.333  -0.285  0.00  0.00    +0.084 C 
ATOM      8  C   UNL     1       1.803  -0.106  -1.511  0.00  0.00    +0.015 C 
ATOM      9  C   UNL     1       0.491  -0.876  -1.335  0.00  0.00    +0.003 C 
ATOM     10  C   UNL     1      -0.195  -0.412  -0.048  0.00  0.00    +0.017 C 
ATOM     11  C   UNL     1       0.750  -0.629   1.136  0.00  0.00    +0.039 C 
ENDBRANCH   4  11
ENDBRANCH   1   4
BRANCH   1  12
ATOM     12  C   UNL     1      -0.658   1.786   3.637  0.00  0.00    -0.047 C 
BRANCH  12  13
ATOM     13  C   UNL     1      -0.863   3.277   3.569  0.00  0.00    -0.060 A 
ATOM     14  C   UNL     1       0.161   4.131   3.934  0.00  0.00    +0.051 A 
ATOM     15  C   UNL     1      -0.024   5.503   3.872  0.00  0.00    +0.168 A 
ATOM     16  C   UNL     1      -1.244   6.018   3.442  0.00  0.00    +0.180 A 
ATOM     17  C   UNL     1      -2.267   5.157   3.079  0.00  0.00    +0.063 A 
ATOM     18  C   UNL     1      -2.072   3.788   3.137  0.00  0.00    +0.021 A 
ATOM     19 BR   UNL     1      -3.926   5.851   2.494  0.00  0.00    -0.046 Br
ATOM     20  O   UNL     1      -1.176   7.381   3.470  0.00  0.00    -0.451 OA
ATOM     21  C   UNL     1      -0.047   7.693   4.307  0.00  0.00    +0.466 C 
ATOM     22  O   UNL     1       0.808   6.543   4.169  0.00  0.00    -0.453 OA
ENDBRANCH  12  13
ENDBRANCH   1  12
TORSDOF 4
