REMARK  Name = ZINC38041353
REMARK  2 active torsions:
REMARK  status: ('A' for Active; 'I' for Inactive)
REMARK    1  A    between atoms: C_6  and  N_7
REMARK    2  A    between atoms: N_7  and  C_8
REMARK                            x       y       z     vdW  Elec       q    Type
REMARK                         _______ _______ _______ _____ _____    ______ ____
ROOT
ATOM      1  C   UNL     1      -0.017   1.383   0.010  0.00  0.00    +0.051 A 
ATOM      2  C   UNL     1       1.177   2.088   0.002  0.00  0.00    +0.069 A 
ATOM      3  C   UNL     1       2.392   1.401  -0.013  0.00  0.00    +0.068 A 
ATOM      4  C   UNL     1       2.405   0.015  -0.022  0.00  0.00    +0.045 A 
ATOM      5  C   UNL     1       1.215  -0.686  -0.015  0.00  0.00    +0.041 A 
ATOM      6  C   UNL     1       0.002  -0.004   0.002  0.00  0.00    +0.044 A 
ATOM      7 BR   UNL     1       1.233  -2.577  -0.026  0.00  0.00    -0.048 Br
ATOM      8  N   UNL     1       3.400   2.366  -0.017  0.00  0.00    -0.306 N 
ATOM      9  H   UNL     1       4.354   2.191  -0.028  0.00  0.00    +0.170 HD
ATOM     10  C   UNL     1       2.822   3.582  -0.005  0.00  0.00    +0.325 A 
ATOM     11  O   UNL     1       3.419   4.642  -0.004  0.00  0.00    -0.247 OA
ATOM     12  N   UNL     1       1.482   3.447   0.007  0.00  0.00    -0.306 N 
ATOM     13  H   UNL     1       0.839   4.173   0.017  0.00  0.00    +0.170 HD
ENDROOT
BRANCH   6  14
ATOM     14  N   UNL     1      -1.201  -0.719   0.010  0.00  0.00    -0.340 N 
ATOM     15  H   UNL     1      -1.189  -1.689   0.005  0.00  0.00    +0.146 HD
BRANCH  14  16
ATOM     16  C   UNL     1      -2.479  -0.003   0.027  0.00  0.00    +0.067 C 
ATOM     17  C   UNL     1      -2.883   0.357  -1.406  0.00  0.00    +0.003 C 
ATOM     18  C   UNL     1      -4.255   1.034  -1.389  0.00  0.00    -0.081 C 
ATOM     19  N   UNL     1      -5.249   0.119  -0.813  0.00  0.00    +0.379 N 
ATOM     20  C   UNL     1      -4.906  -0.173   0.584  0.00  0.00    -0.081 C 
ATOM     21  C   UNL     1      -3.559  -0.896   0.643  0.00  0.00    +0.003 C 
ATOM     22  H   UNL     1      -6.161   0.548  -0.852  0.00  0.00    -0.086 HD
ATOM     23  H   UNL     1      -5.260  -0.740  -1.342  0.00  0.00    -0.086 HD
ENDBRANCH  14  16
ENDBRANCH   6  14
TORSDOF 2
