REMARK  Name = ZINC14549635
REMARK  2 active torsions:
REMARK  status: ('A' for Active; 'I' for Inactive)
REMARK    1  A    between atoms: C_5  and  O_7
REMARK    2  A    between atoms: C_9  and  C_18
REMARK                            x       y       z     vdW  Elec       q    Type
REMARK                         _______ _______ _______ _____ _____    ______ ____
ROOT
ATOM      1  C   UNL     1       1.706   2.483  -0.257  0.00  0.00    +0.004 A 
ATOM      2  C   UNL     1       1.444   3.839  -0.207  0.00  0.00    +0.006 A 
ATOM      3  C   UNL     1       0.146   4.300  -0.110  0.00  0.00    -0.016 A 
ATOM      4  C   UNL     1      -0.923   3.404  -0.078  0.00  0.00    +0.073 A 
ATOM      5  C   UNL     1      -0.644   2.033  -0.128  0.00  0.00    +0.138 A 
ATOM      6  C   UNL     1       0.659   1.581  -0.210  0.00  0.00    +0.047 A 
ATOM      7  N   UNL     1      -2.264   3.788  -0.026  0.00  0.00    -0.334 N 
ATOM      8  C   UNL     1      -2.535   5.227   0.124  0.00  0.00    +0.105 C 
ATOM      9  C   UNL     1      -1.528   5.961  -0.736  0.00  0.00    +0.029 C 
ATOM     10  C   UNL     1      -0.161   5.744  -0.016  0.00  0.00    +0.049 C 
ATOM     11  C   UNL     1       0.694   6.815  -0.606  0.00  0.00    -0.023 C 
ATOM     12  C   UNL     1      -0.079   7.820  -1.002  0.00  0.00    -0.030 C 
ATOM     13  C   UNL     1      -1.547   7.494  -0.716  0.00  0.00    +0.033 C 
ATOM     14  H   UNL     1      -2.781   3.401  -0.801  0.00  0.00    +0.147 HD
ENDROOT
BRANCH   8  15
ATOM     15  C   UNL     1      -2.371   5.633   1.566  0.00  0.00    -0.027 A 
ATOM     16  C   UNL     1      -1.565   4.888   2.406  0.00  0.00    +0.008 A 
ATOM     17  C   UNL     1      -1.410   5.262   3.727  0.00  0.00    +0.038 A 
ATOM     18  C   UNL     1      -2.071   6.378   4.212  0.00  0.00    +0.123 A 
ATOM     19  C   UNL     1      -2.883   7.120   3.372  0.00  0.00    +0.038 A 
ATOM     20  C   UNL     1      -3.033   6.746   2.049  0.00  0.00    +0.008 A 
ATOM     21  F   UNL     1      -1.925   6.742   5.505  0.00  0.00    -0.205 F 
ENDBRANCH   8  15
BRANCH   5  22
ATOM     22  O   UNL     1      -1.665   1.136  -0.089  0.00  0.00    -0.505 OA
ATOM     23  H   UNL     1      -1.911   0.858   0.804  0.00  0.00    +0.292 HD
ENDBRANCH   5  22
TORSDOF 2
