REMARK  Name = ZINC65543176
REMARK  10 active torsions:
REMARK  status: ('A' for Active; 'I' for Inactive)
REMARK    1  A    between atoms: C_1  and  C_2
REMARK    2  A    between atoms: C_4  and  C_27
REMARK    3  A    between atoms: C_9  and  C_10
REMARK    4  A    between atoms: C_10  and  N_11
REMARK    5  A    between atoms: N_14  and  C_15
REMARK    6  A    between atoms: C_15  and  C_16
REMARK    7  A    between atoms: C_16  and  C_18
REMARK    8  A    between atoms: C_16  and  O_26
REMARK    9  A    between atoms: C_23  and  O_24
REMARK   10  A    between atoms: O_24  and  C_25
REMARK                            x       y       z     vdW  Elec       q    Type
REMARK                         _______ _______ _______ _____ _____    ______ ____
ROOT
ATOM      1  N   UNL     1      -1.348   0.142   2.992  0.00  0.00    -0.295 N 
ATOM      2  C   UNL     1      -1.592   0.762   4.163  0.00  0.00    +0.300 C 
ATOM      3  O   UNL     1      -0.671   1.228   4.807  0.00  0.00    -0.253 OA
ATOM      4  N   UNL     1      -2.855   0.865   4.622  0.00  0.00    -0.297 N 
ATOM      5  H   UNL     1      -2.083  -0.230   2.478  0.00  0.00    +0.151 HD
ATOM      6  H   UNL     1      -3.589   0.493   4.108  0.00  0.00    +0.150 HD
ENDROOT
BRANCH   1   7
ATOM      7  C   UNL     1       0.025   0.030   2.493  0.00  0.00    +0.146 C 
BRANCH   7  16
ATOM      8  C   UNL     1      -0.018   1.503   0.010  0.00  0.00    +0.044 C 
ATOM      9  C   UNL     1       0.002  -0.004   0.002  0.00  0.00    -0.039 A 
ATOM     10  C   UNL     1       0.006  -0.706  -1.212  0.00  0.00    +0.024 A 
ATOM     11  C   UNL     1       0.025  -2.059  -1.209  0.00  0.00    +0.016 A 
ATOM     12  N   UNL     1       0.040  -2.750  -0.040  0.00  0.00    -0.326 N 
ATOM     13  H   UNL     1       0.054  -3.720  -0.057  0.00  0.00    +0.169 HD
ATOM     14  C   UNL     1       0.037  -2.105   1.141  0.00  0.00    +0.254 A 
ATOM     15  O   UNL     1       0.051  -2.740   2.183  0.00  0.00    -0.268 OA
ATOM     16  C   UNL     1       0.023  -0.700   1.175  0.00  0.00    +0.037 A 
ATOM     17  C   UNL     1       0.029  -2.807  -2.517  0.00  0.00    +0.063 C 
ENDBRANCH   7  16
ENDBRANCH   1   7
BRANCH   4  18
ATOM     18  C   UNL     1      -3.119   1.538   5.896  0.00  0.00    +0.142 C 
BRANCH  18  19
ATOM     19  C   UNL     1      -4.622   1.517   6.182  0.00  0.00    +0.165 C 
BRANCH  19  20
ATOM     20  C   UNL     1      -4.908   2.315   7.428  0.00  0.00    +0.024 A 
ATOM     21  C   UNL     1      -4.995   1.679   8.651  0.00  0.00    +0.010 A 
ATOM     22  C   UNL     1      -5.258   2.411   9.794  0.00  0.00    +0.001 A 
ATOM     23  C   UNL     1      -5.433   3.780   9.717  0.00  0.00    +0.004 A 
ATOM     24  C   UNL     1      -5.346   4.421   8.496  0.00  0.00    +0.046 A 
ATOM     25  C   UNL     1      -5.077   3.690   7.348  0.00  0.00    +0.126 A 
BRANCH  25  26
ATOM     26  O   UNL     1      -4.985   4.319   6.147  0.00  0.00    -0.495 OA
ATOM     27  C   UNL     1      -5.171   5.736   6.140  0.00  0.00    +0.277 C 
ENDBRANCH  25  26
ENDBRANCH  19  20
BRANCH  19  28
ATOM     28  O   UNL     1      -5.052   0.168   6.371  0.00  0.00    -0.386 OA
ATOM     29  H   UNL     1      -4.615  -0.284   7.106  0.00  0.00    +0.210 HD
ENDBRANCH  19  28
ENDBRANCH  18  19
ENDBRANCH   4  18
TORSDOF 7
