REMARK  Name = ZINC55024166
REMARK  6 active torsions:
REMARK  status: ('A' for Active; 'I' for Inactive)
REMARK    1  A    between atoms: C_1  and  C_2
REMARK    2  A    between atoms: C_7  and  S_9
REMARK    3  A    between atoms: S_9  and  C_10
REMARK    4  A    between atoms: C_10  and  C_12
REMARK    5  A    between atoms: C_10  and  C_16
REMARK    6  A    between atoms: C_12  and  C_13
REMARK                            x       y       z     vdW  Elec       q    Type
REMARK                         _______ _______ _______ _____ _____    ______ ____
ROOT
ATOM      1  C   UNL     1      -1.134   3.185  -5.956  0.00  0.00    +0.091 C 
ENDROOT
BRANCH   1   2
ATOM      2  C   UNL     1      -0.494   3.482  -7.288  0.00  0.00    -0.034 A 
ATOM      3  C   UNL     1       0.179   2.486  -7.969  0.00  0.00    +0.005 A 
ATOM      4  C   UNL     1       0.766   2.759  -9.191  0.00  0.00    +0.000 A 
ATOM      5  C   UNL     1       0.679   4.028  -9.731  0.00  0.00    +0.000 A 
ATOM      6  C   UNL     1       0.004   5.024  -9.051  0.00  0.00    +0.000 A 
ATOM      7  C   UNL     1      -0.586   4.750  -7.831  0.00  0.00    +0.005 A 
ENDBRANCH   1   2
BRANCH   1   8
ATOM      8  S   UNL     1       0.138   2.643  -4.782  0.00  0.00    -0.077 S 
BRANCH   8  15
ATOM      9  C   UNL     1       3.937   5.062  -2.351  0.00  0.00    +0.066 C 
ATOM     10  C   UNL     1       2.827   5.119  -3.370  0.00  0.00    +0.046 A 
ATOM     11  C   UNL     1       2.577   6.287  -4.066  0.00  0.00    +0.095 A 
ATOM     12  C   UNL     1       1.541   6.297  -4.999  0.00  0.00    +0.274 A 
ATOM     13  O   UNL     1       1.263   7.420  -5.704  0.00  0.00    -0.266 OA
ATOM     14  N   UNL     1       0.833   5.191  -5.188  0.00  0.00    -0.183 NA
ATOM     15  C   UNL     1       1.103   4.090  -4.501  0.00  0.00    +0.192 A 
ATOM     16  N   UNL     1       2.084   4.050  -3.611  0.00  0.00    -0.227 NA
ENDBRANCH   8  15
ENDBRANCH   1   8
BRANCH   1  17
ATOM     17  C   UNL     1      -2.176   2.078  -6.127  0.00  0.00    +0.088 C 
BRANCH  17  18
ATOM     18  C   UNL     1      -2.913   1.876  -4.828  0.00  0.00    +0.064 C 
ATOM     19  N   UNL     1      -2.526   0.932  -3.988  0.00  0.00    -0.391 N 
ATOM     20  N   UNL     1      -3.946   2.644  -4.528  0.00  0.00    -0.348 N 
ATOM     21  H   UNL     1      -3.000   0.802  -3.152  0.00  0.00    +0.157 HD
ATOM     22  H   UNL     1      -4.276   3.288  -5.175  0.00  0.00    +0.143 HD
ATOM     23  H   UNL     1      -4.374   2.565  -3.662  0.00  0.00    +0.143 HD
ATOM     24  H   UNL     1      -1.768   0.368  -4.208  0.00  0.00    +0.157 HD
ENDBRANCH  17  18
ENDBRANCH   1  17
TORSDOF 5
