REMARK  Name = ZINC36543714
REMARK  8 active torsions:
REMARK  status: ('A' for Active; 'I' for Inactive)
REMARK    1  A    between atoms: C_1  and  C_2
REMARK    2  A    between atoms: C_2  and  C_3
REMARK    3  A    between atoms: C_3  and  N_4
REMARK    4  A    between atoms: C_5  and  C_7
REMARK    5  A    between atoms: C_7  and  C_9
REMARK    6  A    between atoms: C_7  and  N_20
REMARK    7  A    between atoms: C_9  and  C_10
REMARK    8  A    between atoms: C_21  and  C_23
REMARK                            x       y       z     vdW  Elec       q    Type
REMARK                         _______ _______ _______ _____ _____    ______ ____
ROOT
ATOM      1  C   UNL     1      -2.551  -4.195   0.004  0.00  0.00    +0.163 C 
ENDROOT
BRANCH   1   3
ATOM      2  N   UNL     1      -1.413  -1.998   0.005  0.00  0.00    -0.314 N 
ATOM      3  C   UNL     1      -2.571  -2.688   0.012  0.00  0.00    +0.234 C 
ATOM      4  O   UNL     1      -3.630  -2.096   0.025  0.00  0.00    -0.274 OA
ATOM      5  H   UNL     1      -0.567  -2.472  -0.006  0.00  0.00    +0.149 HD
BRANCH   2   6
ATOM      6  C   UNL     1      -1.433  -0.534   0.013  0.00  0.00    +0.104 C 
BRANCH   6   8
ATOM      7  C   UNL     1      -0.019   1.526   0.010  0.00  0.00    +0.005 C 
ATOM      8  C   UNL     1       0.002  -0.004   0.002  0.00  0.00    +0.015 C 
ENDBRANCH   6   8
ENDBRANCH   2   6
ENDBRANCH   1   3
BRANCH   1   9
ATOM      9  N   UNL     1      -3.925  -4.702   0.014  0.00  0.00    -0.302 N 
ATOM     10  C   UNL     1      -4.604  -4.834  -1.143  0.00  0.00    +0.231 C 
ATOM     11  O   UNL     1      -4.077  -4.532  -2.193  0.00  0.00    -0.274 OA
ATOM     12  H   UNL     1      -4.347  -4.943   0.854  0.00  0.00    +0.150 HD
BRANCH  10  13
ATOM     13  C   UNL     1      -6.018  -5.355  -1.132  0.00  0.00    +0.145 C 
ATOM     14  C   UNL     1      -6.978  -4.228  -0.754  0.00  0.00    +0.063 C 
ATOM     15  C   UNL     1      -8.402  -4.670  -0.974  0.00  0.00    -0.041 A 
ATOM     16  C   UNL     1      -9.420  -3.948  -0.368  0.00  0.00    +0.004 A 
ATOM     17  C   UNL     1     -10.738  -4.317  -0.546  0.00  0.00    +0.000 A 
ATOM     18  C   UNL     1     -11.046  -5.411  -1.334  0.00  0.00    +0.000 A 
ATOM     19  C   UNL     1     -10.034  -6.130  -1.937  0.00  0.00    +0.005 A 
ATOM     20  C   UNL     1      -8.708  -5.763  -1.756  0.00  0.00    -0.030 A 
ATOM     21  C   UNL     1      -7.638  -6.585  -2.425  0.00  0.00    +0.117 C 
ATOM     22  N   UNL     1      -6.373  -5.847  -2.473  0.00  0.00    -0.301 NA
ATOM     23  H   UNL     1      -6.426  -5.087  -3.134  0.00  0.00    +0.123 HD
ENDBRANCH  10  13
ENDBRANCH   1   9
BRANCH   1  24
ATOM     24  C   UNL     1      -1.811  -4.702   1.243  0.00  0.00    +0.069 C 
BRANCH  24  25
ATOM     25  C   UNL     1      -1.683  -6.202   1.174  0.00  0.00    -0.020 A 
ATOM     26  C   UNL     1      -2.510  -7.100   1.731  0.00  0.00    +0.087 A 
ATOM     27  N   UNL     1      -2.075  -8.368   1.456  0.00  0.00    -0.360 N 
ATOM     28  H   UNL     1      -2.510  -9.183   1.752  0.00  0.00    +0.165 HD
ATOM     29  C   UNL     1      -0.929  -8.315   0.695  0.00  0.00    +0.047 A 
ATOM     30  C   UNL     1      -0.636  -6.956   0.480  0.00  0.00    +0.003 A 
ATOM     31  C   UNL     1       0.482  -6.595  -0.274  0.00  0.00    +0.010 A 
ATOM     32  C   UNL     1       1.286  -7.565  -0.802  0.00  0.00    +0.001 A 
ATOM     33  C   UNL     1       1.000  -8.908  -0.596  0.00  0.00    +0.002 A 
ATOM     34  C   UNL     1      -0.094  -9.286   0.152  0.00  0.00    +0.026 A 
ENDBRANCH  24  25
ENDBRANCH   1  24
TORSDOF 7
