REMARK  Name = ZINC09181714
REMARK  10 active torsions:
REMARK  status: ('A' for Active; 'I' for Inactive)
REMARK    1  A    between atoms: C_1  and  C_2
REMARK    2  A    between atoms: C_2  and  C_3
REMARK    3  A    between atoms: C_4  and  C_33
REMARK    4  A    between atoms: N_10  and  C_26
REMARK    5  A    between atoms: C_11  and  S_13
REMARK    6  A    between atoms: S_13  and  C_14
REMARK    7  A    between atoms: C_14  and  C_15
REMARK    8  A    between atoms: N_17  and  C_18
REMARK    9  A    between atoms: C_19  and  C_23
REMARK   10  A    between atoms: C_26  and  C_27
REMARK                            x       y       z     vdW  Elec       q    Type
REMARK                         _______ _______ _______ _____ _____    ______ ____
ROOT
ATOM      1  C   UNL     1       5.118  11.261   0.046  0.00  0.00    -0.023 A 
ATOM      2  C   UNL     1       6.176  10.438   0.037  0.00  0.00    -0.007 A 
ATOM      3  S   UNL     1       5.439   8.815   0.030  0.00  0.00    -0.073 S 
ATOM      4  C   UNL     1       3.729   9.289   0.040  0.00  0.00    +0.117 A 
ATOM      5  C   UNL     1       3.779  10.696   0.048  0.00  0.00    +0.076 A 
ATOM      6  C   UNL     1       2.514  11.363   0.056  0.00  0.00    +0.263 A 
ATOM      7  O   UNL     1       2.459  12.581   0.063  0.00  0.00    -0.267 OA
ATOM      8  N   UNL     1       1.386  10.630   0.056  0.00  0.00    -0.285 N 
ATOM      9  C   UNL     1       1.429   9.265   0.048  0.00  0.00    +0.173 A 
ATOM     10  N   UNL     1       2.580   8.625   0.045  0.00  0.00    -0.216 NA
ATOM     11  C   UNL     1       7.640  10.799   0.035  0.00  0.00    +0.052 C 
ENDROOT
BRANCH   1  13
ATOM     12  C   UNL     1       5.385  13.253   1.498  0.00  0.00    +0.009 C 
ATOM     13  C   UNL     1       5.314  12.755   0.053  0.00  0.00    +0.033 C 
ENDBRANCH   1  13
BRANCH   9  14
ATOM     14  S   UNL     1      -0.076   8.349   0.049  0.00  0.00    -0.078 S 
BRANCH  14  15
ATOM     15  C   UNL     1       0.583   6.663   0.037  0.00  0.00    +0.173 C 
BRANCH  15  16
ATOM     16  C   UNL     1      -0.558   5.678   0.036  0.00  0.00    +0.228 C 
ATOM     17  O   UNL     1      -1.703   6.077   0.043  0.00  0.00    -0.275 OA
ATOM     18  N   UNL     1      -0.305   4.354   0.028  0.00  0.00    -0.279 N 
ATOM     19  H   UNL     1       0.611   4.036   0.023  0.00  0.00    +0.155 HD
BRANCH  18  20
ATOM     20  C   UNL     1      -1.354   3.448   0.027  0.00  0.00    +0.084 A 
ATOM     21  C   UNL     1      -1.296   2.059   0.019  0.00  0.00    +0.065 A 
ATOM     22  C   UNL     1      -2.557   1.356   0.015  0.00  0.00    +0.022 A 
ATOM     23  C   UNL     1      -3.676   2.103   0.030  0.00  0.00    +0.048 A 
ATOM     24  S   UNL     1      -3.055   3.772   0.036  0.00  0.00    -0.081 S 
BRANCH  21  25
ATOM     25  C   UNL     1      -0.016   1.344   0.009  0.00  0.00    +0.244 C 
ATOM     26  O   UNL     1       1.029   1.966   0.003  0.00  0.00    -0.270 OA
ATOM     27  N   UNL     1       0.002  -0.004   0.002  0.00  0.00    -0.325 N 
ATOM     28  H   UNL     1       0.849  -0.478  -0.009  0.00  0.00    +0.145 HD
ATOM     29  H   UNL     1      -0.831  -0.500   0.007  0.00  0.00    +0.145 HD
ENDBRANCH  21  25
ENDBRANCH  18  20
ENDBRANCH  15  16
ENDBRANCH  14  15
ENDBRANCH   9  14
BRANCH   8  30
ATOM     30  C   UNL     1       0.088  11.308   0.064  0.00  0.00    +0.159 C 
BRANCH  30  31
ATOM     31  C   UNL     1      -0.359  11.536   1.509  0.00  0.00    +0.138 C 
ATOM     32  C   UNL     1      -1.777  12.146   1.529  0.00  0.00    +0.035 C 
ATOM     33  C   UNL     1      -1.677  13.175   2.688  0.00  0.00    +0.031 C 
ATOM     34  C   UNL     1      -0.207  13.642   2.541  0.00  0.00    +0.160 C 
ATOM     35  O   UNL     1       0.521  12.468   2.149  0.00  0.00    -0.375 OA
ENDBRANCH  30  31
ENDBRANCH   8  30
TORSDOF 8
