REMARK  Name = ZINC39685751
REMARK  11 active torsions:
REMARK  status: ('A' for Active; 'I' for Inactive)
REMARK    1  A    between atoms: C_1  and  C_2
REMARK    2  A    between atoms: C_2  and  C_3
REMARK    3  A    between atoms: C_2  and  C_4
REMARK    4  A    between atoms: C_4  and  C_6
REMARK    5  A    between atoms: C_4  and  N_13
REMARK    6  A    between atoms: N_8  and  C_9
REMARK    7  A    between atoms: C_9  and  C_10
REMARK    8  A    between atoms: C_9  and  C_11
REMARK    9  A    between atoms: C_9  and  C_12
REMARK   10  A    between atoms: C_14  and  C_16
REMARK   11  A    between atoms: C_27  and  C_29
REMARK                            x       y       z     vdW  Elec       q    Type
REMARK                         _______ _______ _______ _____ _____    ______ ____
ROOT
ATOM      1  C   UNL     1       0.579  -4.338   1.818  0.00  0.00    +0.100 C 
ATOM      2  C   UNL     1       1.784  -4.112   0.878  0.00  0.00    +0.121 C 
ATOM      3  N   UNL     1       2.885  -3.692   1.777  0.00  0.00    -0.296 N 
ATOM      4  C   UNL     1       2.724  -4.543   2.980  0.00  0.00    +0.115 C 
ATOM      5  C   UNL     1       1.200  -4.624   3.196  0.00  0.00    -0.004 C 
ATOM      6  C   UNL     1       0.807  -6.019   3.672  0.00  0.00    -0.010 C 
ATOM      7  C   UNL     1       1.388  -6.259   5.069  0.00  0.00    -0.082 C 
ATOM      8  N   UNL     1       0.876  -5.241   5.995  0.00  0.00    +0.379 N 
ATOM      9  C   UNL     1       1.336  -3.910   5.580  0.00  0.00    -0.082 C 
ATOM     10  C   UNL     1       0.753  -3.572   4.206  0.00  0.00    -0.010 C 
ATOM     11  C   UNL     1       3.822  -2.750   1.551  0.00  0.00    +0.247 C 
ATOM     12  O   UNL     1       3.756  -2.053   0.557  0.00  0.00    -0.270 OA
ATOM     13  H   UNL     1      -0.133  -5.263   5.992  0.00  0.00    -0.086 HD
ATOM     14  H   UNL     1       1.211  -5.436   6.926  0.00  0.00    -0.086 HD
ENDROOT
BRANCH  11  15
ATOM     15  C   UNL     1       4.931  -2.565   2.511  0.00  0.00    +0.037 A 
ATOM     16  C   UNL     1       5.297  -3.605   3.368  0.00  0.00    +0.014 A 
ATOM     17  C   UNL     1       6.332  -3.426   4.261  0.00  0.00    +0.021 A 
ATOM     18  C   UNL     1       7.008  -2.219   4.309  0.00  0.00    +0.041 A 
ATOM     19  C   UNL     1       6.650  -1.183   3.462  0.00  0.00    +0.021 A 
ATOM     20  C   UNL     1       5.620  -1.352   2.560  0.00  0.00    +0.014 A 
ATOM     21 CL   UNL     1       8.310  -2.001   5.437  0.00  0.00    -0.084 Cl
ENDBRANCH  11  15
BRANCH   1  23
ATOM     22  N   UNL     1      -1.591  -3.204   2.171  0.00  0.00    -0.303 N 
ATOM     23  C   UNL     1      -0.280  -3.101   1.877  0.00  0.00    +0.219 C 
ATOM     24  O   UNL     1       0.208  -2.013   1.659  0.00  0.00    -0.275 OA
ATOM     25  H   UNL     1      -1.982  -4.075   2.345  0.00  0.00    +0.149 HD
BRANCH  22  26
ATOM     26  C   UNL     1      -2.426  -2.002   2.228  0.00  0.00    +0.161 C 
BRANCH  26  27
ATOM     27  C   UNL     1      -3.609  -2.254   3.127  0.00  0.00    +0.234 C 
ATOM     28  O   UNL     1      -3.958  -3.390   3.365  0.00  0.00    -0.274 OA
ATOM     29  N   UNL     1      -4.280  -1.216   3.665  0.00  0.00    -0.309 N 
ATOM     30  H   UNL     1      -3.961  -0.310   3.530  0.00  0.00    +0.149 HD
BRANCH  29  31
ATOM     31  C   UNL     1      -5.490  -1.456   4.454  0.00  0.00    +0.026 C 
ATOM     32  C   UNL     1      -5.149  -2.339   5.656  0.00  0.00    +0.031 C 
ATOM     33  C   UNL     1      -6.052  -0.120   4.946  0.00  0.00    +0.031 C 
ATOM     34  C   UNL     1      -6.535  -2.160   3.585  0.00  0.00    +0.031 C 
ENDBRANCH  29  31
ENDBRANCH  26  27
BRANCH  26  36
ATOM     35  C   UNL     1      -1.726  -1.276  -0.058  0.00  0.00    +0.009 C 
ATOM     36  C   UNL     1      -2.919  -1.656   0.821  0.00  0.00    +0.012 C 
ATOM     37  C   UNL     1      -3.631  -2.868   0.218  0.00  0.00    +0.009 C 
ENDBRANCH  26  36
ENDBRANCH  22  26
ENDBRANCH   1  23
TORSDOF 6
