REMARK  Name = ZINC25603042
REMARK  5 active torsions:
REMARK  status: ('A' for Active; 'I' for Inactive)
REMARK    1  A    between atoms: C_4  and  C_7
REMARK    2  A    between atoms: C_7  and  N_8
REMARK    3  A    between atoms: C_12  and  C_14
REMARK    4  A    between atoms: C_14  and  C_15
REMARK    5  A    between atoms: C_15  and  N_16
REMARK                            x       y       z     vdW  Elec       q    Type
REMARK                         _______ _______ _______ _____ _____    ______ ____
ROOT
ATOM      1  N   UNL     1      -3.757   1.649   0.029  0.00  0.00    -0.223 N 
ATOM      2  C   UNL     1      -4.404   2.027   1.159  0.00  0.00    +0.251 C 
ATOM      3  O   UNL     1      -3.950   1.880   2.273  0.00  0.00    -0.272 OA
ATOM      4  C   UNL     1      -5.705   2.625   0.710  0.00  0.00    +0.138 C 
ATOM      5  C   UNL     1      -5.908   4.061   1.208  0.00  0.00    +0.040 C 
ATOM      6  C   UNL     1      -5.365   4.206   2.623  0.00  0.00    +0.003 C 
ATOM      7  C   UNL     1      -6.301   3.598   3.654  0.00  0.00    +0.005 C 
ATOM      8  C   UNL     1      -6.322   2.077   3.595  0.00  0.00    +0.035 C 
ATOM      9  C   UNL     1      -7.180   1.575   2.455  0.00  0.00    -0.042 A 
ATOM     10  C   UNL     1      -6.895   1.804   1.135  0.00  0.00    -0.012 A 
ATOM     11  C   UNL     1      -7.713   1.278   0.144  0.00  0.00    +0.006 A 
ATOM     12  C   UNL     1      -8.827   0.536   0.482  0.00  0.00    +0.000 A 
ATOM     13  C   UNL     1      -9.127   0.318   1.813  0.00  0.00    +0.000 A 
ATOM     14  C   UNL     1      -8.310   0.839   2.796  0.00  0.00    +0.004 A 
ATOM     15  N   UNL     1      -5.569   2.661  -0.760  0.00  0.00    -0.281 N 
ATOM     16  C   UNL     1      -4.425   2.025  -1.064  0.00  0.00    +0.310 C 
ATOM     17  O   UNL     1      -4.044   1.816  -2.200  0.00  0.00    -0.252 OA
ATOM     18  H   UNL     1      -6.339   3.154  -1.371  0.00  0.00    +0.152 HD
ENDROOT
BRANCH   1  19
ATOM     19  C   UNL     1      -2.479   0.934   0.019  0.00  0.00    +0.127 C 
BRANCH  19  20
ATOM     20  C   UNL     1      -1.330   1.944   0.019  0.00  0.00    +0.115 C 
BRANCH  20  25
ATOM     21  N   UNL     1       3.478   1.930  -0.021  0.00  0.00    -0.295 N 
ATOM     22  C   UNL     1       2.320   1.240  -0.013  0.00  0.00    +0.306 C 
ATOM     23  O   UNL     1       2.336   0.025  -0.020  0.00  0.00    -0.252 OA
ATOM     24  N   UNL     1       1.143   1.898   0.001  0.00  0.00    -0.240 N 
ATOM     25  C   UNL     1      -0.014   1.208   0.009  0.00  0.00    +0.222 C 
ATOM     26  O   UNL     1       0.002  -0.004   0.002  0.00  0.00    -0.275 OA
ATOM     27  H   UNL     1       3.463   3.030  -0.015  0.00  0.00    +0.151 HD
ATOM     28  H   UNL     1       1.129   2.998   0.007  0.00  0.00    +0.159 HD
BRANCH  21  29
ATOM     29  C   UNL     1       4.756   1.214  -0.037  0.00  0.00    +0.141 C 
BRANCH  29  33
ATOM     30  C   UNL     1       7.965   4.034  -0.052  0.00  0.00    +0.000 A 
ATOM     31  C   UNL     1       7.457   3.571   1.147  0.00  0.00    +0.000 A 
ATOM     32  C   UNL     1       6.419   2.659   1.152  0.00  0.00    +0.005 A 
ATOM     33  C   UNL     1       5.888   2.209  -0.042  0.00  0.00    -0.030 A 
ATOM     34  C   UNL     1       6.400   2.668  -1.242  0.00  0.00    +0.005 A 
ATOM     35  C   UNL     1       7.434   3.584  -1.247  0.00  0.00    +0.000 A 
ENDBRANCH  29  33
ENDBRANCH  21  29
ENDBRANCH  20  25
ENDBRANCH  19  20
ENDBRANCH   1  19
TORSDOF 5
