REMARK  Name = ZINC16644683
REMARK  8 active torsions:
REMARK  status: ('A' for Active; 'I' for Inactive)
REMARK    1  A    between atoms: C_1  and  C_2
REMARK    2  A    between atoms: N_10  and  C_14
REMARK    3  A    between atoms: C_14  and  C_15
REMARK    4  A    between atoms: N_17  and  N_18
REMARK    5  A    between atoms: C_19  and  C_21
REMARK    6  A    between atoms: C_24  and  C_27
REMARK    7  A    between atoms: C_27  and  O_28
REMARK    8  A    between atoms: O_28  and  C_29
REMARK                            x       y       z     vdW  Elec       q    Type
REMARK                         _______ _______ _______ _____ _____    ______ ____
ROOT
ATOM      1  C   UNL     1       3.483   6.333   0.002  0.00  0.00    +0.247 C 
ATOM      2  O   UNL     1       4.538   5.736  -0.011  0.00  0.00    -0.273 OA
ATOM      3  N   UNL     1       2.321   5.650   0.009  0.00  0.00    -0.233 N 
ATOM      4  H   UNL     1       1.477   6.128   0.020  0.00  0.00    +0.173 HD
ENDROOT
BRANCH   3   5
ATOM      5  N   UNL     1       2.333   4.249   0.002  0.00  0.00    -0.230 N 
ATOM      6  C   UNL     1       1.172   3.565   0.009  0.00  0.00    +0.260 C 
ATOM      7  O   UNL     1       0.114   4.164   0.022  0.00  0.00    -0.269 OA
ATOM      8  H   UNL     1       3.177   3.771  -0.008  0.00  0.00    +0.173 HD
BRANCH   6   9
ATOM      9  C   UNL     1       1.184   2.087   0.002  0.00  0.00    +0.038 A 
ATOM     10  C   UNL     1      -0.017   1.375   0.010  0.00  0.00    +0.013 A 
ATOM     11  C   UNL     1       0.002  -0.004   0.002  0.00  0.00    +0.008 A 
ATOM     12  C   UNL     1       1.208  -0.682  -0.013  0.00  0.00    -0.010 A 
ATOM     13  C   UNL     1       2.402   0.016  -0.020  0.00  0.00    +0.008 A 
ATOM     14  C   UNL     1       2.397   1.396  -0.013  0.00  0.00    +0.013 A 
BRANCH  12  15
ATOM     15  C   UNL     1       1.221  -2.189  -0.020  0.00  0.00    +0.264 C 
BRANCH  15  16
ATOM     16  O   UNL     1       1.212  -2.659  -1.369  0.00  0.00    -0.487 OA
BRANCH  16  17
ATOM     17  C   UNL     1       1.222  -4.006  -1.554  0.00  0.00    +0.121 A 
ATOM     18  C   UNL     1       1.245  -4.857  -0.459  0.00  0.00    +0.047 A 
ATOM     19  C   UNL     1       1.250  -6.225  -0.648  0.00  0.00    +0.023 A 
ATOM     20  C   UNL     1       1.242  -6.747  -1.930  0.00  0.00    +0.041 A 
ATOM     21  C   UNL     1       1.224  -5.900  -3.023  0.00  0.00    +0.023 A 
ATOM     22  C   UNL     1       1.214  -4.531  -2.838  0.00  0.00    +0.047 A 
ATOM     23 CL   UNL     1       1.255  -8.467  -2.165  0.00  0.00    -0.084 Cl
ENDBRANCH  16  17
ENDBRANCH  15  16
ENDBRANCH  12  15
ENDBRANCH   6   9
ENDBRANCH   3   5
BRANCH   1  24
ATOM     24  C   UNL     1       3.470   7.840   0.010  0.00  0.00    +0.215 C 
BRANCH  24  34
ATOM     25  C   UNL     1      10.964  10.569  -0.626  0.00  0.00    +0.007 C 
ATOM     26  C   UNL     1       9.604  10.079  -1.129  0.00  0.00    -0.014 C 
ATOM     27  C   UNL     1       9.357   8.655  -0.626  0.00  0.00    +0.006 C 
ATOM     28  C   UNL     1       8.002   8.162  -1.140  0.00  0.00    +0.035 C 
ATOM     29  C   UNL     1       6.899   9.092  -0.647  0.00  0.00    +0.113 C 
ATOM     30  C   UNL     1       7.145  10.520  -1.121  0.00  0.00    +0.035 C 
ATOM     31  C   UNL     1       8.503  11.004  -0.607  0.00  0.00    +0.006 C 
ATOM     32  C   UNL     1       5.549   8.605  -1.122  0.00  0.00    +0.247 C 
ATOM     33  O   UNL     1       5.176   8.479  -2.268  0.00  0.00    -0.273 OA
ATOM     34  N   UNL     1       4.847   8.340  -0.001  0.00  0.00    -0.215 N 
ATOM     35  C   UNL     1       5.562   8.597   1.101  0.00  0.00    +0.310 C 
ATOM     36  O   UNL     1       5.143   8.441   2.231  0.00  0.00    -0.252 OA
ATOM     37  N   UNL     1       6.801   9.044   0.817  0.00  0.00    -0.285 N 
ATOM     38  H   UNL     1       7.490   9.290   1.454  0.00  0.00    +0.151 HD
ENDBRANCH  24  34
ENDBRANCH   1  24
TORSDOF 7
