REMARK  Name = ZINC38965153
REMARK  8 active torsions:
REMARK  status: ('A' for Active; 'I' for Inactive)
REMARK    1  A    between atoms: C_1  and  C_2
REMARK    2  A    between atoms: C_2  and  C_4
REMARK    3  A    between atoms: C_4  and  S_5
REMARK    4  A    between atoms: S_5  and  C_6
REMARK    5  A    between atoms: C_10  and  C_13
REMARK    6  A    between atoms: C_13  and  C_15
REMARK    7  A    between atoms: C_13  and  N_25
REMARK    8  A    between atoms: C_15  and  C_16
REMARK                            x       y       z     vdW  Elec       q    Type
REMARK                         _______ _______ _______ _____ _____    ______ ____
ROOT
ATOM      1  C   UNL     1      -6.025  -1.995  -1.061  0.00  0.00    -0.025 C 
ENDROOT
BRANCH   1   5
ATOM      2  C   UNL     1      -3.553  -1.675   1.512  0.00  0.00    +0.262 C 
ATOM      3  N   UNL     1      -3.241  -3.049   1.055  0.00  0.00    -0.218 NA
ATOM      4  N   UNL     1      -4.343  -3.367   0.131  0.00  0.00    -0.228 NA
ATOM      5  C   UNL     1      -4.593  -2.058  -0.526  0.00  0.00    +0.188 C 
ATOM      6  O   UNL     1      -4.404  -1.081   0.520  0.00  0.00    -0.334 OA
ATOM      7  H   UNL     1      -3.223  -3.692   1.832  0.00  0.00    +0.144 HD
ATOM      8  H   UNL     1      -4.060  -4.062  -0.543  0.00  0.00    +0.143 HD
BRANCH   2   9
ATOM      9  S   UNL     1      -2.023  -0.713   1.670  0.00  0.00    -0.109 S 
BRANCH   9  10
ATOM     10  C   UNL     1      -1.293  -0.775   0.010  0.00  0.00    +0.102 C 
BRANCH  10  12
ATOM     11  C   UNL     1      -0.018   1.503   0.010  0.00  0.00    +0.039 C 
ATOM     12  C   UNL     1       0.002  -0.004   0.002  0.00  0.00    -0.070 C 
ATOM     13  C   UNL     1       1.145  -0.644  -0.012  0.00  0.00    +0.008 C 
ENDBRANCH  10  12
ENDBRANCH   9  10
ENDBRANCH   2   9
ENDBRANCH   1   5
BRANCH   1  14
ATOM     14  N   UNL     1      -6.970  -2.040   0.062  0.00  0.00    +0.383 N 
ATOM     15  H   UNL     1      -7.915  -1.998  -0.291  0.00  0.00    -0.089 HD
ATOM     16  H   UNL     1      -6.841  -2.898   0.576  0.00  0.00    -0.089 HD
ATOM     17  H   UNL     1      -6.805  -1.254   0.673  0.00  0.00    -0.089 HD
ENDBRANCH   1  14
BRANCH   1  18
ATOM     18  C   UNL     1      -6.221  -0.693  -1.841  0.00  0.00    +0.025 C 
BRANCH  18  19
ATOM     19  C   UNL     1      -7.590  -0.686  -2.471  0.00  0.00    -0.024 A 
ATOM     20  C   UNL     1      -8.841  -0.266  -1.834  0.00  0.00    +0.003 A 
ATOM     21  C   UNL     1      -9.169   0.221  -0.567  0.00  0.00    +0.010 A 
ATOM     22  C   UNL     1     -10.467   0.532  -0.275  0.00  0.00    +0.001 A 
ATOM     23  C   UNL     1     -11.463   0.367  -1.228  0.00  0.00    +0.002 A 
ATOM     24  C   UNL     1     -11.161  -0.111  -2.484  0.00  0.00    +0.026 A 
ATOM     25  C   UNL     1      -9.847  -0.434  -2.803  0.00  0.00    +0.047 A 
ATOM     26  N   UNL     1      -9.239  -0.920  -3.939  0.00  0.00    -0.360 N 
ATOM     27  C   UNL     1      -7.895  -1.059  -3.724  0.00  0.00    +0.087 A 
ATOM     28  H   UNL     1      -9.695  -1.130  -4.769  0.00  0.00    +0.165 HD
ENDBRANCH  18  19
ENDBRANCH   1  18
TORSDOF 7
