REMARK  Name = ZINC54404289
REMARK  8 active torsions:
REMARK  status: ('A' for Active; 'I' for Inactive)
REMARK    1  A    between atoms: C_1  and  C_2
REMARK    2  A    between atoms: C_2  and  C_3
REMARK    3  A    between atoms: C_3  and  C_4
REMARK    4  A    between atoms: C_3  and  C_5
REMARK    5  A    between atoms: C_3  and  C_6
REMARK    6  A    between atoms: N_8  and  C_9
REMARK    7  A    between atoms: C_9  and  C_17
REMARK    8  A    between atoms: N_18  and  O_19
REMARK                            x       y       z     vdW  Elec       q    Type
REMARK                         _______ _______ _______ _____ _____    ______ ____
ROOT
ATOM      1  C   UNL     1       1.483  -4.152   2.277  0.00  0.00    +0.093 C 
ATOM      2  C   UNL     1       2.053  -4.836   1.061  0.00  0.00    +0.033 C 
ATOM      3  C   UNL     1       3.537  -4.716   0.769  0.00  0.00    +0.002 C 
ATOM      4  C   UNL     1       4.030  -3.267   0.762  0.00  0.00    +0.000 C 
ATOM      5  C   UNL     1       4.957  -3.057   1.974  0.00  0.00    +0.000 C 
ATOM      6  C   UNL     1       4.134  -2.966   3.258  0.00  0.00    +0.000 C 
ATOM      7  C   UNL     1       3.653  -4.363   3.644  0.00  0.00    +0.002 C 
ATOM      8  C   UNL     1       2.146  -4.492   3.596  0.00  0.00    +0.033 C 
ENDROOT
BRANCH   1   9
ATOM      9  C   UNL     1       0.033  -4.653   2.402  0.00  0.00    +0.155 C 
ATOM     10  N   UNL     1      -0.346  -5.272   3.471  0.00  0.00    -0.075 NA
ATOM     11  N   UNL     1      -0.859  -4.442   1.375  0.00  0.00    -0.342 N 
ATOM     12  H   UNL     1      -0.597  -3.913   0.606  0.00  0.00    +0.144 HD
ATOM     13  H   UNL     1      -1.750  -4.822   1.421  0.00  0.00    +0.144 HD
BRANCH  10  14
ATOM     14  O   UNL     1      -1.681  -5.732   3.586  0.00  0.00    -0.408 OA
ATOM     15  H   UNL     1      -1.871  -6.183   4.420  0.00  0.00    +0.328 HD
ENDBRANCH  10  14
ENDBRANCH   1   9
BRANCH   1  18
ATOM     16  C   UNL     1       0.751  -1.952   3.027  0.00  0.00    +0.219 C 
ATOM     17  O   UNL     1       0.224  -2.483   3.981  0.00  0.00    -0.275 OA
ATOM     18  N   UNL     1       1.361  -2.704   2.090  0.00  0.00    -0.302 N 
ATOM     19  H   UNL     1       1.720  -2.287   1.291  0.00  0.00    +0.150 HD
BRANCH  16  20
ATOM     20  C   UNL     1       0.723  -0.452   2.888  0.00  0.00    +0.041 C 
ATOM     21  C   UNL     1       0.011  -0.073   1.588  0.00  0.00    +0.020 C 
ATOM     22  C   UNL     1       2.156   0.084   2.860  0.00  0.00    +0.020 C 
BRANCH  20  24
ATOM     23  C   UNL     1      -0.054   1.679   3.936  0.00  0.00    +0.005 C 
ATOM     24  C   UNL     1      -0.026   0.156   4.076  0.00  0.00    +0.012 C 
ENDBRANCH  20  24
ENDBRANCH  16  20
ENDBRANCH   1  18
TORSDOF 5
