REMARK  Name = ZINC20086135
REMARK  7 active torsions:
REMARK  status: ('A' for Active; 'I' for Inactive)
REMARK    1  A    between atoms: C_1  and  C_2
REMARK    2  A    between atoms: C_2  and  C_4
REMARK    3  A    between atoms: C_2  and  C_14
REMARK    4  A    between atoms: C_4  and  C_5
REMARK    5  A    between atoms: N_24  and  C_27
REMARK    6  A    between atoms: C_29  and  N_33
REMARK    7  A    between atoms: C_30  and  C_31
REMARK                            x       y       z     vdW  Elec       q    Type
REMARK                         _______ _______ _______ _____ _____    ______ ____
ROOT
ATOM      1  C   UNL     1       1.111   3.648   0.037  0.00  0.00    +0.077 C 
ATOM      2  C   UNL     1       1.095   2.142   0.012  0.00  0.00    +0.068 A 
ATOM      3  C   UNL     1      -0.081   1.460   0.096  0.00  0.00    +0.148 A 
ATOM      4  C   UNL     1      -0.044  -0.009   0.070  0.00  0.00    +0.041 A 
ATOM      5  C   UNL     1      -1.217  -0.763   0.154  0.00  0.00    +0.013 A 
ATOM      6  C   UNL     1      -1.148  -2.128   0.129  0.00  0.00    +0.001 A 
ATOM      7  C   UNL     1       0.077  -2.771   0.019  0.00  0.00    +0.002 A 
ATOM      8  C   UNL     1       1.246  -2.046  -0.065  0.00  0.00    +0.026 A 
ATOM      9  C   UNL     1       1.199  -0.656  -0.041  0.00  0.00    +0.055 A 
ATOM     10  N   UNL     1       2.352   0.097  -0.124  0.00  0.00    -0.311 N 
ATOM     11  C   UNL     1       2.309   1.439  -0.099  0.00  0.00    +0.259 A 
ATOM     12  O   UNL     1       3.352   2.067  -0.174  0.00  0.00    -0.267 OA
ATOM     13  C   UNL     1       3.646  -0.579  -0.241  0.00  0.00    +0.152 C 
ATOM     14  O   UNL     1      -1.262   2.102   0.195  0.00  0.00    -0.440 OA
ATOM     15  C   UNL     1      -1.358   3.396  -0.155  0.00  0.00    +0.198 C 
ATOM     16  C   UNL     1      -0.263   4.187  -0.252  0.00  0.00    +0.094 C 
ENDROOT
BRANCH  15  17
ATOM     17  N   UNL     1      -2.595   3.926  -0.425  0.00  0.00    -0.328 N 
ATOM     18  H   UNL     1      -2.688   4.984  -0.713  0.00  0.00    +0.145 HD
ATOM     19  H   UNL     1      -3.492   3.294  -0.354  0.00  0.00    +0.145 HD
ENDBRANCH  15  17
BRANCH   1  21
ATOM     20  C   UNL     1       0.518   3.732   2.462  0.00  0.00    +0.009 C 
ATOM     21  C   UNL     1       1.563   4.127   1.417  0.00  0.00    +0.003 C 
BRANCH  21  22
ATOM     22  C   UNL     1       1.720   5.649   1.403  0.00  0.00    +0.039 C 
BRANCH  22  23
ATOM     23  C   UNL     1       2.310   6.106   2.712  0.00  0.00    -0.043 A 
ATOM     24  C   UNL     1       1.478   6.438   3.765  0.00  0.00    +0.007 A 
ATOM     25  C   UNL     1       2.014   6.852   4.970  0.00  0.00    +0.050 A 
ATOM     26  C   UNL     1       3.388   6.947   5.121  0.00  0.00    +0.166 A 
ATOM     27  C   UNL     1       4.226   6.617   4.059  0.00  0.00    +0.166 A 
ATOM     28  C   UNL     1       3.682   6.197   2.856  0.00  0.00    +0.053 A 
ATOM     29  O   UNL     1       5.521   6.791   4.454  0.00  0.00    -0.453 OA
ATOM     30  C   UNL     1       5.456   7.619   5.631  0.00  0.00    +0.466 C 
ATOM     31  O   UNL     1       4.158   7.327   6.182  0.00  0.00    -0.453 OA
ENDBRANCH  22  23
ENDBRANCH  21  22
ENDBRANCH   1  21
BRANCH  16  32
ATOM     32  C   UNL     1      -0.416   5.558  -0.635  0.00  0.00    +0.100 C 
ATOM     33  N   UNL     1      -0.537   6.646  -0.939  0.00  0.00    -0.191 NA
ENDBRANCH  16  32
TORSDOF 5
