REMARK  Name = ZINC08776429
REMARK  5 active torsions:
REMARK  status: ('A' for Active; 'I' for Inactive)
REMARK    1  A    between atoms: C_1  and  C_2
REMARK    2  A    between atoms: C_2  and  O_3
REMARK    3  A    between atoms: O_3  and  C_4
REMARK    4  A    between atoms: C_7  and  O_30
REMARK    5  A    between atoms: C_8  and  C_10
REMARK                            x       y       z     vdW  Elec       q    Type
REMARK                         _______ _______ _______ _____ _____    ______ ____
ROOT
ATOM      1  C   UNL     1      -4.320  -4.363   0.008  0.00  0.00    +0.212 C 
ATOM      2  N   UNL     1      -5.276  -3.400   0.585  0.00  0.00    -0.294 N 
ATOM      3  C   UNL     1      -5.750  -2.387  -0.236  0.00  0.00    +0.159 C 
ATOM      4  N   UNL     1      -6.281  -2.779  -1.465  0.00  0.00    -0.259 N 
ATOM      5  C   UNL     1      -5.663  -3.883  -2.050  0.00  0.00    +0.205 A 
ATOM      6  N   UNL     1      -4.744  -4.644  -1.368  0.00  0.00    -0.288 N 
ATOM      7  C   UNL     1      -4.337  -5.657  -2.209  0.00  0.00    +0.076 A 
ATOM      8  C   UNL     1      -3.449  -6.718  -2.087  0.00  0.00    +0.077 A 
ATOM      9  C   UNL     1      -3.264  -7.583  -3.148  0.00  0.00    +0.164 A 
ATOM     10  C   UNL     1      -3.959  -7.398  -4.340  0.00  0.00    +0.164 A 
ATOM     11  C   UNL     1      -4.842  -6.347  -4.478  0.00  0.00    +0.079 A 
ATOM     12  C   UNL     1      -5.040  -5.465  -3.412  0.00  0.00    +0.095 A 
ATOM     13  N   UNL     1      -5.828  -4.362  -3.248  0.00  0.00    -0.214 NA
ATOM     14  O   UNL     1      -3.765  -8.266  -5.376  0.00  0.00    -0.488 OA
ATOM     15  C   UNL     1      -2.479  -8.219  -5.998  0.00  0.00    +0.232 C 
ATOM     16  C   UNL     1      -1.480  -9.077  -5.239  0.00  0.00    +0.082 C 
ATOM     17  C   UNL     1      -1.214  -8.552  -3.837  0.00  0.00    +0.232 C 
ATOM     18  O   UNL     1      -2.393  -8.629  -3.034  0.00  0.00    -0.488 OA
ATOM     19  N   UNL     1      -5.702  -1.135   0.123  0.00  0.00    -0.375 N 
ATOM     20  H   UNL     1      -5.564  -3.473   1.509  0.00  0.00    +0.151 HD
ATOM     21  H   UNL     1      -5.328  -0.892   0.984  0.00  0.00    +0.158 HD
ATOM     22  H   UNL     1      -7.025  -2.317  -1.882  0.00  0.00    +0.158 HD
ATOM     23  H   UNL     1      -6.041  -0.448  -0.471  0.00  0.00    +0.158 HD
ENDROOT
BRANCH   1  28
ATOM     24  C   UNL     1      -1.128  -2.718  -1.171  0.00  0.00    +0.121 A 
ATOM     25  C   UNL     1      -0.389  -2.675   0.002  0.00  0.00    +0.049 A 
ATOM     26  C   UNL     1      -0.921  -3.179   1.173  0.00  0.00    +0.049 A 
ATOM     27  C   UNL     1      -2.195  -3.726   1.176  0.00  0.00    +0.124 A 
ATOM     28  C   UNL     1      -2.935  -3.768   0.004  0.00  0.00    +0.038 A 
ATOM     29  C   UNL     1      -2.405  -3.260  -1.166  0.00  0.00    +0.056 A 
BRANCH  27  30
ATOM     30  O   UNL     1      -2.719  -4.222   2.329  0.00  0.00    -0.506 OA
ATOM     31  H   UNL     1      -3.211  -3.572   2.849  0.00  0.00    +0.292 HD
ENDBRANCH  27  30
BRANCH  24  32
ATOM     32  O   UNL     1      -0.604  -2.223  -2.324  0.00  0.00    -0.492 OA
BRANCH  32  34
ATOM     33  C   UNL     1       1.132  -1.176  -3.639  0.00  0.00    +0.048 C 
ATOM     34  C   UNL     1       0.716  -1.680  -2.256  0.00  0.00    +0.225 C 
ENDBRANCH  32  34
ENDBRANCH  24  32
ENDBRANCH   1  28
TORSDOF 4
