REMARK  Name = ZINC38639694
REMARK  7 active torsions:
REMARK  status: ('A' for Active; 'I' for Inactive)
REMARK    1  A    between atoms: C_1  and  C_2
REMARK    2  A    between atoms: C_6  and  N_12
REMARK    3  A    between atoms: C_9  and  C_11
REMARK    4  A    between atoms: C_13  and  C_15
REMARK    5  A    between atoms: C_15  and  S_16
REMARK    6  A    between atoms: S_16  and  C_17
REMARK    7  A    between atoms: C_21  and  C_23
REMARK                            x       y       z     vdW  Elec       q    Type
REMARK                         _______ _______ _______ _____ _____    ______ ____
ROOT
ATOM      1  N   UNL     1       3.313  -2.384  -2.487  0.00  0.00    -0.285 N 
ATOM      2  C   UNL     1       4.379  -2.496  -3.305  0.00  0.00    +0.225 C 
ATOM      3  O   UNL     1       4.612  -1.628  -4.119  0.00  0.00    -0.275 OA
ATOM      4  H   UNL     1       3.127  -3.079  -1.835  0.00  0.00    +0.151 HD
ENDROOT
BRANCH   1   9
ATOM      5  C   UNL     1      -0.019   1.526   0.010  0.00  0.00    +0.030 C 
ATOM      6  C   UNL     1       0.002  -0.004   0.002  0.00  0.00    +0.099 C 
ATOM      7  C   UNL     1       0.712  -0.492  -1.232  0.00  0.00    -0.011 C 
ATOM      8  C   UNL     1       2.029  -0.763  -1.215  0.00  0.00    +0.065 C 
ATOM      9  C   UNL     1       2.437  -1.214  -2.581  0.00  0.00    +0.243 C 
ATOM     10  O   UNL     1       1.211  -1.562  -3.261  0.00  0.00    -0.347 OA
ATOM     11  C   UNL     1       0.198  -0.762  -2.613  0.00  0.00    +0.146 C 
ATOM     12  C   UNL     1       0.002   0.554  -3.369  0.00  0.00    +0.043 C 
ATOM     13  C   UNL     1       2.797  -0.603   0.029  0.00  0.00    +0.258 C 
ATOM     14  O   UNL     1       4.009  -0.695   0.056  0.00  0.00    -0.269 OA
ATOM     15  N   UNL     1       2.069  -0.345   1.144  0.00  0.00    -0.247 N 
ATOM     16  N   UNL     1       0.718  -0.493   1.188  0.00  0.00    -0.233 NA
ATOM     17  H   UNL     1       2.530  -0.044   1.943  0.00  0.00    +0.169 HD
ATOM     18  H   UNL     1       0.334  -0.094   2.031  0.00  0.00    +0.145 HD
ENDBRANCH   1   9
BRANCH   2  19
ATOM     19  C   UNL     1       5.281  -3.699  -3.207  0.00  0.00    +0.170 C 
BRANCH  19  20
ATOM     20  S   UNL     1       6.613  -3.557  -4.431  0.00  0.00    -0.087 S 
BRANCH  20  21
ATOM     21  C   UNL     1       7.595  -5.062  -4.186  0.00  0.00    +0.339 C 
ATOM     22  N   UNL     1       6.758  -6.260  -4.375  0.00  0.00    -0.219 N 
ATOM     23  N   UNL     1       6.787  -6.932  -3.144  0.00  0.00    -0.144 NA
ATOM     24  C   UNL     1       7.518  -6.284  -2.295  0.00  0.00    +0.248 C 
ATOM     25  O   UNL     1       8.046  -5.152  -2.827  0.00  0.00    -0.442 OA
ATOM     26  H   UNL     1       6.287  -6.527  -5.179  0.00  0.00    +0.173 HD
BRANCH  24  27
ATOM     27  C   UNL     1       7.751  -6.724  -0.911  0.00  0.00    +0.094 A 
ATOM     28  C   UNL     1       7.277  -7.836  -0.290  0.00  0.00    +0.068 A 
ATOM     29  C   UNL     1       7.639  -8.075   1.096  0.00  0.00    +0.008 A 
ATOM     30  C   UNL     1       7.265  -9.156   1.933  0.00  0.00    +0.010 A 
ATOM     31  C   UNL     1       7.700  -9.220   3.219  0.00  0.00    +0.001 A 
ATOM     32  C   UNL     1       8.520  -8.238   3.758  0.00  0.00    +0.001 A 
ATOM     33  C   UNL     1       8.908  -7.168   2.975  0.00  0.00    +0.016 A 
ATOM     34  C   UNL     1       8.475  -7.090   1.669  0.00  0.00    +0.021 A 
ATOM     35  S   UNL     1       8.729  -5.931   0.350  0.00  0.00    -0.082 S 
ATOM     36 CL   UNL     1       6.255  -8.953  -1.140  0.00  0.00    -0.082 Cl
ENDBRANCH  24  27
ENDBRANCH  20  21
ENDBRANCH  19  20
ENDBRANCH   2  19
TORSDOF 5
