REMARK  Name = ZINC63993784
REMARK  10 active torsions:
REMARK  status: ('A' for Active; 'I' for Inactive)
REMARK    1  A    between atoms: C_1  and  O_2
REMARK    2  A    between atoms: O_2  and  C_3
REMARK    3  A    between atoms: C_3  and  C_4
REMARK    4  A    between atoms: C_4  and  N_5
REMARK    5  A    between atoms: N_8  and  C_28
REMARK    6  A    between atoms: N_14  and  C_17
REMARK    7  A    between atoms: C_17  and  C_18
REMARK    8  A    between atoms: C_28  and  C_29
REMARK    9  A    between atoms: C_33  and  O_35
REMARK   10  A    between atoms: O_35  and  C_36
REMARK                            x       y       z     vdW  Elec       q    Type
REMARK                         _______ _______ _______ _____ _____    ______ ____
ROOT
ATOM      1  N   UNL     1      -0.615  -2.629   1.268  0.00  0.00    -0.269 N 
ATOM      2  C   UNL     1       0.684  -2.773   1.592  0.00  0.00    +0.312 C 
ATOM      3  O   UNL     1       1.602  -2.494   0.845  0.00  0.00    -0.252 OA
ATOM      4  N   UNL     1       0.851  -3.258   2.828  0.00  0.00    -0.220 N 
ATOM      5  C   UNL     1      -0.331  -3.480   3.439  0.00  0.00    +0.247 C 
ATOM      6  O   UNL     1      -0.510  -3.913   4.557  0.00  0.00    -0.273 OA
ATOM      7  C   UNL     1      -1.385  -3.068   2.438  0.00  0.00    +0.112 C 
ATOM      8  C   UNL     1      -2.272  -4.257   2.081  0.00  0.00    +0.017 C 
ATOM      9  C   UNL     1      -3.358  -3.801   1.101  0.00  0.00    -0.076 C 
ATOM     10  N   UNL     1      -4.158  -2.735   1.716  0.00  0.00    +0.381 N 
ATOM     11  C   UNL     1      -3.315  -1.560   1.971  0.00  0.00    -0.076 C 
ATOM     12  C   UNL     1      -2.228  -1.921   2.987  0.00  0.00    +0.017 C 
ATOM     13  H   UNL     1      -4.544  -3.066   2.588  0.00  0.00    -0.082 HD
ENDROOT
BRANCH   1  14
ATOM     14  C   UNL     1      -1.154  -2.126   0.002  0.00  0.00    +0.138 C 
BRANCH  14  15
ATOM     15  C   UNL     1      -0.772  -3.083  -1.130  0.00  0.00    +0.178 C 
BRANCH  15  17
ATOM     16  C   UNL     1      -1.060  -5.338  -1.891  0.00  0.00    +0.194 C 
ATOM     17  O   UNL     1      -1.356  -4.365  -0.887  0.00  0.00    -0.381 OA
ENDBRANCH  15  17
ENDBRANCH  14  15
ENDBRANCH   1  14
BRANCH  10  18
ATOM     18  C   UNL     1      -5.253  -2.363   0.810  0.00  0.00    -0.050 C 
BRANCH  18  19
ATOM     19  C   UNL     1      -6.160  -1.342   1.500  0.00  0.00    +0.086 C 
ATOM     20  C   UNL     1      -7.389  -1.084   0.657  0.00  0.00    +0.005 C 
ATOM     21  C   UNL     1      -8.447  -1.452   1.415  0.00  0.00    -0.004 A 
ATOM     22  C   UNL     1      -9.895  -1.446   1.172  0.00  0.00    +0.010 A 
ATOM     23  C   UNL     1     -10.725  -1.886   2.145  0.00  0.00    +0.001 A 
ATOM     24  C   UNL     1     -10.239  -2.345   3.376  0.00  0.00    +0.002 A 
ATOM     25  C   UNL     1      -8.923  -2.381   3.674  0.00  0.00    +0.026 A 
ATOM     26  C   UNL     1      -7.959  -1.943   2.724  0.00  0.00    +0.043 A 
ATOM     27  N   UNL     1      -6.649  -1.879   2.774  0.00  0.00    -0.380 N 
ATOM     28  H   UNL     1      -6.097  -2.143   3.527  0.00  0.00    +0.160 HD
ENDBRANCH  18  19
ENDBRANCH  10  18
BRANCH   4  29
ATOM     29  C   UNL     1       2.156  -3.516   3.442  0.00  0.00    +0.153 C 
BRANCH  29  30
ATOM     30  C   UNL     1       2.622  -2.281   4.170  0.00  0.00    -0.026 A 
ATOM     31  C   UNL     1       3.375  -1.330   3.505  0.00  0.00    +0.005 A 
ATOM     32  C   UNL     1       3.804  -0.197   4.170  0.00  0.00    +0.004 A 
ATOM     33  C   UNL     1       3.481  -0.011   5.500  0.00  0.00    +0.045 A 
ATOM     34  C   UNL     1       2.726  -0.963   6.169  0.00  0.00    +0.120 A 
ATOM     35  C   UNL     1       2.292  -2.097   5.498  0.00  0.00    +0.050 A 
BRANCH  34  36
ATOM     36  O   UNL     1       2.408  -0.782   7.478  0.00  0.00    -0.495 OA
ATOM     37  C   UNL     1       2.884   0.412   8.103  0.00  0.00    +0.277 C 
ENDBRANCH  34  36
ENDBRANCH  29  30
ENDBRANCH   4  29
TORSDOF 8
