REMARK  Name = ZINC44862591
REMARK  6 active torsions:
REMARK  status: ('A' for Active; 'I' for Inactive)
REMARK    1  A    between atoms: C_1  and  C_2
REMARK    2  A    between atoms: C_2  and  C_3
REMARK    3  A    between atoms: C_3  and  C_5
REMARK    4  A    between atoms: C_3  and  C_9
REMARK    5  A    between atoms: N_6  and  O_7
REMARK    6  A    between atoms: N_11  and  C_12
REMARK                            x       y       z     vdW  Elec       q    Type
REMARK                         _______ _______ _______ _____ _____    ______ ____
ROOT
ATOM      1  C   UNL     1      -1.414  -2.036   0.129  0.00  0.00    +0.224 C 
ATOM      2  O   UNL     1      -1.912  -2.718  -0.742  0.00  0.00    -0.275 OA
ATOM      3  N   UNL     1      -0.842  -2.622   1.199  0.00  0.00    -0.309 N 
ATOM      4  H   UNL     1      -0.444  -2.077   1.895  0.00  0.00    +0.149 HD
ENDROOT
BRANCH   3   5
ATOM      5  C   UNL     1      -0.823  -4.083   1.312  0.00  0.00    +0.035 C 
ATOM      6  C   UNL     1      -0.070  -4.676   0.119  0.00  0.00    +0.029 C 
ATOM      7  C   UNL     1      -0.049  -6.201   0.237  0.00  0.00    -0.008 C 
ATOM      8  C   UNL     1       0.652  -6.604   1.535  0.00  0.00    +0.007 C 
ATOM      9  C   UNL     1      -0.101  -6.011   2.728  0.00  0.00    -0.008 C 
ATOM     10  C   UNL     1      -0.121  -4.485   2.610  0.00  0.00    +0.029 C 
ATOM     11  C   UNL     1      -1.536  -6.540   2.738  0.00  0.00    +0.007 C 
ATOM     12  C   UNL     1      -2.238  -6.138   1.440  0.00  0.00    -0.008 C 
ATOM     13  C   UNL     1      -1.485  -6.731   0.248  0.00  0.00    +0.007 C 
ATOM     14  C   UNL     1      -2.258  -4.612   1.322  0.00  0.00    +0.029 C 
ENDBRANCH   3   5
BRANCH   1  15
ATOM     15  C   UNL     1      -1.433  -0.534   0.013  0.00  0.00    +0.141 C 
BRANCH  15  16
ATOM     16  C   UNL     1      -2.125  -0.137  -1.266  0.00  0.00    +0.144 C 
ATOM     17  N   UNL     1      -1.430   0.098  -2.330  0.00  0.00    -0.076 NA
ATOM     18  N   UNL     1      -3.497  -0.026  -1.301  0.00  0.00    -0.343 N 
ATOM     19  H   UNL     1      -4.019  -0.203  -0.503  0.00  0.00    +0.144 HD
ATOM     20  H   UNL     1      -3.942   0.229  -2.125  0.00  0.00    +0.144 HD
BRANCH  17  21
ATOM     21  O   UNL     1      -2.080   0.471  -3.531  0.00  0.00    -0.408 OA
ATOM     22  H   UNL     1      -1.478   0.626  -4.272  0.00  0.00    +0.328 HD
ENDBRANCH  17  21
ENDBRANCH  15  16
BRANCH  15  24
ATOM     23  C   UNL     1      -0.019   1.526   0.010  0.00  0.00    +0.005 C 
ATOM     24  C   UNL     1       0.002  -0.004   0.002  0.00  0.00    +0.017 C 
ENDBRANCH  15  24
ENDBRANCH   1  15
TORSDOF 5
