REMARK  Name = ZINC14328261
REMARK  9 active torsions:
REMARK  status: ('A' for Active; 'I' for Inactive)
REMARK    1  A    between atoms: C_1  and  C_2
REMARK    2  A    between atoms: C_2  and  C_4
REMARK    3  A    between atoms: C_2  and  N_61
REMARK    4  A    between atoms: N_6  and  C_7
REMARK    5  A    between atoms: C_9  and  N_15
REMARK    6  A    between atoms: C_12  and  O_13
REMARK    7  A    between atoms: O_13  and  C_14
REMARK    8  A    between atoms: C_20  and  C_23
REMARK    9  A    between atoms: C_23  and  C_25
REMARK                            x       y       z     vdW  Elec       q    Type
REMARK                         _______ _______ _______ _____ _____    ______ ____
ROOT
ATOM      1  C   UNL     1      -7.429  -0.210  -0.506  0.00  0.00    -0.077 C 
ATOM      2  C   UNL     1      -6.088  -0.945  -0.577  0.00  0.00    -0.007 C 
ATOM      3  C   UNL     1      -4.994  -0.058   0.023  0.00  0.00    +0.057 C 
ATOM      4  C   UNL     1      -5.368   0.296   1.465  0.00  0.00    -0.007 C 
ATOM      5  C   UNL     1      -6.729   0.995   1.476  0.00  0.00    -0.077 C 
ATOM      6  N   UNL     1      -7.743   0.080   0.909  0.00  0.00    +0.387 N 
ATOM      7  H   UNL     1      -7.732  -0.799   1.440  0.00  0.00    -0.081 HD
ENDROOT
BRANCH   6   9
ATOM      8  C   UNL     1      -9.123   2.038   0.295  0.00  0.00    -0.004 C 
ATOM      9  C   UNL     1      -9.086   0.688   1.014  0.00  0.00    +0.016 C 
BRANCH   9  10
ATOM     10  C   UNL     1      -9.419   0.885   2.470  0.00  0.00    +0.203 C 
ATOM     11  O   UNL     1      -8.617   0.571   3.324  0.00  0.00    -0.277 OA
ATOM     12  N   UNL     1     -10.609   1.409   2.824  0.00  0.00    -0.284 N 
ATOM     13  H   UNL     1     -11.218   1.734   2.142  0.00  0.00    +0.155 HD
BRANCH  12  14
ATOM     14  C   UNL     1     -10.967   1.485   4.176  0.00  0.00    +0.078 A 
ATOM     15  C   UNL     1     -10.405   0.611   5.095  0.00  0.00    +0.059 A 
ATOM     16  C   UNL     1     -10.759   0.687   6.428  0.00  0.00    +0.128 A 
ATOM     17  C   UNL     1     -11.674   1.635   6.851  0.00  0.00    +0.036 A 
ATOM     18  C   UNL     1     -12.238   2.509   5.941  0.00  0.00    +0.050 A 
ATOM     19  C   UNL     1     -11.884   2.442   4.604  0.00  0.00    +0.141 A 
BRANCH  16  20
ATOM     20  N   UNL     1     -10.158  -0.246   7.407  0.00  0.00    +0.056 N 
ATOM     21  O   UNL     1      -9.352  -1.081   7.037  0.00  0.00    -0.126 OA
ATOM     22  O   UNL     1     -10.469  -0.180   8.583  0.00  0.00    -0.126 OA
ENDBRANCH  16  20
BRANCH  19  23
ATOM     23  O   UNL     1     -12.435   3.306   3.709  0.00  0.00    -0.493 OA
ATOM     24  C   UNL     1     -13.367   4.261   4.218  0.00  0.00    +0.277 C 
ENDBRANCH  19  23
ENDBRANCH  12  14
ENDBRANCH   9  10
ENDBRANCH   6   9
BRANCH   3  25
ATOM     25  C   UNL     1      -3.682  -0.799   0.011  0.00  0.00    +0.166 C 
ATOM     26  O   UNL     1      -3.671  -2.012   0.011  0.00  0.00    -0.292 OA
BRANCH  25  27
ATOM     27  C   UNL     1      -2.417  -0.053  -0.001  0.00  0.00    +0.021 A 
ATOM     28  C   UNL     1      -2.426   1.347  -0.001  0.00  0.00    +0.015 A 
ATOM     29  C   UNL     1      -1.239   2.042  -0.018  0.00  0.00    +0.050 A 
ATOM     30  C   UNL     1      -0.026   1.360  -0.026  0.00  0.00    +0.162 A 
ATOM     31  C   UNL     1      -0.009  -0.034  -0.024  0.00  0.00    +0.163 A 
ATOM     32  C   UNL     1      -1.197  -0.740  -0.012  0.00  0.00    +0.060 A 
ATOM     33  O   UNL     1       1.170  -0.715  -0.032  0.00  0.00    -0.485 OA
ATOM     34  C   UNL     1       2.335   0.020  -0.420  0.00  0.00    +0.270 C 
ATOM     35  C   UNL     1       2.325   1.363   0.322  0.00  0.00    +0.270 C 
ATOM     36  O   UNL     1       1.133   2.068  -0.042  0.00  0.00    -0.485 OA
ENDBRANCH  25  27
ENDBRANCH   3  25
TORSDOF 7
