REMARK  Name = ZINC39679078
REMARK  10 active torsions:
REMARK  status: ('A' for Active; 'I' for Inactive)
REMARK    1  A    between atoms: C_1  and  N_2
REMARK    2  A    between atoms: N_2  and  C_3
REMARK    3  A    between atoms: N_2  and  C_4
REMARK    4  A    between atoms: C_4  and  C_5
REMARK    5  A    between atoms: C_5  and  C_6
REMARK    6  A    between atoms: C_6  and  C_7
REMARK    7  A    between atoms: C_7  and  N_8
REMARK    8  A    between atoms: C_9  and  C_11
REMARK    9  A    between atoms: C_22  and  C_24
REMARK   10  A    between atoms: C_27  and  C_29
REMARK                            x       y       z     vdW  Elec       q    Type
REMARK                         _______ _______ _______ _____ _____    ______ ____
ROOT
ATOM      1  C   UNL     1      -5.795  -6.442  -0.330  0.00  0.00    +0.100 C 
ATOM      2  C   UNL     1      -6.434  -6.238   1.062  0.00  0.00    +0.121 C 
ATOM      3  N   UNL     1      -7.263  -7.447   1.275  0.00  0.00    -0.294 N 
ATOM      4  C   UNL     1      -6.448  -8.555   0.721  0.00  0.00    +0.115 C 
ATOM      5  C   UNL     1      -5.806  -7.965  -0.550  0.00  0.00    -0.004 C 
ATOM      6  C   UNL     1      -6.643  -8.315  -1.776  0.00  0.00    -0.010 C 
ATOM      7  C   UNL     1      -6.592  -9.828  -2.007  0.00  0.00    -0.082 C 
ATOM      8  N   UNL     1      -5.200 -10.248  -2.204  0.00  0.00    +0.379 N 
ATOM      9  C   UNL     1      -4.422  -9.992  -0.986  0.00  0.00    -0.082 C 
ATOM     10  C   UNL     1      -4.381  -8.486  -0.712  0.00  0.00    -0.010 C 
ATOM     11  C   UNL     1      -8.482  -7.523   1.844  0.00  0.00    +0.282 C 
ATOM     12  O   UNL     1      -9.039  -8.601   1.948  0.00  0.00    -0.267 OA
ATOM     13  H   UNL     1      -5.174 -11.235  -2.416  0.00  0.00    -0.086 HD
ATOM     14  H   UNL     1      -4.799  -9.731  -2.972  0.00  0.00    -0.086 HD
ENDROOT
BRANCH  11  15
ATOM     15  C   UNL     1      -9.137  -6.309   2.337  0.00  0.00    +0.190 A 
ATOM     16  C   UNL     1     -10.374  -6.246   2.941  0.00  0.00    +0.055 A 
ATOM     17  C   UNL     1     -10.604  -4.901   3.249  0.00  0.00    +0.050 A 
ATOM     18  C   UNL     1      -9.511  -4.200   2.826  0.00  0.00    +0.136 A 
ATOM     19  O   UNL     1      -8.632  -5.059   2.284  0.00  0.00    -0.450 OA
BRANCH  18  20
ATOM     20  C   UNL     1      -9.324  -2.740   2.950  0.00  0.00    +0.017 A 
ATOM     21  C   UNL     1     -10.313  -1.955   3.547  0.00  0.00    +0.014 A 
ATOM     22  C   UNL     1     -10.133  -0.593   3.660  0.00  0.00    +0.039 A 
ATOM     23  C   UNL     1      -8.973  -0.002   3.183  0.00  0.00    +0.123 A 
ATOM     24  C   UNL     1      -7.989  -0.776   2.590  0.00  0.00    +0.039 A 
ATOM     25  C   UNL     1      -8.155  -2.140   2.476  0.00  0.00    +0.014 A 
ATOM     26  F   UNL     1      -8.802   1.333   3.297  0.00  0.00    -0.205 F 
ENDBRANCH  18  20
ENDBRANCH  11  15
BRANCH   1  28
ATOM     27  N   UNL     1      -3.840  -5.464  -1.488  0.00  0.00    -0.315 N 
ATOM     28  C   UNL     1      -4.381  -5.921  -0.341  0.00  0.00    +0.218 C 
ATOM     29  O   UNL     1      -3.730  -5.912   0.682  0.00  0.00    -0.275 OA
ATOM     30  H   UNL     1      -4.361  -5.470  -2.306  0.00  0.00    +0.149 HD
BRANCH  27  31
ATOM     31  C   UNL     1      -2.466  -4.957  -1.498  0.00  0.00    +0.104 C 
BRANCH  31  32
ATOM     32  C   UNL     1      -2.100  -4.503  -2.913  0.00  0.00    +0.017 C 
BRANCH  32  33
ATOM     33  C   UNL     1      -0.665  -3.974  -2.924  0.00  0.00    -0.017 C 
BRANCH  33  34
ATOM     34  C   UNL     1      -0.299  -3.521  -4.339  0.00  0.00    -0.080 C 
BRANCH  34  36
ATOM     35  C   UNL     1       1.471  -2.689  -5.727  0.00  0.00    -0.097 C 
ATOM     36  N   UNL     1       1.079  -3.012  -4.349  0.00  0.00    +0.376 N 
ATOM     37  C   UNL     1       1.161  -1.802  -3.520  0.00  0.00    -0.097 C 
ATOM     38  H   UNL     1       1.700  -3.716  -3.979  0.00  0.00    -0.083 HD
ENDBRANCH  34  36
ENDBRANCH  33  34
ENDBRANCH  32  33
ENDBRANCH  31  32
ENDBRANCH  27  31
ENDBRANCH   1  28
TORSDOF 8
