REMARK  Name = ZINC08868938
REMARK  9 active torsions:
REMARK  status: ('A' for Active; 'I' for Inactive)
REMARK    1  A    between atoms: C_1  and  N_60
REMARK    2  A    between atoms: C_2  and  N_60
REMARK    3  A    between atoms: C_3  and  C_4
REMARK    4  A    between atoms: C_3  and  N_60
REMARK    5  A    between atoms: C_4  and  C_5
REMARK    6  A    between atoms: C_5  and  N_6
REMARK    7  A    between atoms: C_17  and  C_19
REMARK    8  A    between atoms: N_24  and  S_25
REMARK    9  A    between atoms: S_25  and  C_28
REMARK                            x       y       z     vdW  Elec       q    Type
REMARK                         _______ _______ _______ _____ _____    ______ ____
ROOT
ATOM      1  N   UNL     1       0.327   0.758   2.282  0.00  0.00    -0.249 N 
ATOM      2  C   UNL     1       1.406   1.440   2.822  0.00  0.00    +0.168 A 
ATOM      3  N   UNL     1       2.193   2.320   2.250  0.00  0.00    -0.221 NA
ATOM      4  C   UNL     1       3.215   2.914   2.905  0.00  0.00    +0.115 A 
ATOM      5  C   UNL     1       4.129   3.875   2.410  0.00  0.00    +0.150 A 
ATOM      6  C   UNL     1       5.122   4.377   3.214  0.00  0.00    +0.040 A 
ATOM      7  C   UNL     1       5.265   3.964   4.531  0.00  0.00    +0.004 A 
ATOM      8  C   UNL     1       4.389   3.027   5.046  0.00  0.00    +0.017 A 
ATOM      9  C   UNL     1       3.392   2.519   4.249  0.00  0.00    +0.044 A 
ATOM     10  S   UNL     1       2.083   1.338   4.473  0.00  0.00    -0.052 S 
ATOM     11  F   UNL     1       4.024   4.302   1.132  0.00  0.00    -0.203 F 
ATOM     12  C   UNL     1      -0.427  -0.039   3.065  0.00  0.00    +0.240 C 
ATOM     13  O   UNL     1      -0.218  -0.090   4.258  0.00  0.00    -0.273 OA
ENDROOT
BRANCH  12  14
ATOM     14  C   UNL     1      -1.529  -0.868   2.457  0.00  0.00    +0.166 C 
ATOM     15  C   UNL     1      -2.862  -0.091   2.514  0.00  0.00    +0.031 C 
ATOM     16  C   UNL     1      -3.896  -1.200   2.844  0.00  0.00    +0.019 C 
ATOM     17  C   UNL     1      -3.077  -2.119   3.785  0.00  0.00    +0.110 C 
ATOM     18  N   UNL     1      -1.711  -2.104   3.232  0.00  0.00    -0.165 NA
BRANCH  18  19
ATOM     19  S   UNL     1      -0.570  -3.285   3.446  0.00  0.00    +0.062 S 
ATOM     20  O   UNL     1      -1.275  -4.483   3.738  0.00  0.00    -0.153 OA
ATOM     21  O   UNL     1       0.334  -3.179   2.355  0.00  0.00    -0.153 OA
BRANCH  19  22
ATOM     22  C   UNL     1       0.342  -2.871   4.896  0.00  0.00    +0.106 A 
ATOM     23  C   UNL     1       1.476  -2.087   4.799  0.00  0.00    +0.031 A 
ATOM     24  C   UNL     1       2.188  -1.757   5.936  0.00  0.00    +0.040 A 
ATOM     25  C   UNL     1       1.772  -2.222   7.172  0.00  0.00    +0.124 A 
ATOM     26  C   UNL     1       0.640  -3.012   7.268  0.00  0.00    +0.040 A 
ATOM     27  C   UNL     1      -0.075  -3.336   6.130  0.00  0.00    +0.031 A 
ATOM     28  F   UNL     1       2.472  -1.906   8.284  0.00  0.00    -0.205 F 
ENDBRANCH  19  22
ENDBRANCH  18  19
ENDBRANCH  12  14
BRANCH   1  29
ATOM     29  C   UNL     1       0.006   0.903   0.860  0.00  0.00    +0.114 C 
BRANCH  29  30
ATOM     30  C   UNL     1       0.820  -0.106   0.047  0.00  0.00    +0.001 C 
BRANCH  30  31
ATOM     31  C   UNL     1       0.484   0.046  -1.438  0.00  0.00    -0.078 C 
BRANCH  31  34
ATOM     32  C   UNL     1       0.803  -0.972  -3.611  0.00  0.00    -0.097 C 
ATOM     33  C   UNL     1       2.701  -0.617  -2.151  0.00  0.00    -0.097 C 
ATOM     34  N   UNL     1       1.262  -0.948  -2.206  0.00  0.00    +0.376 N 
ATOM     35  H   UNL     1       1.117  -1.877  -1.792  0.00  0.00    -0.083 HD
ENDBRANCH  31  34
ENDBRANCH  30  31
ENDBRANCH  29  30
ENDBRANCH   1  29
TORSDOF 7
