REMARK  Name = ZINC63084517
REMARK  3 active torsions:
REMARK  status: ('A' for Active; 'I' for Inactive)
REMARK    1  A    between atoms: C_3  and  C_8
REMARK    2  A    between atoms: C_10  and  C_13
REMARK    3  A    between atoms: C_13  and  C_14
REMARK                            x       y       z     vdW  Elec       q    Type
REMARK                         _______ _______ _______ _____ _____    ______ ____
ROOT
ATOM      1  C   UNL     1       3.657   2.161  -0.022  0.00  0.00    +0.258 A 
ATOM      2  N   UNL     1       4.863   1.640  -0.041  0.00  0.00    -0.192 NA
ATOM      3  C   UNL     1       5.779   2.611  -0.044  0.00  0.00    +0.172 A 
ATOM      4  N   UNL     1       5.176   3.766  -0.027  0.00  0.00    -0.061 NA
ATOM      5  O   UNL     1       3.782   3.500  -0.017  0.00  0.00    -0.333 OA
ENDROOT
BRANCH   1   8
ATOM      6  C   UNL     1      -0.017   1.379   0.010  0.00  0.00    +0.002 A 
ATOM      7  C   UNL     1       1.167   2.088   0.002  0.00  0.00    +0.013 A 
ATOM      8  C   UNL     1       2.385   1.407  -0.013  0.00  0.00    +0.040 A 
ATOM      9  C   UNL     1       2.397   0.012  -0.021  0.00  0.00    +0.027 A 
ATOM     10  C   UNL     1       1.207  -0.686  -0.013  0.00  0.00    +0.014 A 
ATOM     11  C   UNL     1       0.002  -0.004   0.002  0.00  0.00    +0.014 A 
ATOM     12  I   UNL     1       1.222  -2.781  -0.025  0.00  0.00    -0.044 I 
ENDBRANCH   1   8
BRANCH   3  13
ATOM     13  C   UNL     1       7.271   2.405  -0.065  0.00  0.00    +0.081 C 
BRANCH  13  14
ATOM     14  C   UNL     1       7.759   2.347  -1.514  0.00  0.00    -0.021 C 
ATOM     15  C   UNL     1       7.531   3.705  -2.184  0.00  0.00    +0.000 C 
ATOM     16  C   UNL     1       8.092   3.661  -3.608  0.00  0.00    -0.019 C 
ATOM     17  C   UNL     1       9.574   3.282  -3.555  0.00  0.00    -0.083 C 
ATOM     18  N   UNL     1       9.723   1.964  -2.928  0.00  0.00    +0.379 N 
ATOM     19  C   UNL     1       9.252   2.016  -1.539  0.00  0.00    -0.079 C 
ATOM     20  H   UNL     1       9.179   1.285  -3.440  0.00  0.00    -0.086 HD
ATOM     21  H   UNL     1      10.695   1.693  -2.943  0.00  0.00    -0.086 HD
ENDBRANCH  13  14
ENDBRANCH   3  13
TORSDOF 3
