REMARK  Name = ZINC39707785
REMARK  8 active torsions:
REMARK  status: ('A' for Active; 'I' for Inactive)
REMARK    1  A    between atoms: C_7  and  C_10
REMARK    2  A    between atoms: C_10  and  C_11
REMARK    3  A    between atoms: C_11  and  N_12
REMARK    4  A    between atoms: C_13  and  C_15
REMARK    5  A    between atoms: C_15  and  C_16
REMARK    6  A    between atoms: C_20  and  N_23
REMARK    7  A    between atoms: C_24  and  C_26
REMARK    8  A    between atoms: N_31  and  C_33
REMARK                            x       y       z     vdW  Elec       q    Type
REMARK                         _______ _______ _______ _____ _____    ______ ____
ROOT
ATOM      1  C   UNL     1      -5.722   7.636  -3.954  0.00  0.00    +0.075 C 
ATOM      2  C   UNL     1      -6.139   9.137  -3.947  0.00  0.00    +0.091 C 
ATOM      3  S   UNL     1      -6.748   9.285  -5.682  0.00  0.00    -0.121 S 
ATOM      4  C   UNL     1      -7.045   7.499  -6.017  0.00  0.00    +0.202 C 
ATOM      5  N   UNL     1      -6.735   6.872  -4.706  0.00  0.00    -0.286 NA
ATOM      6  H   UNL     1      -6.449   5.912  -4.825  0.00  0.00    +0.125 HD
ENDROOT
BRANCH   4   7
ATOM      7  N   UNL     1      -8.442   7.265  -6.391  0.00  0.00    -0.291 N 
ATOM      8  C   UNL     1      -8.871   7.585  -7.628  0.00  0.00    +0.220 C 
ATOM      9  O   UNL     1      -8.101   8.066  -8.431  0.00  0.00    -0.275 OA
ATOM     10  H   UNL     1      -9.059   6.880  -5.748  0.00  0.00    +0.151 HD
BRANCH   8  11
ATOM     11  C   UNL     1     -10.308   7.344  -8.013  0.00  0.00    +0.101 C 
ATOM     12  C   UNL     1     -10.638   5.833  -8.004  0.00  0.00    +0.110 C 
ATOM     13  C   UNL     1     -11.579   5.652  -9.174  0.00  0.00    +0.221 C 
ATOM     14  O   UNL     1     -12.288   4.684  -9.352  0.00  0.00    -0.275 OA
ATOM     15  N   UNL     1     -11.515   6.719  -9.989  0.00  0.00    -0.271 N 
ATOM     16  C   UNL     1     -10.553   7.712  -9.493  0.00  0.00    +0.127 C 
BRANCH  15  17
ATOM     17  C   UNL     1     -12.269   6.867 -11.159  0.00  0.00    +0.036 A 
ATOM     18  C   UNL     1     -13.071   5.824 -11.605  0.00  0.00    +0.026 A 
ATOM     19  C   UNL     1     -13.814   5.972 -12.760  0.00  0.00    +0.040 A 
ATOM     20  C   UNL     1     -13.760   7.157 -13.473  0.00  0.00    +0.124 A 
ATOM     21  C   UNL     1     -12.961   8.198 -13.030  0.00  0.00    +0.040 A 
ATOM     22  C   UNL     1     -12.221   8.057 -11.872  0.00  0.00    +0.026 A 
ATOM     23  F   UNL     1     -14.487   7.299 -14.603  0.00  0.00    -0.205 F 
ENDBRANCH  15  17
ENDBRANCH   8  11
ENDBRANCH   4   7
BRANCH   1  24
ATOM     24  C   UNL     1      -5.647   7.115  -2.517  0.00  0.00    +0.115 C 
BRANCH  24  26
ATOM     25  N   UNL     1      -4.968   5.037  -1.359  0.00  0.00    -0.315 N 
ATOM     26  C   UNL     1      -5.120   5.703  -2.521  0.00  0.00    +0.215 C 
ATOM     27  O   UNL     1      -4.834   5.166  -3.570  0.00  0.00    -0.276 OA
ATOM     28  H   UNL     1      -5.198   5.467  -0.520  0.00  0.00    +0.149 HD
BRANCH  25  29
ATOM     29  C   UNL     1      -4.457   3.665  -1.363  0.00  0.00    +0.109 C 
BRANCH  29  30
ATOM     30  C   UNL     1      -4.382   3.144   0.074  0.00  0.00    +0.056 C 
BRANCH  30  37
ATOM     31  C   UNL     1      -0.058   1.333   0.030  0.00  0.00    +0.001 A 
ATOM     32  C   UNL     1      -0.053  -0.055   0.031  0.00  0.00    +0.002 A 
ATOM     33  C   UNL     1      -1.236  -0.762   0.044  0.00  0.00    +0.026 A 
ATOM     34  C   UNL     1      -2.448  -0.080   0.057  0.00  0.00    +0.047 A 
ATOM     35  N   UNL     1      -3.764  -0.485   0.071  0.00  0.00    -0.360 N 
ATOM     36  C   UNL     1      -4.588   0.607   0.078  0.00  0.00    +0.087 A 
ATOM     37  C   UNL     1      -3.855   1.732   0.070  0.00  0.00    -0.021 A 
ATOM     38  C   UNL     1      -2.448   1.327   0.056  0.00  0.00    +0.003 A 
ATOM     39  C   UNL     1      -1.238   2.023   0.048  0.00  0.00    +0.010 A 
ATOM     40  H   UNL     1      -4.063  -1.408   0.074  0.00  0.00    +0.165 HD
ENDBRANCH  30  37
ENDBRANCH  29  30
ENDBRANCH  25  29
ENDBRANCH  24  26
ENDBRANCH   1  24
TORSDOF 8
