REMARK  Name = ZINC09042416
REMARK  3 active torsions:
REMARK  status: ('A' for Active; 'I' for Inactive)
REMARK    1  A    between atoms: C_4  and  O_30
REMARK    2  A    between atoms: C_5  and  C_7
REMARK    3  A    between atoms: C_12  and  C_20
REMARK                            x       y       z     vdW  Elec       q    Type
REMARK                         _______ _______ _______ _____ _____    ______ ____
ROOT
ATOM      1  C   UNL     1       1.227  -2.187  -0.022  0.00  0.00    +0.035 C 
ATOM      2  C   UNL     1       0.489  -2.705  -1.258  0.00  0.00    +0.060 C 
ATOM      3  C   UNL     1       0.476  -4.215  -1.244  0.00  0.00    +0.020 C 
ATOM      4  C   UNL     1       0.451  -4.897  -0.080  0.00  0.00    +0.041 C 
ATOM      5  C   UNL     1       0.420  -6.409  -0.034  0.00  0.00    +0.175 C 
ATOM      6  N   UNL     1       0.759  -6.954  -1.342  0.00  0.00    -0.221 N 
ATOM      7  C   UNL     1       0.786  -6.211  -2.476  0.00  0.00    +0.218 A 
ATOM      8  N   UNL     1       1.117  -6.996  -3.464  0.00  0.00    -0.201 NA
ATOM      9  C   UNL     1       1.312  -8.236  -3.005  0.00  0.00    +0.247 A 
ATOM     10  N   UNL     1       1.105  -8.254  -1.711  0.00  0.00    -0.156 NA
ATOM     11  N   UNL     1       0.497  -4.856  -2.460  0.00  0.00    -0.287 N 
ATOM     12  C   UNL     1       0.458  -4.220   1.153  0.00  0.00    +0.164 C 
ATOM     13  O   UNL     1       0.420  -4.863   2.184  0.00  0.00    -0.292 OA
ATOM     14  C   UNL     1       0.513  -2.720   1.225  0.00  0.00    +0.088 C 
ATOM     15  H   UNL     1       0.314  -4.375  -3.281  0.00  0.00    +0.155 HD
ENDROOT
BRANCH   5  16
ATOM     16  C   UNL     1      -0.962  -6.870   0.355  0.00  0.00    -0.018 A 
ATOM     17  C   UNL     1      -2.047  -6.540  -0.436  0.00  0.00    +0.009 A 
ATOM     18  C   UNL     1      -3.314  -6.962  -0.081  0.00  0.00    +0.039 A 
ATOM     19  C   UNL     1      -3.497  -7.715   1.067  0.00  0.00    +0.123 A 
ATOM     20  C   UNL     1      -2.409  -8.044   1.857  0.00  0.00    +0.039 A 
ATOM     21  C   UNL     1      -1.142  -7.626   1.498  0.00  0.00    +0.009 A 
ATOM     22  F   UNL     1      -4.735  -8.127   1.415  0.00  0.00    -0.205 F 
ENDBRANCH   5  16
BRANCH   1  27
ATOM     23  C   UNL     1      -0.017   1.378   0.010  0.00  0.00    +0.001 A 
ATOM     24  C   UNL     1       1.170   2.088   0.002  0.00  0.00    +0.004 A 
ATOM     25  C   UNL     1       2.377   1.417  -0.013  0.00  0.00    +0.046 A 
ATOM     26  C   UNL     1       2.399   0.030  -0.021  0.00  0.00    +0.120 A 
ATOM     27  C   UNL     1       1.207  -0.680  -0.013  0.00  0.00    -0.002 A 
ATOM     28  C   UNL     1       0.002  -0.004   0.002  0.00  0.00    +0.007 A 
BRANCH  26  29
ATOM     29  O   UNL     1       3.586  -0.632  -0.037  0.00  0.00    -0.506 OA
ATOM     30  H   UNL     1       3.938  -0.829   0.842  0.00  0.00    +0.292 HD
ENDBRANCH  26  29
ENDBRANCH   1  27
TORSDOF 3
