REMARK  Name = ZINC03113558
REMARK  5 active torsions:
REMARK  status: ('A' for Active; 'I' for Inactive)
REMARK    1  A    between atoms: C_6  and  N_7
REMARK    2  A    between atoms: C_8  and  C_9
REMARK    3  A    between atoms: C_12  and  O_16
REMARK    4  A    between atoms: C_14  and  O_15
REMARK    5  A    between atoms: C_18  and  C_20
REMARK                            x       y       z     vdW  Elec       q    Type
REMARK                         _______ _______ _______ _____ _____    ______ ____
ROOT
ATOM      1  C   UNL     1      -0.017   1.396   0.010  0.00  0.00    +0.031 A 
ATOM      2  C   UNL     1       1.162   2.108   0.002  0.00  0.00    +0.050 A 
ATOM      3  C   UNL     1       2.378   1.440  -0.013  0.00  0.00    +0.156 A 
ATOM      4  C   UNL     1       2.410   0.035  -0.021  0.00  0.00    +0.112 A 
ATOM      5  C   UNL     1       1.216  -0.685  -0.013  0.00  0.00    +0.059 A 
ATOM      6  C   UNL     1       0.002  -0.004   0.002  0.00  0.00    +0.066 A 
ATOM      7  N   UNL     1       3.720  -0.325  -0.037  0.00  0.00    -0.209 NA
ATOM      8  C   UNL     1       4.454   0.758  -0.039  0.00  0.00    +0.230 A 
ATOM      9  O   UNL     1       3.666   1.850  -0.025  0.00  0.00    -0.435 OA
ENDROOT
BRANCH   8  10
ATOM     10  C   UNL     1       5.931   0.780  -0.054  0.00  0.00    +0.055 A 
ATOM     11  C   UNL     1       6.649  -0.417  -0.074  0.00  0.00    +0.017 A 
ATOM     12  C   UNL     1       8.027  -0.391  -0.089  0.00  0.00    +0.039 A 
ATOM     13  C   UNL     1       8.701   0.820  -0.083  0.00  0.00    +0.125 A 
ATOM     14  C   UNL     1       7.995   2.012  -0.063  0.00  0.00    +0.059 A 
ATOM     15  C   UNL     1       6.614   1.999  -0.055  0.00  0.00    +0.056 A 
ATOM     16 CL   UNL     1       5.730   3.492  -0.037  0.00  0.00    -0.083 Cl
ATOM     17  F   UNL     1      10.052   0.839  -0.098  0.00  0.00    -0.205 F 
ENDBRANCH   8  10
BRANCH   6  18
ATOM     18  N   UNL     1      -1.175  -0.704   0.009  0.00  0.00    -0.255 NA
ATOM     19  C   UNL     1      -2.136  -0.355   0.819  0.00  0.00    +0.123 C 
BRANCH  19  20
ATOM     20  C   UNL     1      -3.398  -1.105   0.827  0.00  0.00    +0.035 A 
ATOM     21  C   UNL     1      -4.434  -0.730   1.691  0.00  0.00    +0.016 A 
ATOM     22  C   UNL     1      -5.615  -1.437   1.695  0.00  0.00    +0.046 A 
ATOM     23  C   UNL     1      -5.784  -2.524   0.843  0.00  0.00    +0.120 A 
ATOM     24  C   UNL     1      -4.764  -2.905  -0.017  0.00  0.00    +0.091 A 
ATOM     25  C   UNL     1      -3.574  -2.200  -0.036  0.00  0.00    +0.129 A 
BRANCH  25  26
ATOM     26  O   UNL     1      -2.578  -2.567  -0.881  0.00  0.00    -0.506 OA
ATOM     27  H   UNL     1      -1.964  -3.214  -0.507  0.00  0.00    +0.292 HD
ENDBRANCH  25  26
BRANCH  23  28
ATOM     28  O   UNL     1      -6.952  -3.216   0.855  0.00  0.00    -0.507 OA
ATOM     29  H   UNL     1      -7.615  -2.878   0.236  0.00  0.00    +0.292 HD
ENDBRANCH  23  28
ENDBRANCH  19  20
ENDBRANCH   6  18
TORSDOF 5
