REMARK  Name = ZINC43746597
REMARK  11 active torsions:
REMARK  status: ('A' for Active; 'I' for Inactive)
REMARK    1  A    between atoms: C_1  and  C_2
REMARK    2  A    between atoms: C_2  and  C_3
REMARK    3  A    between atoms: C_3  and  C_5
REMARK    4  A    between atoms: C_3  and  N_6
REMARK    5  A    between atoms: C_7  and  C_9
REMARK    6  A    between atoms: C_9  and  C_11
REMARK    7  A    between atoms: C_9  and  N_15
REMARK    8  A    between atoms: C_11  and  C_12
REMARK    9  A    between atoms: C_12  and  C_13
REMARK   10  A    between atoms: C_12  and  C_14
REMARK   11  A    between atoms: C_16  and  C_18
REMARK                            x       y       z     vdW  Elec       q    Type
REMARK                         _______ _______ _______ _____ _____    ______ ____
ROOT
ATOM      1  C   UNL     1       6.547   0.366   5.404  0.00  0.00    +0.167 C 
ATOM      2  C   UNL     1       6.607  -1.153   5.621  0.00  0.00    +0.069 C 
ATOM      3  C   UNL     1       7.842  -1.724   4.973  0.00  0.00    -0.015 A 
ATOM      4  C   UNL     1       8.110  -3.119   4.669  0.00  0.00    +0.003 A 
ATOM      5  C   UNL     1       7.360  -4.285   4.852  0.00  0.00    +0.010 A 
ATOM      6  C   UNL     1       7.934  -5.462   4.439  0.00  0.00    +0.001 A 
ATOM      7  C   UNL     1       9.196  -5.505   3.868  0.00  0.00    +0.002 A 
ATOM      8  C   UNL     1       9.958  -4.366   3.674  0.00  0.00    +0.026 A 
ATOM      9  C   UNL     1       9.400  -3.156   4.082  0.00  0.00    +0.047 A 
ATOM     10  N   UNL     1       9.862  -1.873   4.037  0.00  0.00    -0.356 N 
ATOM     11  H   UNL     1      10.725  -1.602   3.688  0.00  0.00    +0.166 HD
ATOM     12  C   UNL     1       8.923  -1.025   4.560  0.00  0.00    +0.046 A 
ATOM     13  C   UNL     1       9.018   0.477   4.664  0.00  0.00    +0.155 C 
ATOM     14  N   UNL     1       7.906   0.896   5.551  0.00  0.00    -0.273 N 
ATOM     15  C   UNL     1       8.387   1.757   6.458  0.00  0.00    +0.248 C 
ATOM     16  O   UNL     1       7.712   2.456   7.187  0.00  0.00    -0.270 OA
ATOM     17  C   UNL     1       9.853   1.725   6.437  0.00  0.00    +0.042 A 
ATOM     18  C   UNL     1      10.276   0.929   5.323  0.00  0.00    -0.009 A 
ATOM     19  C   UNL     1      11.603   0.704   5.035  0.00  0.00    +0.006 A 
ATOM     20  C   UNL     1      12.543   1.305   5.867  0.00  0.00    +0.000 A 
ATOM     21  C   UNL     1      12.169   2.096   6.934  0.00  0.00    +0.001 A 
ATOM     22  C   UNL     1      10.791   2.333   7.273  0.00  0.00    +0.013 A 
ENDROOT
BRANCH   1  24
ATOM     23  N   UNL     1       4.799   0.251   3.658  0.00  0.00    -0.302 N 
ATOM     24  C   UNL     1       6.030   0.663   4.020  0.00  0.00    +0.235 C 
ATOM     25  O   UNL     1       6.722   1.273   3.233  0.00  0.00    -0.274 OA
ATOM     26  H   UNL     1       4.219  -0.174   4.308  0.00  0.00    +0.150 HD
BRANCH  23  27
ATOM     27  C   UNL     1       4.338   0.446   2.281  0.00  0.00    +0.159 C 
BRANCH  27  29
ATOM     28  N   UNL     1       2.174   0.818   1.142  0.00  0.00    -0.311 N 
ATOM     29  C   UNL     1       2.832   0.413   2.247  0.00  0.00    +0.234 C 
ATOM     30  O   UNL     1       2.211   0.024   3.213  0.00  0.00    -0.274 OA
ATOM     31  H   UNL     1       2.667   1.173   0.387  0.00  0.00    +0.149 HD
BRANCH  28  32
ATOM     32  C   UNL     1       0.713   0.720   1.083  0.00  0.00    +0.070 C 
ATOM     33  C   UNL     1       0.315  -0.686   0.627  0.00  0.00    +0.028 C 
BRANCH  32  35
ATOM     34  C   UNL     1       0.463   3.160   0.607  0.00  0.00    +0.005 C 
ATOM     35  C   UNL     1       0.173   1.750   0.089  0.00  0.00    +0.018 C 
ENDBRANCH  32  35
ENDBRANCH  28  32
ENDBRANCH  27  29
BRANCH  27  36
ATOM     36  C   UNL     1       4.892  -0.671   1.395  0.00  0.00    +0.034 C 
BRANCH  36  37
ATOM     37  C   UNL     1       4.439  -0.448  -0.050  0.00  0.00    -0.015 C 
ATOM     38  C   UNL     1       5.087   0.826  -0.597  0.00  0.00    +0.007 C 
ATOM     39  C   UNL     1       4.861  -1.643  -0.907  0.00  0.00    +0.007 C 
ENDBRANCH  36  37
ENDBRANCH  27  36
ENDBRANCH  23  27
ENDBRANCH   1  24
TORSDOF 7
