REMARK  Name = ZINC66132305
REMARK  3 active torsions:
REMARK  status: ('A' for Active; 'I' for Inactive)
REMARK    1  A    between atoms: C_1  and  C_2
REMARK    2  A    between atoms: N_18  and  C_19
REMARK    3  A    between atoms: C_19  and  C_20
REMARK                            x       y       z     vdW  Elec       q    Type
REMARK                         _______ _______ _______ _____ _____    ______ ____
ROOT
ATOM      1  C   UNL     1       0.037   1.503  -0.013  0.00  0.00    +0.007 C 
ATOM      2  C   UNL     1       0.037  -0.034  -0.011  0.00  0.00    -0.010 C 
ATOM      3  C   UNL     1       0.711  -0.522  -1.293  0.00  0.00    +0.003 C 
ATOM      4  C   UNL     1       0.767  -2.051  -1.271  0.00  0.00    +0.004 C 
ATOM      5  C   UNL     1       1.651  -2.497  -0.112  0.00  0.00    +0.046 C 
ATOM      6  C   UNL     1       1.103  -2.008   1.229  0.00  0.00    +0.102 C 
ATOM      7  C   UNL     1       0.780  -0.526   1.220  0.00  0.00    +0.049 C 
ATOM      8  N   UNL     1       2.195  -2.204   2.220  0.00  0.00    -0.323 N 
ATOM      9  C   UNL     1       2.562  -3.507   2.525  0.00  0.00    +0.041 A 
ATOM     10  C   UNL     1       3.860  -3.848   2.860  0.00  0.00    +0.024 A 
ATOM     11  C   UNL     1       4.166  -5.162   3.158  0.00  0.00    +0.002 A 
ATOM     12  C   UNL     1       3.183  -6.140   3.124  0.00  0.00    +0.001 A 
ATOM     13  C   UNL     1       1.882  -5.816   2.794  0.00  0.00    +0.015 A 
ATOM     14  C   UNL     1       1.560  -4.496   2.491  0.00  0.00    +0.058 A 
ATOM     15  C   UNL     1       0.194  -4.088   2.127  0.00  0.00    +0.250 C 
ATOM     16  O   UNL     1      -0.734  -4.864   2.234  0.00  0.00    -0.270 OA
ATOM     17  N   UNL     1      -0.023  -2.842   1.639  0.00  0.00    -0.269 N 
ATOM     18  H   UNL     1       2.620  -1.440   2.628  0.00  0.00    +0.148 HD
ENDROOT
BRANCH  17  19
ATOM     19  C   UNL     1      -1.406  -2.373   1.569  0.00  0.00    +0.184 C 
BRANCH  19  20
ATOM     20  C   UNL     1      -1.820  -1.827   2.911  0.00  0.00    +0.122 A 
ATOM     21  C   UNL     1      -1.793  -0.533   3.277  0.00  0.00    +0.046 A 
ATOM     22  C   UNL     1      -2.264  -0.474   4.609  0.00  0.00    +0.041 A 
ATOM     23  C   UNL     1      -2.550  -1.735   4.978  0.00  0.00    +0.195 A 
ATOM     24  O   UNL     1      -2.285  -2.550   3.944  0.00  0.00    -0.466 OA
ENDBRANCH  19  20
ENDBRANCH  17  19
TORSDOF 2
