REMARK  Name = ZINC35453277
REMARK  4 active torsions:
REMARK  status: ('A' for Active; 'I' for Inactive)
REMARK    1  A    between atoms: C_1  and  C_2
REMARK    2  A    between atoms: C_7  and  N_10
REMARK    3  A    between atoms: N_10  and  C_11
REMARK    4  A    between atoms: C_16  and  N_17
REMARK                            x       y       z     vdW  Elec       q    Type
REMARK                         _______ _______ _______ _____ _____    ______ ____
ROOT
ATOM      1  C   UNL     1       1.196  -3.804   2.927  0.00  0.00    +0.050 A 
ATOM      2  C   UNL     1       0.257  -4.611   2.302  0.00  0.00    +0.051 A 
ATOM      3  C   UNL     1      -0.012  -5.874   2.805  0.00  0.00    +0.078 A 
ATOM      4  C   UNL     1       0.657  -6.333   3.938  0.00  0.00    +0.144 A 
ATOM      5  C   UNL     1       1.595  -5.529   4.563  0.00  0.00    +0.072 A 
ATOM      6  C   UNL     1       1.870  -4.266   4.056  0.00  0.00    +0.049 A 
ATOM      7  O   UNL     1       0.380  -7.575   4.421  0.00  0.00    -0.481 OA
ATOM      8  C   UNL     1      -0.963  -8.040   4.266  0.00  0.00    +0.325 C 
ATOM      9  C   UNL     1      -1.430  -7.777   2.857  0.00  0.00    +0.255 C 
ATOM     10  O   UNL     1      -2.226  -8.525   2.329  0.00  0.00    -0.272 OA
ATOM     11  N   UNL     1      -0.959  -6.705   2.184  0.00  0.00    -0.280 N 
ATOM     12  H   UNL     1      -1.270  -6.511   1.286  0.00  0.00    +0.155 HD
ENDROOT
BRANCH   6  13
ATOM     13  N   UNL     1       2.823  -3.452   4.685  0.00  0.00    -0.356 N 
ATOM     14  H   UNL     1       3.014  -2.568   4.334  0.00  0.00    +0.142 HD
ATOM     15  H   UNL     1       3.293  -3.773   5.471  0.00  0.00    +0.142 HD
ENDBRANCH   6  13
BRANCH   1  16
ATOM     16  N   UNL     1       1.471  -2.526   2.420  0.00  0.00    -0.340 N 
ATOM     17  H   UNL     1       2.131  -1.963   2.855  0.00  0.00    +0.146 HD
BRANCH  16  23
ATOM     18  C   UNL     1      -0.019   1.526   0.010  0.00  0.00    +0.007 C 
ATOM     19  C   UNL     1       0.002  -0.004   0.002  0.00  0.00    -0.012 C 
ATOM     20  C   UNL     1       0.718  -0.497  -1.257  0.00  0.00    +0.003 C 
ATOM     21  C   UNL     1       0.739  -2.027  -1.265  0.00  0.00    +0.002 C 
ATOM     22  C   UNL     1       1.479  -2.534  -0.026  0.00  0.00    +0.022 C 
ATOM     23  C   UNL     1       0.763  -2.041   1.233  0.00  0.00    +0.071 C 
ATOM     24  C   UNL     1       0.742  -0.511   1.242  0.00  0.00    +0.025 C 
ENDBRANCH  16  23
ENDBRANCH   1  16
TORSDOF 3
