REMARK  Name = ZINC63271603
REMARK  8 active torsions:
REMARK  status: ('A' for Active; 'I' for Inactive)
REMARK    1  A    between atoms: C_1  and  C_2
REMARK    2  A    between atoms: C_2  and  C_32
REMARK    3  A    between atoms: C_4  and  N_10
REMARK    4  A    between atoms: C_6  and  C_8
REMARK    5  A    between atoms: C_6  and  C_9
REMARK    6  A    between atoms: C_11  and  C_13
REMARK    7  A    between atoms: C_13  and  C_14
REMARK    8  A    between atoms: C_14  and  N_15
REMARK                            x       y       z     vdW  Elec       q    Type
REMARK                         _______ _______ _______ _____ _____    ______ ____
ROOT
ATOM      1  C   UNL     1       5.625  -0.155  -4.759  0.00  0.00    +0.115 C 
ENDROOT
BRANCH   1   2
ATOM      2  N   UNL     1       6.151  -0.671  -6.026  0.00  0.00    -0.299 N 
ATOM      3  C   UNL     1       7.304  -0.185  -6.525  0.00  0.00    +0.302 C 
ATOM      4  O   UNL     1       7.861   0.745  -5.974  0.00  0.00    -0.253 OA
ATOM      5  N   UNL     1       7.840  -0.729  -7.636  0.00  0.00    -0.283 N 
ATOM      6  C   UNL     1       7.105  -1.768  -8.362  0.00  0.00    +0.114 C 
ATOM      7  C   UNL     1       7.968  -3.041  -8.450  0.00  0.00    +0.052 C 
ATOM      8  C   UNL     1       9.352  -2.597  -8.852  0.00  0.00    -0.036 C 
ATOM      9  C   UNL     1      10.155  -3.001  -9.829  0.00  0.00    -0.001 A 
ATOM     10  C   UNL     1      10.036  -4.097 -10.804  0.00  0.00    +0.010 A 
ATOM     11  C   UNL     1      11.054  -4.219 -11.697  0.00  0.00    +0.001 A 
ATOM     12  C   UNL     1      12.165  -3.370 -11.716  0.00  0.00    +0.002 A 
ATOM     13  C   UNL     1      12.360  -2.342 -10.852  0.00  0.00    +0.026 A 
ATOM     14  C   UNL     1      11.361  -2.119  -9.861  0.00  0.00    +0.043 A 
ATOM     15  N   UNL     1      11.303  -1.236  -8.909  0.00  0.00    -0.376 N 
ATOM     16  C   UNL     1      10.095  -1.484  -8.121  0.00  0.00    +0.124 C 
ATOM     17  C   UNL     1       9.155  -0.268  -8.110  0.00  0.00    +0.138 C 
ATOM     18  H   UNL     1       5.669  -1.364  -6.505  0.00  0.00    +0.150 HD
ATOM     19  H   UNL     1      11.951  -0.532  -8.747  0.00  0.00    +0.160 HD
ENDBRANCH   1   2
BRANCH   1  20
ATOM     20  C   UNL     1       4.316  -0.871  -4.421  0.00  0.00    +0.114 C 
BRANCH  20  22
ATOM     21  N   UNL     1       2.622  -0.827  -2.619  0.00  0.00    -0.313 N 
ATOM     22  C   UNL     1       3.776  -0.340  -3.118  0.00  0.00    +0.215 C 
ATOM     23  O   UNL     1       4.378   0.526  -2.519  0.00  0.00    -0.276 OA
ATOM     24  H   UNL     1       2.140  -1.519  -3.098  0.00  0.00    +0.149 HD
BRANCH  21  28
ATOM     25  C   UNL     1      -0.013   1.516   0.020  0.00  0.00    -0.010 C 
ATOM     26  C   UNL     1       0.011  -0.016   0.012  0.00  0.00    -0.072 C 
ATOM     27  C   UNL     1       0.582  -0.516  -1.311  0.00  0.00    +0.009 C 
ATOM     28  C   UNL     1       2.096  -0.309  -1.350  0.00  0.00    +0.070 C 
ATOM     29  C   UNL     1       2.714  -1.092  -0.191  0.00  0.00    +0.009 C 
ATOM     30  C   UNL     1       2.159  -0.597   1.141  0.00  0.00    -0.072 C 
ATOM     31  N   UNL     1       0.709  -0.539   1.174  0.00  0.00    +0.386 N 
ATOM     32  C   UNL     1       2.779   0.760   1.487  0.00  0.00    -0.010 C 
ATOM     33  C   UNL     1       2.615  -1.595   2.230  0.00  0.00    -0.010 C 
ATOM     34  C   UNL     1      -1.458  -0.493   0.091  0.00  0.00    -0.010 C 
ATOM     35  H   UNL     1       0.428   0.011   1.992  0.00  0.00    -0.084 HD
ATOM     36  H   UNL     1       0.355  -1.483   1.361  0.00  0.00    -0.084 HD
ENDBRANCH  21  28
ENDBRANCH  20  22
ENDBRANCH   1  20
TORSDOF 4
