REMARK  Name = ZINC09805463
REMARK  12 active torsions:
REMARK  status: ('A' for Active; 'I' for Inactive)
REMARK    1  A    between atoms: C_1  and  C_2
REMARK    2  A    between atoms: C_3  and  C_9
REMARK    3  A    between atoms: C_4  and  O_8
REMARK    4  A    between atoms: C_9  and  C_10
REMARK    5  A    between atoms: C_9  and  C_28
REMARK    6  A    between atoms: C_12  and  O_26
REMARK    7  A    between atoms: C_13  and  O_17
REMARK    8  A    between atoms: O_17  and  C_18
REMARK    9  A    between atoms: C_18  and  C_19
REMARK   10  A    between atoms: O_26  and  C_27
REMARK   11  A    between atoms: C_29  and  C_35
REMARK   12  A    between atoms: C_33  and  O_34
REMARK                            x       y       z     vdW  Elec       q    Type
REMARK                         _______ _______ _______ _____ _____    ______ ____
ROOT
ATOM      1  C   UNL     1      -0.015  -0.336  -2.544  0.00  0.00    +0.093 C 
ENDROOT
BRANCH   1   4
ATOM      2  C   UNL     1      -1.000   1.852  -0.474  0.00  0.00    +0.068 C 
ATOM      3  C   UNL     1      -0.759   0.395  -0.173  0.00  0.00    +0.068 A 
ATOM      4  C   UNL     1      -0.324  -0.569  -1.088  0.00  0.00    +0.048 A 
ATOM      5  C   UNL     1      -0.230  -1.755  -0.429  0.00  0.00    +0.213 A 
ATOM      6  N   UNL     1      -0.594  -1.540   0.854  0.00  0.00    -0.247 N 
ATOM      7  H   UNL     1      -0.624  -2.207   1.558  0.00  0.00    +0.192 HD
ATOM      8  N   UNL     1      -0.916  -0.184   0.990  0.00  0.00    -0.176 NA
BRANCH   5   9
ATOM      9  O   UNL     1       0.159  -2.941  -0.965  0.00  0.00    -0.492 OA
ATOM     10  H   UNL     1       1.098  -3.137  -0.844  0.00  0.00    +0.294 HD
ENDBRANCH   5   9
ENDBRANCH   1   4
BRANCH   1  11
ATOM     11  C   UNL     1      -1.027  -1.060  -3.395  0.00  0.00    -0.030 A 
ATOM     12  C   UNL     1      -1.947  -0.340  -4.135  0.00  0.00    +0.054 A 
ATOM     13  C   UNL     1      -2.878  -1.003  -4.917  0.00  0.00    +0.163 A 
ATOM     14  C   UNL     1      -2.885  -2.394  -4.957  0.00  0.00    +0.181 A 
ATOM     15  C   UNL     1      -1.960  -3.110  -4.213  0.00  0.00    +0.086 A 
ATOM     16  C   UNL     1      -1.030  -2.441  -3.438  0.00  0.00    +0.028 A 
ATOM     17 CL   UNL     1      -1.966  -4.845  -4.258  0.00  0.00    -0.080 Cl
BRANCH  13  18
ATOM     18  O   UNL     1      -3.784  -0.296  -5.645  0.00  0.00    -0.491 OA
ATOM     19  C   UNL     1      -3.718   1.128  -5.555  0.00  0.00    +0.277 C 
ENDBRANCH  13  18
BRANCH  14  20
ATOM     20  O   UNL     1      -3.798  -3.050  -5.723  0.00  0.00    -0.482 OA
BRANCH  20  21
ATOM     21  C   UNL     1      -3.425  -3.338  -7.072  0.00  0.00    +0.264 C 
BRANCH  21  22
ATOM     22  C   UNL     1      -4.553  -4.062  -7.761  0.00  0.00    -0.010 A 
ATOM     23  C   UNL     1      -4.615  -5.443  -7.721  0.00  0.00    +0.008 A 
ATOM     24  C   UNL     1      -5.649  -6.107  -8.352  0.00  0.00    +0.020 A 
ATOM     25  C   UNL     1      -6.622  -5.390  -9.025  0.00  0.00    +0.041 A 
ATOM     26  C   UNL     1      -6.560  -4.009  -9.065  0.00  0.00    +0.020 A 
ATOM     27  C   UNL     1      -5.528  -3.345  -8.428  0.00  0.00    +0.008 A 
ATOM     28 CL   UNL     1      -7.921  -6.224  -9.820  0.00  0.00    -0.084 Cl
ENDBRANCH  21  22
ENDBRANCH  20  21
ENDBRANCH  14  20
ENDBRANCH   1  11
BRANCH   1  29
ATOM     29  C   UNL     1       1.365  -0.855  -2.854  0.00  0.00    +0.048 A 
ATOM     30  C   UNL     1       2.437  -0.810  -2.030  0.00  0.00    +0.041 A 
ATOM     31  N   UNL     1       3.478  -1.375  -2.675  0.00  0.00    -0.278 N 
ATOM     32  N   UNL     1       3.035  -1.783  -3.940  0.00  0.00    -0.136 NA
ATOM     33  H   UNL     1       4.377  -1.481  -2.324  0.00  0.00    +0.189 HD
ATOM     34  C   UNL     1       1.765  -1.476  -4.047  0.00  0.00    +0.236 A 
ATOM     35  C   UNL     1       2.463  -0.231  -0.638  0.00  0.00    +0.065 C 
BRANCH  34  36
ATOM     36  O   UNL     1       0.974  -1.715  -5.127  0.00  0.00    -0.491 OA
ATOM     37  H   UNL     1       1.025  -1.033  -5.810  0.00  0.00    +0.294 HD
ENDBRANCH  34  36
ENDBRANCH   1  29
TORSDOF 9
