REMARK  Name = ZINC14459086
REMARK  8 active torsions:
REMARK  status: ('A' for Active; 'I' for Inactive)
REMARK    1  A    between atoms: C_1  and  N_2
REMARK    2  A    between atoms: N_2  and  C_3
REMARK    3  A    between atoms: N_2  and  S_4
REMARK    4  A    between atoms: S_4  and  C_7
REMARK    5  A    between atoms: C_20  and  C_23
REMARK    6  A    between atoms: C_26  and  O_31
REMARK    7  A    between atoms: C_27  and  O_29
REMARK    8  A    between atoms: O_29  and  C_30
REMARK                            x       y       z     vdW  Elec       q    Type
REMARK                         _______ _______ _______ _____ _____    ______ ____
ROOT
ATOM      1  C   UNL     1       1.200  -0.689  -0.012  0.00  0.00    +0.106 A 
ATOM      2  C   UNL     1       2.398   0.001  -0.021  0.00  0.00    +0.030 A 
ATOM      3  C   UNL     1       2.393   1.382  -0.013  0.00  0.00    +0.025 A 
ATOM      4  C   UNL     1       1.187   2.072   0.002  0.00  0.00    +0.031 A 
ATOM      5  C   UNL     1      -0.017   1.384   0.010  0.00  0.00    -0.018 A 
ATOM      6  C   UNL     1       0.002  -0.004   0.002  0.00  0.00    +0.034 A 
ATOM      7  C   UNL     1      -1.338   2.084   0.032  0.00  0.00    +0.049 C 
ATOM      8  C   UNL     1      -2.008   2.036  -1.324  0.00  0.00    -0.023 C 
ATOM      9  C   UNL     1      -2.652   3.155  -1.551  0.00  0.00    -0.030 C 
ATOM     10  C   UNL     1      -2.502   4.102  -0.376  0.00  0.00    +0.033 C 
ATOM     11  C   UNL     1      -1.217   3.590   0.338  0.00  0.00    +0.029 C 
ATOM     12  C   UNL     1      -0.017   4.179  -0.409  0.00  0.00    +0.105 C 
ATOM     13  N   UNL     1       1.198   3.471   0.008  0.00  0.00    -0.336 N 
ATOM     14  H   UNL     1       1.990   3.960   0.281  0.00  0.00    +0.147 HD
ENDROOT
BRANCH  12  15
ATOM     15  C   UNL     1      -0.214   4.013  -1.893  0.00  0.00    -0.023 A 
ATOM     16  C   UNL     1       0.050   2.795  -2.492  0.00  0.00    +0.009 A 
ATOM     17  C   UNL     1      -0.135   2.635  -3.852  0.00  0.00    +0.049 A 
ATOM     18  C   UNL     1      -0.576   3.700  -4.621  0.00  0.00    +0.158 A 
ATOM     19  C   UNL     1      -0.836   4.928  -4.020  0.00  0.00    +0.162 A 
ATOM     20  C   UNL     1      -0.654   5.080  -2.655  0.00  0.00    +0.054 A 
BRANCH  19  21
ATOM     21  O   UNL     1      -1.269   5.976  -4.770  0.00  0.00    -0.491 OA
ATOM     22  C   UNL     1      -1.516   7.206  -4.085  0.00  0.00    +0.277 C 
ENDBRANCH  19  21
BRANCH  18  23
ATOM     23  O   UNL     1      -0.753   3.546  -5.961  0.00  0.00    -0.503 OA
ATOM     24  H   UNL     1       0.033   3.748  -6.487  0.00  0.00    +0.292 HD
ENDBRANCH  18  23
ENDBRANCH  12  15
BRANCH   1  25
ATOM     25  S   UNL     1       1.203  -2.451  -0.021  0.00  0.00    +0.060 S 
ATOM     26  O   UNL     1       2.454  -2.858   0.516  0.00  0.00    -0.153 OA
ATOM     27  O   UNL     1      -0.037  -2.862   0.539  0.00  0.00    -0.153 OA
BRANCH  25  29
ATOM     28  C   UNL     1       2.451  -3.144  -2.318  0.00  0.00    +0.131 C 
ATOM     29  N   UNL     1       1.189  -2.933  -1.605  0.00  0.00    -0.183 NA
ATOM     30  C   UNL     1      -0.086  -3.148  -2.295  0.00  0.00    +0.131 C 
ENDBRANCH  25  29
ENDBRANCH   1  25
TORSDOF 5
