REMARK  Name = ZINC39127700
REMARK  6 active torsions:
REMARK  status: ('A' for Active; 'I' for Inactive)
REMARK    1  A    between atoms: C_1  and  C_2
REMARK    2  A    between atoms: C_3  and  C_16
REMARK    3  A    between atoms: C_4  and  O_15
REMARK    4  A    between atoms: C_5  and  C_14
REMARK    5  A    between atoms: N_11  and  C_12
REMARK    6  A    between atoms: N_11  and  C_13
REMARK                            x       y       z     vdW  Elec       q    Type
REMARK                         _______ _______ _______ _____ _____    ______ ____
ROOT
ATOM      1  C   UNL     1       0.439   1.472  -0.054  0.00  0.00    +0.046 C 
ATOM      2  C   UNL     1       0.222  -0.019  -0.029  0.00  0.00    -0.018 A 
ATOM      3  C   UNL     1      -0.098  -0.676  -1.189  0.00  0.00    -0.004 A 
ATOM      4  C   UNL     1      -0.307  -2.051  -1.209  0.00  0.00    +0.124 A 
ATOM      5  C   UNL     1      -0.187  -2.772  -0.029  0.00  0.00    +0.007 A 
ATOM      6  C   UNL     1       0.134  -2.117   1.133  0.00  0.00    +0.047 A 
ATOM      7  C   UNL     1       0.357  -0.723   1.189  0.00  0.00    +0.084 A 
ATOM      8  N   UNL     1       0.670  -0.228   2.408  0.00  0.00    -0.224 NA
ATOM      9  C   UNL     1       0.766  -0.989   3.474  0.00  0.00    +0.161 A 
ATOM     10  S   UNL     1       0.386  -2.609   2.822  0.00  0.00    -0.052 S 
ATOM     11  N   UNL     1       1.075  -0.627   4.770  0.00  0.00    -0.316 N 
ATOM     12  C   UNL     1       1.348   0.775   5.095  0.00  0.00    +0.131 C 
ATOM     13  C   UNL     1       1.130  -1.647   5.821  0.00  0.00    +0.131 C 
ATOM     14  C   UNL     1      -0.408  -4.262  -0.025  0.00  0.00    +0.049 C 
ATOM     15  C   UNL     1      -0.228   0.108  -2.469  0.00  0.00    +0.048 C 
ENDROOT
BRANCH   4  16
ATOM     16  O   UNL     1      -0.624  -2.682  -2.371  0.00  0.00    -0.506 OA
ATOM     17  H   UNL     1       0.142  -2.992  -2.873  0.00  0.00    +0.292 HD
ENDBRANCH   4  16
TORSDOF 1
