REMARK  Name = ZINC56810474
REMARK  10 active torsions:
REMARK  status: ('A' for Active; 'I' for Inactive)
REMARK    1  A    between atoms: C_1  and  C_2
REMARK    2  A    between atoms: C_2  and  C_3
REMARK    3  A    between atoms: C_2  and  C_4
REMARK    4  A    between atoms: C_4  and  C_6
REMARK    5  A    between atoms: C_4  and  N_16
REMARK    6  A    between atoms: C_22  and  C_25
REMARK    7  A    between atoms: C_25  and  C_26
REMARK    8  A    between atoms: C_26  and  N_27
REMARK    9  A    between atoms: N_27  and  C_28
REMARK   10  A    between atoms: N_27  and  C_29
REMARK                            x       y       z     vdW  Elec       q    Type
REMARK                         _______ _______ _______ _____ _____    ______ ____
ROOT
ATOM      1  N   UNL     1      -2.138  -0.046  -1.175  0.00  0.00    -0.292 N 
ATOM      2  C   UNL     1      -2.727   1.166  -1.160  0.00  0.00    +0.303 C 
ATOM      3  O   UNL     1      -2.749   1.818  -0.134  0.00  0.00    -0.253 OA
ATOM      4  N   UNL     1      -3.291   1.655  -2.282  0.00  0.00    -0.286 N 
ATOM      5  C   UNL     1      -3.379   0.831  -3.496  0.00  0.00    +0.109 C 
ATOM      6  C   UNL     1      -4.837   0.802  -3.967  0.00  0.00    +0.022 C 
ATOM      7  C   UNL     1      -5.341   2.236  -4.142  0.00  0.00    -0.010 C 
ATOM      8  C   UNL     1      -5.282   2.967  -2.799  0.00  0.00    +0.022 C 
ATOM      9  C   UNL     1      -3.836   3.019  -2.313  0.00  0.00    +0.109 C 
ATOM     10  H   UNL     1      -2.186  -0.599  -1.971  0.00  0.00    +0.151 HD
ENDROOT
BRANCH   1  11
ATOM     11  C   UNL     1      -1.425  -0.529   0.010  0.00  0.00    +0.107 C 
BRANCH  11  12
ATOM     12  C   UNL     1      -1.399  -2.036   0.002  0.00  0.00    -0.023 A 
ATOM     13  C   UNL     1      -1.189  -2.716  -1.183  0.00  0.00    +0.009 A 
ATOM     14  C   UNL     1      -1.166  -4.098  -1.194  0.00  0.00    +0.050 A 
ATOM     15  C   UNL     1      -1.355  -4.806  -0.016  0.00  0.00    +0.162 A 
ATOM     16  C   UNL     1      -1.564  -4.122   1.175  0.00  0.00    +0.162 A 
ATOM     17  C   UNL     1      -1.581  -2.735   1.180  0.00  0.00    +0.055 A 
ATOM     18  O   UNL     1      -1.743  -4.796   2.344  0.00  0.00    -0.485 OA
ATOM     19  C   UNL     1      -2.085  -6.183   2.240  0.00  0.00    +0.270 C 
ATOM     20  C   UNL     1      -1.151  -6.833   1.210  0.00  0.00    +0.270 C 
ATOM     21  O   UNL     1      -1.334  -6.167  -0.044  0.00  0.00    -0.485 OA
ENDBRANCH  11  12
BRANCH  11  23
ATOM     22  C   UNL     1      -0.017   1.535   0.003  0.00  0.00    +0.009 C 
ATOM     23  C   UNL     1       0.009   0.005  -0.005  0.00  0.00    +0.008 C 
ATOM     24  C   UNL     1       0.754  -0.499   1.233  0.00  0.00    +0.009 C 
ENDBRANCH  11  23
ENDBRANCH   1  11
BRANCH   7  25
ATOM     25  C   UNL     1      -6.786   2.210  -4.646  0.00  0.00    -0.015 C 
BRANCH  25  26
ATOM     26  C   UNL     1      -7.249   3.639  -4.940  0.00  0.00    -0.079 C 
BRANCH  26  27
ATOM     27  N   UNL     1      -8.636   3.614  -5.424  0.00  0.00    +0.376 N 
ATOM     28  C   UNL     1      -9.120   4.990  -5.592  0.00  0.00    -0.097 C 
ATOM     29  C   UNL     1      -8.692   2.913  -6.714  0.00  0.00    -0.097 C 
ATOM     30  H   UNL     1      -9.217   3.132  -4.754  0.00  0.00    -0.083 HD
ENDBRANCH  26  27
ENDBRANCH  25  26
ENDBRANCH   7  25
TORSDOF 6
