REMARK  Name = ZINC43553899
REMARK  13 active torsions:
REMARK  status: ('A' for Active; 'I' for Inactive)
REMARK    1  A    between atoms: C_1  and  C_2
REMARK    2  A    between atoms: C_2  and  C_3
REMARK    3  A    between atoms: C_3  and  N_4
REMARK    4  A    between atoms: C_5  and  O_7
REMARK    5  A    between atoms: O_7  and  C_8
REMARK    6  A    between atoms: C_12  and  C_36
REMARK    7  A    between atoms: C_15  and  C_16
REMARK    8  A    between atoms: C_15  and  C_17
REMARK    9  A    between atoms: C_17  and  O_18
REMARK   10  A    between atoms: C_21  and  O_35
REMARK   11  A    between atoms: C_23  and  C_25
REMARK   12  A    between atoms: C_25  and  C_26
REMARK   13  A    between atoms: C_31  and  C_34
REMARK                            x       y       z     vdW  Elec       q    Type
REMARK                         _______ _______ _______ _____ _____    ______ ____
ROOT
ATOM      1  C   UNL     1       3.015  -4.364   2.951  0.00  0.00    +0.186 C 
ATOM      2  C   UNL     1       4.381  -4.917   2.563  0.00  0.00    +0.046 C 
ATOM      3  C   UNL     1       4.219  -5.953   1.449  0.00  0.00    +0.011 C 
ATOM      4  C   UNL     1       3.381  -7.125   1.962  0.00  0.00    -0.023 C 
ATOM      5  C   UNL     1       2.024  -6.634   2.437  0.00  0.00    +0.007 C 
ATOM      6  C   UNL     1       2.054  -5.463   3.399  0.00  0.00    +0.031 C 
ATOM      7  C   UNL     1       2.377  -5.884   4.832  0.00  0.00    +0.017 C 
ATOM      8  C   UNL     1       1.205  -7.804   2.983  0.00  0.00    +0.007 C 
ATOM      9  C   UNL     1       0.974  -8.805   1.844  0.00  0.00    +0.032 C 
ATOM     10  C   UNL     1       2.309  -9.311   1.308  0.00  0.00    +0.119 C 
ATOM     11  C   UNL     1       3.202  -8.162   0.847  0.00  0.00    +0.032 C 
ATOM     12  C   UNL     1       4.164  -7.815   3.091  0.00  0.00    +0.012 C 
ENDROOT
BRANCH  10  13
ATOM     13  O   UNL     1       2.063 -10.182   0.194  0.00  0.00    -0.391 OA
ATOM     14  H   UNL     1       1.525 -10.955   0.410  0.00  0.00    +0.210 HD
ENDBRANCH  10  13
BRANCH   1  15
ATOM     15  O   UNL     1       2.448  -3.664   1.838  0.00  0.00    -0.446 OA
BRANCH  15  17
ATOM     16  N   UNL     1       2.245  -1.640   0.695  0.00  0.00    -0.281 N 
ATOM     17  C   UNL     1       2.747  -2.357   1.721  0.00  0.00    +0.401 C 
ATOM     18  O   UNL     1       3.469  -1.823   2.539  0.00  0.00    -0.226 OA
ATOM     19  H   UNL     1       1.669  -2.066   0.042  0.00  0.00    +0.152 HD
BRANCH  16  20
ATOM     20  C   UNL     1       2.571  -0.217   0.568  0.00  0.00    +0.107 C 
BRANCH  20  22
ATOM     21  C   UNL     1       2.219   1.841  -0.804  0.00  0.00    +0.005 C 
ATOM     22  C   UNL     1       1.879   0.355  -0.671  0.00  0.00    +0.015 C 
ENDBRANCH  20  22
ENDBRANCH  16  20
ENDBRANCH  15  17
ENDBRANCH   1  15
BRANCH   6  23
ATOM     23  C   UNL     1       0.641  -4.828   3.420  0.00  0.00    +0.166 C 
BRANCH  23  24
ATOM     24  O   UNL     1       0.625  -3.731   4.335  0.00  0.00    -0.394 OA
ATOM     25  H   UNL     1      -0.230  -3.285   4.400  0.00  0.00    +0.209 HD
ENDBRANCH  23  24
ENDBRANCH   6  23
BRANCH  11  26
ATOM     26  C   UNL     1       2.631  -7.534  -0.421  0.00  0.00    +0.102 C 
BRANCH  26  27
ATOM     27  C   UNL     1       2.805  -8.487  -1.575  0.00  0.00    +0.216 C 
ATOM     28  O   UNL     1       3.469  -9.493  -1.437  0.00  0.00    -0.276 OA
ATOM     29  N   UNL     1       2.224  -8.222  -2.762  0.00  0.00    -0.301 N 
ATOM     30  C   UNL     1       1.422  -7.004  -2.947  0.00  0.00    +0.108 C 
ATOM     31  C   UNL     1       1.956  -6.243  -4.165  0.00  0.00    +0.022 C 
ATOM     32  C   UNL     1       1.972  -7.176  -5.378  0.00  0.00    -0.011 C 
ATOM     33  C   UNL     1       2.903  -8.359  -5.102  0.00  0.00    +0.022 C 
ATOM     34  C   UNL     1       2.385  -9.141  -3.897  0.00  0.00    +0.108 C 
ATOM     35  C   UNL     1       2.472  -6.409  -6.604  0.00  0.00    +0.007 C 
ENDBRANCH  26  27
ENDBRANCH  11  26
TORSDOF 9
