REMARK  Name = ZINC08961951
REMARK  8 active torsions:
REMARK  status: ('A' for Active; 'I' for Inactive)
REMARK    1  A    between atoms: C_1  and  C_2
REMARK    2  A    between atoms: C_4  and  O_27
REMARK    3  A    between atoms: C_5  and  S_9
REMARK    4  A    between atoms: C_7  and  C_8
REMARK    5  A    between atoms: S_9  and  N_12
REMARK    6  A    between atoms: N_12  and  C_13
REMARK    7  A    between atoms: C_23  and  C_26
REMARK    8  A    between atoms: O_27  and  C_28
REMARK                            x       y       z     vdW  Elec       q    Type
REMARK                         _______ _______ _______ _____ _____    ______ ____
ROOT
ATOM      1  N   UNL     1      -1.648   3.053   1.460  0.00  0.00    -0.216 N 
ATOM      2  H   UNL     1      -2.329   2.815   2.109  0.00  0.00    +0.174 HD
ENDROOT
BRANCH   1   3
ATOM      3  C   UNL     1      -0.744   4.084   1.740  0.00  0.00    +0.049 A 
ATOM      4  C   UNL     1      -0.456   5.037   0.769  0.00  0.00    +0.028 A 
ATOM      5  C   UNL     1       0.431   6.061   1.034  0.00  0.00    +0.048 A 
ATOM      6  C   UNL     1       1.043   6.144   2.274  0.00  0.00    +0.133 A 
ATOM      7  C   UNL     1       0.760   5.183   3.257  0.00  0.00    +0.080 A 
ATOM      8  C   UNL     1      -0.143   4.157   2.987  0.00  0.00    +0.041 A 
ATOM      9  C   UNL     1       1.427   5.285   4.569  0.00  0.00    +0.248 C 
ATOM     10  O   UNL     1       1.952   4.311   5.073  0.00  0.00    -0.270 OA
ATOM     11  N   UNL     1       1.444   6.482   5.202  0.00  0.00    -0.308 N 
ATOM     12  C   UNL     1       0.714   7.613   4.627  0.00  0.00    +0.148 C 
ATOM     13  C   UNL     1       1.454   8.179   3.423  0.00  0.00    +0.187 C 
ATOM     14  O   UNL     1       1.912   7.147   2.558  0.00  0.00    -0.487 OA
ATOM     15  C   UNL     1       0.512   9.101   2.646  0.00  0.00    +0.053 C 
ATOM     16  H   UNL     1       1.938   6.590   6.030  0.00  0.00    +0.149 HD
ENDBRANCH   1   3
BRANCH   1  17
ATOM     17  S   UNL     1      -1.554   2.238   0.022  0.00  0.00    +0.076 S 
ATOM     18  O   UNL     1      -1.475   3.224  -0.999  0.00  0.00    -0.150 OA
ATOM     19  O   UNL     1      -2.573   1.248   0.048  0.00  0.00    -0.150 OA
BRANCH  17  24
ATOM     20  C   UNL     1       3.711  -0.717  -0.037  0.00  0.00    +0.044 C 
ATOM     21  C   UNL     1       2.398   0.024  -0.021  0.00  0.00    -0.044 A 
ATOM     22  C   UNL     1       2.385   1.405  -0.013  0.00  0.00    +0.051 A 
ATOM     23  C   UNL     1       1.176   2.086   0.002  0.00  0.00    +0.147 A 
ATOM     24  C   UNL     1      -0.017   1.377   0.010  0.00  0.00    +0.150 A 
ATOM     25  C   UNL     1       0.002  -0.004   0.002  0.00  0.00    +0.036 A 
ATOM     26  C   UNL     1       1.208  -0.680  -0.013  0.00  0.00    -0.045 A 
ATOM     27  C   UNL     1       1.226  -2.187  -0.021  0.00  0.00    +0.044 C 
BRANCH  23  28
ATOM     28  O   UNL     1       1.160   3.445   0.010  0.00  0.00    -0.493 OA
ATOM     29  C   UNL     1       2.426   4.108   0.001  0.00  0.00    +0.277 C 
ENDBRANCH  23  28
ENDBRANCH  17  24
ENDBRANCH   1  17
TORSDOF 4
