REMARK  Name = ZINC42346047
REMARK  11 active torsions:
REMARK  status: ('A' for Active; 'I' for Inactive)
REMARK    1  A    between atoms: C_1  and  C_2
REMARK    2  A    between atoms: C_2  and  N_3
REMARK    3  A    between atoms: N_3  and  C_4
REMARK    4  A    between atoms: N_3  and  C_6
REMARK    5  A    between atoms: C_4  and  C_5
REMARK    6  A    between atoms: C_6  and  C_8
REMARK    7  A    between atoms: C_6  and  C_24
REMARK    8  A    between atoms: C_8  and  N_9
REMARK    9  A    between atoms: N_12  and  N_13
REMARK   10  A    between atoms: C_14  and  C_16
REMARK   11  A    between atoms: C_16  and  C_17
REMARK                            x       y       z     vdW  Elec       q    Type
REMARK                         _______ _______ _______ _____ _____    ______ ____
ROOT
ATOM      1  N   UNL     1       1.131  -1.893  -1.044  0.00  0.00    -0.299 N 
ATOM      2  C   UNL     1       1.675  -2.341  -2.193  0.00  0.00    +0.316 C 
ATOM      3  O   UNL     1       2.668  -3.043  -2.162  0.00  0.00    -0.251 OA
ATOM      4  N   UNL     1       1.119  -2.013  -3.375  0.00  0.00    -0.218 N 
ATOM      5  H   UNL     1       0.339  -1.333  -1.069  0.00  0.00    +0.150 HD
ATOM      6  H   UNL     1       1.510  -2.336  -4.202  0.00  0.00    +0.174 HD
ENDROOT
BRANCH   4   7
ATOM      7  N   UNL     1      -0.025  -1.205  -3.411  0.00  0.00    -0.233 N 
ATOM      8  C   UNL     1      -0.582  -0.876  -4.594  0.00  0.00    +0.233 C 
ATOM      9  O   UNL     1      -0.092  -1.280  -5.627  0.00  0.00    -0.274 OA
ATOM     10  H   UNL     1      -0.417  -0.882  -2.584  0.00  0.00    +0.173 HD
BRANCH   8  11
ATOM     11  C   UNL     1      -1.812  -0.007  -4.632  0.00  0.00    +0.132 C 
BRANCH  11  12
ATOM     12  C   UNL     1      -2.230   0.210  -6.064  0.00  0.00    -0.038 A 
ATOM     13  C   UNL     1      -1.725   1.282  -6.775  0.00  0.00    +0.007 A 
ATOM     14  C   UNL     1      -2.107   1.482  -8.088  0.00  0.00    +0.038 A 
ATOM     15  C   UNL     1      -2.995   0.607  -8.691  0.00  0.00    +0.123 A 
ATOM     16  C   UNL     1      -3.500  -0.467  -7.977  0.00  0.00    +0.038 A 
ATOM     17  C   UNL     1      -3.112  -0.667  -6.666  0.00  0.00    +0.007 A 
ATOM     18  F   UNL     1      -3.370   0.801  -9.975  0.00  0.00    -0.205 F 
ENDBRANCH  11  12
ENDBRANCH   8  11
ENDBRANCH   4   7
BRANCH   1  19
ATOM     19  C   UNL     1       1.736  -2.250   0.242  0.00  0.00    +0.095 C 
BRANCH  19  20
ATOM     20  C   UNL     1       0.991  -1.537   1.371  0.00  0.00    -0.020 C 
BRANCH  20  21
ATOM     21  C   UNL     1       1.463  -2.070   2.700  0.00  0.00    -0.052 A 
ATOM     22  C   UNL     1       0.719  -3.015   3.380  0.00  0.00    +0.009 A 
ATOM     23  C   UNL     1       1.172  -3.474   4.573  0.00  0.00    +0.045 A 
ATOM     24  S   UNL     1       2.694  -2.560   4.766  0.00  0.00    -0.105 S 
ATOM     25  C   UNL     1       2.626  -1.633   3.242  0.00  0.00    +0.047 A 
ENDBRANCH  20  21
BRANCH  20  26
ATOM     26  N   UNL     1       1.258  -0.094   1.300  0.00  0.00    +0.385 N 
ATOM     27  H   UNL     1       2.253   0.061   1.244  0.00  0.00    -0.081 HD
BRANCH  26  29
ATOM     28  C   UNL     1      -0.910   0.327   0.242  0.00  0.00    -0.017 C 
ATOM     29  C   UNL     1       0.607   0.466   0.108  0.00  0.00    -0.081 C 
ENDBRANCH  26  29
BRANCH  26  30
ATOM     30  C   UNL     1       0.726   0.563   2.502  0.00  0.00    -0.081 C 
ATOM     31  C   UNL     1       1.130   2.038   2.498  0.00  0.00    -0.017 C 
ENDBRANCH  26  30
ENDBRANCH  20  26
ENDBRANCH  19  20
ENDBRANCH   1  19
TORSDOF 9
