REMARK  Name = ZINC35375179
REMARK  11 active torsions:
REMARK  status: ('A' for Active; 'I' for Inactive)
REMARK    1  A    between atoms: C_1  and  C_2
REMARK    2  A    between atoms: C_2  and  C_3
REMARK    3  A    between atoms: C_3  and  C_5
REMARK    4  A    between atoms: C_3  and  N_6
REMARK    5  A    between atoms: C_7  and  C_9
REMARK    6  A    between atoms: N_17  and  S_20
REMARK    7  A    between atoms: S_20  and  C_23
REMARK    8  A    between atoms: C_26  and  C_29
REMARK    9  A    between atoms: C_29  and  C_30
REMARK   10  A    between atoms: C_29  and  C_31
REMARK   11  A    between atoms: C_29  and  C_32
REMARK                            x       y       z     vdW  Elec       q    Type
REMARK                         _______ _______ _______ _____ _____    ______ ____
ROOT
ATOM      1  C   UNL     1       4.271   0.470  -2.304  0.00  0.00    +0.028 C 
ATOM      2  C   UNL     1       5.082  -0.584  -1.493  0.00  0.00    +0.061 C 
ATOM      3  S   UNL     1       6.765  -0.208  -2.162  0.00  0.00    -0.174 S 
ATOM      4  C   UNL     1       6.229   0.338  -3.833  0.00  0.00    -0.016 C 
ATOM      5  N   UNL     1       4.788   0.582  -3.672  0.00  0.00    +0.397 N 
ATOM      6  C   UNL     1       6.488  -0.774  -4.840  0.00  0.00    +0.015 C 
ATOM      7  C   UNL     1       6.024  -0.324  -6.230  0.00  0.00    +0.109 C 
ATOM      8  N   UNL     1       6.657   0.965  -6.544  0.00  0.00    -0.177 NA
ATOM      9  C   UNL     1       6.503   2.079  -5.599  0.00  0.00    +0.109 C 
ATOM     10  C   UNL     1       6.965   1.615  -4.213  0.00  0.00    +0.015 C 
ATOM     11  H   UNL     1       4.289  -0.077  -4.252  0.00  0.00    -0.083 HD
ATOM     12  H   UNL     1       4.587   1.511  -4.010  0.00  0.00    -0.083 HD
ENDROOT
BRANCH   1  14
ATOM     13  N   UNL     1       2.125  -0.091  -1.209  0.00  0.00    -0.314 N 
ATOM     14  C   UNL     1       2.824   0.051  -2.353  0.00  0.00    +0.200 C 
ATOM     15  O   UNL     1       2.289  -0.157  -3.421  0.00  0.00    -0.278 OA
ATOM     16  H   UNL     1       2.553   0.075  -0.355  0.00  0.00    +0.149 HD
BRANCH  13  17
ATOM     17  C   UNL     1       0.718  -0.497  -1.257  0.00  0.00    +0.070 C 
ATOM     18  C   UNL     1       0.630  -2.023  -1.329  0.00  0.00    +0.028 C 
BRANCH  17  20
ATOM     19  C   UNL     1      -0.019   1.526   0.010  0.00  0.00    +0.005 C 
ATOM     20  C   UNL     1       0.002  -0.004   0.002  0.00  0.00    +0.018 C 
ENDBRANCH  17  20
ENDBRANCH  13  17
ENDBRANCH   1  14
BRANCH   8  21
ATOM     21  S   UNL     1       7.529   1.157  -7.939  0.00  0.00    +0.061 S 
ATOM     22  O   UNL     1       8.435   2.226  -7.707  0.00  0.00    -0.153 OA
ATOM     23  O   UNL     1       7.963  -0.139  -8.328  0.00  0.00    -0.153 OA
BRANCH  21  24
ATOM     24  C   UNL     1       6.408   1.706  -9.182  0.00  0.00    +0.105 A 
ATOM     25  C   UNL     1       5.738   0.785  -9.965  0.00  0.00    +0.029 A 
ATOM     26  C   UNL     1       4.859   1.216 -10.940  0.00  0.00    +0.006 A 
ATOM     27  C   UNL     1       4.650   2.569 -11.133  0.00  0.00    -0.042 A 
ATOM     28  C   UNL     1       5.319   3.490 -10.350  0.00  0.00    +0.006 A 
ATOM     29  C   UNL     1       6.195   3.059  -9.372  0.00  0.00    +0.029 A 
BRANCH  27  30
ATOM     30  C   UNL     1       3.692   3.039 -12.198  0.00  0.00    -0.013 C 
ATOM     31  C   UNL     1       2.295   2.487 -11.907  0.00  0.00    +0.015 C 
ATOM     32  C   UNL     1       3.645   4.569 -12.202  0.00  0.00    +0.015 C 
ATOM     33  C   UNL     1       4.163   2.539 -13.565  0.00  0.00    +0.015 C 
ENDBRANCH  27  30
ENDBRANCH  21  24
ENDBRANCH   8  21
TORSDOF 6
