REMARK  Name = ZINC39710880
REMARK  12 active torsions:
REMARK  status: ('A' for Active; 'I' for Inactive)
REMARK    1  A    between atoms: C_1  and  C_2
REMARK    2  A    between atoms: C_8  and  C_14
REMARK    3  A    between atoms: C_14  and  C_16
REMARK    4  A    between atoms: C_14  and  N_25
REMARK    5  A    between atoms: N_20  and  C_21
REMARK    6  A    between atoms: C_21  and  C_22
REMARK    7  A    between atoms: C_22  and  O_23
REMARK    8  A    between atoms: O_23  and  C_24
REMARK    9  A    between atoms: N_25  and  C_26
REMARK   10  A    between atoms: N_25  and  C_33
REMARK   11  A    between atoms: C_26  and  C_27
REMARK   12  A    between atoms: C_33  and  C_34
REMARK                            x       y       z     vdW  Elec       q    Type
REMARK                         _______ _______ _______ _____ _____    ______ ____
ROOT
ATOM      1  C   UNL     1       0.714  -2.078   5.130  0.00  0.00    +0.019 C 
ENDROOT
BRANCH   1   9
ATOM      2  C   UNL     1      -2.744   2.980   4.770  0.00  0.00    +0.045 C 
ATOM      3  C   UNL     1      -3.002   1.562   4.330  0.00  0.00    -0.029 A 
ATOM      4  C   UNL     1      -4.018   1.298   3.467  0.00  0.00    +0.005 A 
ATOM      5  C   UNL     1      -4.311   0.010   3.020  0.00  0.00    +0.001 A 
ATOM      6  C   UNL     1      -3.585  -1.063   3.429  0.00  0.00    +0.009 A 
ATOM      7  C   UNL     1      -2.475  -0.850   4.359  0.00  0.00    -0.007 A 
ATOM      8  C   UNL     1      -1.720  -1.897   4.797  0.00  0.00    -0.006 C 
ATOM      9  C   UNL     1      -0.591  -1.584   5.760  0.00  0.00    +0.092 C 
ATOM     10  C   UNL     1      -0.395  -0.138   6.155  0.00  0.00    +0.223 C 
ATOM     11  O   UNL     1       0.496   0.170   6.924  0.00  0.00    -0.275 OA
ATOM     12  N   UNL     1      -1.196   0.792   5.661  0.00  0.00    -0.284 N 
ATOM     13  C   UNL     1      -2.186   0.522   4.811  0.00  0.00    +0.043 A 
ATOM     14  H   UNL     1      -1.053   1.714   5.928  0.00  0.00    +0.155 HD
ENDBRANCH   1   9
BRANCH   1  15
ATOM     15  C   UNL     1       0.997  -1.289   3.878  0.00  0.00    +0.139 A 
ATOM     16  N   UNL     1       1.416  -0.049   3.813  0.00  0.00    -0.115 NA
ATOM     17  N   UNL     1       1.540   0.264   2.569  0.00  0.00    -0.023 NA
ATOM     18  N   UNL     1       1.212  -0.744   1.839  0.00  0.00    -0.044 NA
ATOM     19  N   UNL     1       0.876  -1.724   2.610  0.00  0.00    -0.229 N 
BRANCH  19  20
ATOM     20  C   UNL     1       0.442  -3.056   2.184  0.00  0.00    +0.175 C 
BRANCH  20  21
ATOM     21  C   UNL     1      -1.045  -3.017   1.824  0.00  0.00    +0.183 C 
BRANCH  21  22
ATOM     22  O   UNL     1      -1.492  -4.336   1.505  0.00  0.00    -0.381 OA
ATOM     23  C   UNL     1      -2.875  -4.412   1.153  0.00  0.00    +0.194 C 
ENDBRANCH  21  22
ENDBRANCH  20  21
ENDBRANCH  19  20
ENDBRANCH   1  15
BRANCH   1  24
ATOM     24  N   UNL     1       1.817  -1.898   6.083  0.00  0.00    +0.392 N 
ATOM     25  H   UNL     1       1.983  -0.912   6.223  0.00  0.00    -0.080 HD
BRANCH  24  26
ATOM     26  C   UNL     1       1.463  -2.521   7.366  0.00  0.00    -0.042 C 
BRANCH  26  27
ATOM     27  C   UNL     1       2.540  -2.231   8.379  0.00  0.00    -0.064 A 
ATOM     28  C   UNL     1       3.594  -3.111   8.537  0.00  0.00    +0.002 A 
ATOM     29  C   UNL     1       4.582  -2.846   9.467  0.00  0.00    +0.000 A 
ATOM     30  C   UNL     1       4.517  -1.700  10.238  0.00  0.00    +0.000 A 
ATOM     31  C   UNL     1       3.463  -0.820  10.079  0.00  0.00    +0.000 A 
ATOM     32  C   UNL     1       2.477  -1.083   9.146  0.00  0.00    +0.002 A 
ENDBRANCH  26  27
ENDBRANCH  24  26
BRANCH  24  33
ATOM     33  C   UNL     1       3.032  -2.529   5.551  0.00  0.00    -0.042 C 
BRANCH  33  34
ATOM     34  C   UNL     1       3.515  -1.756   4.352  0.00  0.00    -0.064 A 
ATOM     35  C   UNL     1       3.426  -2.312   3.089  0.00  0.00    +0.003 A 
ATOM     36  C   UNL     1       3.869  -1.603   1.988  0.00  0.00    +0.020 A 
ATOM     37  C   UNL     1       4.403  -0.337   2.150  0.00  0.00    +0.041 A 
ATOM     38  C   UNL     1       4.492   0.219   3.414  0.00  0.00    +0.020 A 
ATOM     39  C   UNL     1       4.043  -0.488   4.513  0.00  0.00    +0.003 A 
ATOM     40 CL   UNL     1       4.960   0.553   0.768  0.00  0.00    -0.084 Cl
ENDBRANCH  33  34
ENDBRANCH  24  33
ENDBRANCH   1  24
TORSDOF 10
