REMARK  Name = ZINC02678505
REMARK  5 active torsions:
REMARK  status: ('A' for Active; 'I' for Inactive)
REMARK    1  A    between atoms: C_4  and  C_7
REMARK    2  A    between atoms: C_7  and  C_8
REMARK    3  A    between atoms: C_18  and  C_19
REMARK    4  A    between atoms: N_21  and  C_30
REMARK    5  A    between atoms: C_23  and  C_24
REMARK                            x       y       z     vdW  Elec       q    Type
REMARK                         _______ _______ _______ _____ _____    ______ ____
ROOT
ATOM      1  C   UNL     1      -7.591   5.523   0.101  0.00  0.00    +0.132 A 
ATOM      2  C   UNL     1      -7.814   4.072   0.096  0.00  0.00    +0.296 A 
ATOM      3  O   UNL     1      -8.946   3.612   0.105  0.00  0.00    -0.264 OA
ATOM      4  N   UNL     1      -6.745   3.266   0.082  0.00  0.00    -0.181 NA
ATOM      5  C   UNL     1      -5.535   3.765   0.073  0.00  0.00    +0.201 A 
ATOM      6  N   UNL     1      -5.265   5.110   0.077  0.00  0.00    -0.170 N 
ATOM      7  N   UNL     1      -6.382   5.988   0.091  0.00  0.00    -0.161 NA
ATOM      8  C   UNL     1      -3.978   5.492   0.073  0.00  0.00    +0.287 A 
ATOM      9  O   UNL     1      -3.688   6.674   0.083  0.00  0.00    -0.265 OA
ATOM     10  C   UNL     1      -2.957   4.504   0.053  0.00  0.00    +0.082 A 
ATOM     11  C   UNL     1      -1.605   4.660   0.041  0.00  0.00    +0.032 C 
ATOM     12  S   UNL     1      -3.926   3.003   0.055  0.00  0.00    -0.044 S 
ENDROOT
BRANCH  11  13
ATOM     13  C   UNL     1      -0.732   3.482   0.027  0.00  0.00    +0.022 A 
ATOM     14  C   UNL     1      -1.128   2.156   0.018  0.00  0.00    +0.123 A 
ATOM     15  N   UNL     1      -0.017   1.396   0.010  0.00  0.00    -0.239 N 
ATOM     16  N   UNL     1       1.115   2.217   0.003  0.00  0.00    -0.166 NA
ATOM     17  C   UNL     1       0.736   3.475   0.013  0.00  0.00    +0.100 A 
BRANCH  17  18
ATOM     18  C   UNL     1       1.623   4.662   0.010  0.00  0.00    +0.003 A 
ATOM     19  C   UNL     1       1.247   5.815  -0.677  0.00  0.00    +0.010 A 
ATOM     20  C   UNL     1       2.075   6.920  -0.672  0.00  0.00    +0.001 A 
ATOM     21  C   UNL     1       3.281   6.880   0.005  0.00  0.00    +0.000 A 
ATOM     22  C   UNL     1       3.662   5.737   0.684  0.00  0.00    +0.001 A 
ATOM     23  C   UNL     1       2.840   4.628   0.690  0.00  0.00    +0.010 A 
ENDBRANCH  17  18
BRANCH  15  24
ATOM     24  C   UNL     1       0.002  -0.004   0.002  0.00  0.00    +0.065 A 
ATOM     25  C   UNL     1      -1.190  -0.716   0.015  0.00  0.00    +0.028 A 
ATOM     26  C   UNL     1      -1.168  -2.097   0.001  0.00  0.00    +0.002 A 
ATOM     27  C   UNL     1       0.040  -2.771  -0.013  0.00  0.00    +0.000 A 
ATOM     28  C   UNL     1       1.228  -2.064  -0.020  0.00  0.00    +0.002 A 
ATOM     29  C   UNL     1       1.213  -0.683  -0.013  0.00  0.00    +0.028 A 
ENDBRANCH  15  24
ENDBRANCH  11  13
BRANCH   1  30
ATOM     30  C   UNL     1      -8.765   6.468   0.115  0.00  0.00    +0.098 C 
BRANCH  30  34
ATOM     31  C   UNL     1     -10.975   6.051  -3.517  0.00  0.00    +0.000 A 
ATOM     32  C   UNL     1     -11.293   5.271  -2.420  0.00  0.00    +0.000 A 
ATOM     33  C   UNL     1     -10.578   5.406  -1.245  0.00  0.00    +0.004 A 
ATOM     34  C   UNL     1      -9.544   6.321  -1.166  0.00  0.00    -0.041 A 
ATOM     35  C   UNL     1      -9.230   7.104  -2.260  0.00  0.00    +0.004 A 
ATOM     36  C   UNL     1      -9.941   6.966  -3.437  0.00  0.00    +0.000 A 
ENDBRANCH  30  34
ENDBRANCH   1  30
TORSDOF 5
