REMARK  Name = ZINC29375688
REMARK  12 active torsions:
REMARK  status: ('A' for Active; 'I' for Inactive)
REMARK    1  A    between atoms: C_1  and  C_2
REMARK    2  A    between atoms: C_2  and  C_3
REMARK    3  A    between atoms: C_3  and  C_4
REMARK    4  A    between atoms: C_3  and  C_5
REMARK    5  A    between atoms: C_3  and  N_6
REMARK    6  A    between atoms: C_7  and  C_9
REMARK    7  A    between atoms: C_9  and  C_11
REMARK    8  A    between atoms: C_9  and  S_12
REMARK    9  A    between atoms: S_12  and  C_13
REMARK   10  A    between atoms: C_13  and  C_15
REMARK   11  A    between atoms: C_13  and  C_16
REMARK   12  A    between atoms: N_22  and  C_23
REMARK                            x       y       z     vdW  Elec       q    Type
REMARK                         _______ _______ _______ _____ _____    ______ ____
ROOT
ATOM      1  C   UNL     1       2.076   3.795   0.115  0.00  0.00    +0.149 A 
ATOM      2  N   UNL     1       1.443   4.589   0.961  0.00  0.00    -0.198 NA
ATOM      3  C   UNL     1       1.572   5.910   0.860  0.00  0.00    +0.217 A 
ATOM      4  N   UNL     1       2.330   6.431  -0.099  0.00  0.00    -0.181 NA
ATOM      5  C   UNL     1       2.960   5.630  -0.951  0.00  0.00    +0.224 A 
ATOM      6  N   UNL     1       2.831   4.309  -0.841  0.00  0.00    -0.198 NA
ATOM      7  N   UNL     1       3.750   6.166  -1.950  0.00  0.00    -0.284 N 
ATOM      8  N   UNL     1       0.915   6.738   1.747  0.00  0.00    -0.327 N 
ATOM      9  H   UNL     1       4.343   5.503  -2.597  0.00  0.00    +0.155 HD
ATOM     10  H   UNL     1       1.022   7.830   1.664  0.00  0.00    +0.145 HD
ATOM     11  H   UNL     1       0.284   6.306   2.538  0.00  0.00    +0.145 HD
ENDROOT
BRANCH   7  12
ATOM     12  C   UNL     1       3.795   7.551  -2.137  0.00  0.00    +0.034 A 
ATOM     13  C   UNL     1       2.666   8.323  -1.894  0.00  0.00    +0.023 A 
ATOM     14  C   UNL     1       2.716   9.691  -2.075  0.00  0.00    +0.002 A 
ATOM     15  C   UNL     1       3.884  10.291  -2.509  0.00  0.00    +0.000 A 
ATOM     16  C   UNL     1       5.007   9.525  -2.757  0.00  0.00    +0.002 A 
ATOM     17  C   UNL     1       4.966   8.156  -2.573  0.00  0.00    +0.023 A 
ENDBRANCH   7  12
BRANCH   1  18
ATOM     18  C   UNL     1       1.932   2.300   0.236  0.00  0.00    +0.112 C 
ATOM     19  C   UNL     1       2.761   1.802   1.422  0.00  0.00    +0.027 C 
BRANCH  18  20
ATOM     20  S   UNL     1       0.187   1.880   0.498  0.00  0.00    -0.137 S 
BRANCH  20  21
ATOM     21  C   UNL     1       0.163   0.066   0.470  0.00  0.00    +0.130 C 
ATOM     22  C   UNL     1       0.559  -0.427  -0.923  0.00  0.00    +0.029 C 
BRANCH  21  24
ATOM     23  N   UNL     1      -1.396  -1.651   1.329  0.00  0.00    -0.309 N 
ATOM     24  C   UNL     1      -1.223  -0.423   0.801  0.00  0.00    +0.226 C 
ATOM     25  O   UNL     1      -2.183   0.288   0.593  0.00  0.00    -0.275 OA
ATOM     26  H   UNL     1      -0.525  -2.296   1.517  0.00  0.00    +0.149 HD
BRANCH  23  27
ATOM     27  C   UNL     1      -2.744  -2.127   1.651  0.00  0.00    +0.029 C 
ATOM     28  C   UNL     1      -3.384  -1.190   2.677  0.00  0.00    +0.031 C 
ATOM     29  C   UNL     1      -3.595  -2.147   0.379  0.00  0.00    +0.031 C 
BRANCH  27  31
ATOM     30  C   UNL     1      -4.068  -4.037   2.568  0.00  0.00    +0.006 C 
ATOM     31  C   UNL     1      -2.661  -3.540   2.231  0.00  0.00    +0.022 C 
ENDBRANCH  27  31
ENDBRANCH  23  27
ENDBRANCH  21  24
ENDBRANCH  20  21
ENDBRANCH  18  20
ENDBRANCH   1  18
TORSDOF 7
