REMARK  Name = ZINC02291608
REMARK  5 active torsions:
REMARK  status: ('A' for Active; 'I' for Inactive)
REMARK    1  A    between atoms: C_9  and  C_23
REMARK    2  A    between atoms: C_10  and  N_22
REMARK    3  A    between atoms: N_11  and  C_14
REMARK    4  A    between atoms: N_25  and  C_26
REMARK    5  A    between atoms: C_26  and  C_27
REMARK                            x       y       z     vdW  Elec       q    Type
REMARK                         _______ _______ _______ _____ _____    ______ ____
ROOT
ATOM      1  C   UNL     1      -2.174  -3.598  -4.679  0.00  0.00    +0.002 A 
ATOM      2  C   UNL     1      -2.375  -2.271  -5.056  0.00  0.00    +0.002 A 
ATOM      3  C   UNL     1      -2.003  -1.248  -4.241  0.00  0.00    +0.030 A 
ATOM      4  C   UNL     1      -1.405  -1.524  -2.998  0.00  0.00    +0.092 A 
ATOM      5  C   UNL     1      -1.200  -2.874  -2.614  0.00  0.00    +0.090 A 
ATOM      6  C   UNL     1      -1.599  -3.905  -3.485  0.00  0.00    +0.030 A 
ATOM      7  N   UNL     1      -0.634  -3.164  -1.437  0.00  0.00    -0.241 NA
ATOM      8  C   UNL     1      -0.266  -2.186  -0.634  0.00  0.00    +0.123 A 
ATOM      9  C   UNL     1       0.367  -2.126   0.694  0.00  0.00    +0.104 A 
ATOM     10  C   UNL     1       0.496  -0.778   1.010  0.00  0.00    +0.117 A 
ATOM     11  N   UNL     1       0.002  -0.004   0.002  0.00  0.00    -0.280 N 
ATOM     12  C   UNL     1      -0.482  -0.791  -1.025  0.00  0.00    +0.166 A 
ATOM     13  N   UNL     1      -1.035  -0.523  -2.189  0.00  0.00    -0.225 NA
ENDROOT
BRANCH  11  14
ATOM     14  C   UNL     1      -0.017   1.397   0.010  0.00  0.00    +0.051 A 
ATOM     15  C   UNL     1       1.175   2.109   0.002  0.00  0.00    +0.028 A 
ATOM     16  C   UNL     1       1.155   3.490   0.010  0.00  0.00    +0.023 A 
ATOM     17  C   UNL     1      -0.053   4.165   0.025  0.00  0.00    +0.059 A 
ATOM     18  C   UNL     1      -1.244   3.458   0.033  0.00  0.00    +0.061 A 
ATOM     19  C   UNL     1      -1.228   2.076   0.019  0.00  0.00    +0.047 A 
ATOM     20 CL   UNL     1      -2.757   4.308   0.052  0.00  0.00    -0.082 Cl
ATOM     21 CL   UNL     1      -0.075   5.901   0.036  0.00  0.00    -0.082 Cl
ENDBRANCH  11  14
BRANCH   9  22
ATOM     22  C   UNL     1       0.778  -3.260   1.518  0.00  0.00    +0.250 C 
ATOM     23  O   UNL     1      -0.002  -3.748   2.316  0.00  0.00    -0.270 OA
ATOM     24  N   UNL     1       2.021  -3.767   1.395  0.00  0.00    -0.309 N 
ATOM     25  H   UNL     1       2.643  -3.378   0.760  0.00  0.00    +0.149 HD
BRANCH  24  26
ATOM     26  C   UNL     1       2.434  -4.904   2.222  0.00  0.00    +0.136 C 
BRANCH  26  27
ATOM     27  C   UNL     1       3.879  -5.279   1.888  0.00  0.00    +0.135 C 
ATOM     28  C   UNL     1       4.323  -6.475   2.753  0.00  0.00    +0.035 C 
ATOM     29  C   UNL     1       4.719  -7.561   1.724  0.00  0.00    +0.031 C 
ATOM     30  C   UNL     1       4.981  -6.720   0.448  0.00  0.00    +0.160 C 
ATOM     31  O   UNL     1       3.973  -5.688   0.513  0.00  0.00    -0.375 OA
ENDBRANCH  26  27
ENDBRANCH  24  26
ENDBRANCH   9  22
BRANCH  10  32
ATOM     32  N   UNL     1       1.041  -0.295   2.171  0.00  0.00    -0.343 N 
ATOM     33  H   UNL     1       1.096   0.661   2.320  0.00  0.00    +0.144 HD
ATOM     34  H   UNL     1       1.373  -0.911   2.843  0.00  0.00    +0.144 HD
ENDBRANCH  10  32
TORSDOF 5
