REMARK  Name = ZINC21236876
REMARK  9 active torsions:
REMARK  status: ('A' for Active; 'I' for Inactive)
REMARK    1  A    between atoms: C_1  and  C_2
REMARK    2  A    between atoms: C_2  and  O_3
REMARK    3  A    between atoms: O_3  and  C_4
REMARK    4  A    between atoms: C_6  and  C_14
REMARK    5  A    between atoms: C_8  and  N_11
REMARK    6  A    between atoms: C_9  and  O_10
REMARK    7  A    between atoms: C_19  and  C_24
REMARK    8  A    between atoms: C_29  and  O_30
REMARK    9  A    between atoms: O_30  and  C_31
REMARK                            x       y       z     vdW  Elec       q    Type
REMARK                         _______ _______ _______ _____ _____    ______ ____
ROOT
ATOM      1  C   UNL     1       0.711   9.576  -0.053  0.00  0.00    +0.136 C 
ATOM      2  C   UNL     1       0.781   8.068  -0.101  0.00  0.00    +0.036 C 
ATOM      3  C   UNL     1       0.767   7.244   0.961  0.00  0.00    +0.017 C 
ATOM      4  C   UNL     1       0.849   5.739   0.768  0.00  0.00    +0.060 C 
ATOM      5  C   UNL     1       0.162   5.343  -0.538  0.00  0.00    +0.035 C 
ATOM      6  C   UNL     1       0.884   6.065  -1.682  0.00  0.00    +0.088 C 
ATOM      7  C   UNL     1       0.852   7.540  -1.412  0.00  0.00    +0.163 C 
ATOM      8  O   UNL     1       0.888   8.308  -2.353  0.00  0.00    -0.292 OA
ATOM      9  N   UNL     1       0.698   7.650   2.254  0.00  0.00    -0.316 N 
ATOM     10  C   UNL     1      -0.187   8.604   2.741  0.00  0.00    +0.052 A 
ATOM     11  C   UNL     1      -1.180   8.296   3.655  0.00  0.00    +0.025 A 
ATOM     12  C   UNL     1      -1.997   9.305   4.136  0.00  0.00    +0.002 A 
ATOM     13  C   UNL     1      -1.820  10.609   3.709  0.00  0.00    +0.002 A 
ATOM     14  C   UNL     1      -0.839  10.916   2.782  0.00  0.00    +0.025 A 
ATOM     15  C   UNL     1      -0.035   9.904   2.282  0.00  0.00    +0.049 A 
ATOM     16  N   UNL     1       0.889  10.144   1.266  0.00  0.00    -0.331 N 
ATOM     17  H   UNL     1       1.375   7.215   3.004  0.00  0.00    +0.152 HD
ATOM     18  H   UNL     1       1.763  10.776   1.480  0.00  0.00    +0.147 HD
ENDROOT
BRANCH   1  21
ATOM     19  C   UNL     1      -1.939  11.174  -2.220  0.00  0.00    +0.164 A 
ATOM     20  C   UNL     1      -0.705  10.775  -1.731  0.00  0.00    +0.055 A 
ATOM     21  C   UNL     1      -0.631  10.009  -0.583  0.00  0.00    -0.017 A 
ATOM     22  C   UNL     1      -1.787   9.635   0.078  0.00  0.00    +0.042 A 
ATOM     23  C   UNL     1      -3.021  10.035  -0.401  0.00  0.00    +0.171 A 
ATOM     24  C   UNL     1      -3.102  10.802  -1.551  0.00  0.00    +0.189 A 
BRANCH  23  25
ATOM     25  N   UNL     1      -4.255   9.638   0.313  0.00  0.00    +0.060 N 
ATOM     26  O   UNL     1      -4.184   8.964   1.325  0.00  0.00    -0.126 OA
ATOM     27  O   UNL     1      -5.343   9.987  -0.111  0.00  0.00    -0.126 OA
ENDBRANCH  23  25
BRANCH  24  28
ATOM     28  O   UNL     1      -4.315  11.192  -2.026  0.00  0.00    -0.502 OA
ATOM     29  H   UNL     1      -5.233  10.898  -1.497  0.00  0.00    +0.292 HD
ENDBRANCH  24  28
BRANCH  19  30
ATOM     30  O   UNL     1      -2.014  11.927  -3.350  0.00  0.00    -0.488 OA
BRANCH  30  32
ATOM     31  C   UNL     1      -1.062  13.112  -5.229  0.00  0.00    +0.048 C 
ATOM     32  C   UNL     1      -0.779  12.270  -3.983  0.00  0.00    +0.226 C 
ENDBRANCH  30  32
ENDBRANCH  19  30
ENDBRANCH   1  21
BRANCH   5  33
ATOM     33  C   UNL     1       0.257   3.852  -0.734  0.00  0.00    -0.002 A 
ATOM     34  C   UNL     1       1.495   3.239  -0.780  0.00  0.00    +0.007 A 
ATOM     35  C   UNL     1       1.583   1.871  -0.960  0.00  0.00    +0.001 A 
ATOM     36  C   UNL     1       0.434   1.113  -1.094  0.00  0.00    +0.004 A 
ATOM     37  C   UNL     1      -0.805   1.722  -1.053  0.00  0.00    +0.046 A 
ATOM     38  C   UNL     1      -0.897   3.094  -0.867  0.00  0.00    +0.124 A 
BRANCH  38  39
ATOM     39  O   UNL     1      -2.115   3.695  -0.822  0.00  0.00    -0.495 OA
ATOM     40  C   UNL     1      -3.260   2.852  -0.967  0.00  0.00    +0.277 C 
ENDBRANCH  38  39
ENDBRANCH   5  33
TORSDOF 7
