REMARK  Name = ZINC23127307
REMARK  8 active torsions:
REMARK  status: ('A' for Active; 'I' for Inactive)
REMARK    1  A    between atoms: C_8  and  C_10
REMARK    2  A    between atoms: C_12  and  C_15
REMARK    3  A    between atoms: C_15  and  C_16
REMARK    4  A    between atoms: N_18  and  C_19
REMARK    5  A    between atoms: C_19  and  C_20
REMARK    6  A    between atoms: C_20  and  C_21
REMARK    7  A    between atoms: C_24  and  S_27
REMARK    8  A    between atoms: S_27  and  N_30
REMARK                            x       y       z     vdW  Elec       q    Type
REMARK                         _______ _______ _______ _____ _____    ______ ____
ROOT
ATOM      1  C   UNL     1      -0.742   1.585  -1.213  0.00  0.00    +0.219 C 
ATOM      2  O   UNL     1      -1.736   2.268  -1.088  0.00  0.00    -0.275 OA
ATOM      3  N   UNL     1      -0.288   1.272  -2.443  0.00  0.00    -0.315 N 
ATOM      4  H   UNL     1       0.614   0.653  -2.556  0.00  0.00    +0.149 HD
ENDROOT
BRANCH   1   5
ATOM      5  C   UNL     1      -0.013   1.086   0.008  0.00  0.00    +0.154 C 
BRANCH   5   8
ATOM      6  C   UNL     1      -1.749   1.688   3.176  0.00  0.00    +0.202 A 
ATOM      7  C   UNL     1      -1.201   0.778   2.307  0.00  0.00    +0.079 A 
ATOM      8  C   UNL     1      -0.718   1.572   1.248  0.00  0.00    +0.093 A 
ATOM      9  N   UNL     1      -1.005   2.808   1.546  0.00  0.00    -0.082 NA
ATOM     10  O   UNL     1      -1.575   2.896   2.609  0.00  0.00    -0.351 OA
BRANCH   6  18
ATOM     11  C   UNL     1      -4.498   1.005   8.514  0.00  0.00    +0.001 A 
ATOM     12  C   UNL     1      -4.227  -0.333   8.266  0.00  0.00    +0.004 A 
ATOM     13  C   UNL     1      -3.577  -0.719   7.113  0.00  0.00    +0.047 A 
ATOM     14  C   UNL     1      -3.187   0.240   6.185  0.00  0.00    +0.136 A 
ATOM     15  C   UNL     1      -3.465   1.595   6.441  0.00  0.00    +0.021 A 
ATOM     16  C   UNL     1      -4.124   1.965   7.615  0.00  0.00    +0.011 A 
ATOM     17  C   UNL     1      -2.931   2.332   5.295  0.00  0.00    +0.061 A 
ATOM     18  C   UNL     1      -2.399   1.400   4.463  0.00  0.00    +0.174 A 
ATOM     19  O   UNL     1      -2.552   0.171   4.998  0.00  0.00    -0.452 OA
ENDBRANCH   6  18
ENDBRANCH   5   8
ENDBRANCH   1   5
BRANCH   3  20
ATOM     20  C   UNL     1      -0.997   1.758  -3.630  0.00  0.00    +0.109 C 
BRANCH  20  21
ATOM     21  C   UNL     1      -0.281   1.264  -4.889  0.00  0.00    +0.054 C 
BRANCH  21  22
ATOM     22  C   UNL     1      -1.010   1.763  -6.110  0.00  0.00    -0.046 A 
ATOM     23  C   UNL     1      -2.018   1.003  -6.672  0.00  0.00    +0.005 A 
ATOM     24  C   UNL     1      -2.690   1.463  -7.789  0.00  0.00    +0.029 A 
ATOM     25  C   UNL     1      -2.347   2.679  -8.350  0.00  0.00    +0.105 A 
ATOM     26  C   UNL     1      -1.335   3.437  -7.791  0.00  0.00    +0.029 A 
ATOM     27  C   UNL     1      -0.666   2.979  -6.671  0.00  0.00    +0.005 A 
BRANCH  25  28
ATOM     28  S   UNL     1      -3.200   3.263  -9.776  0.00  0.00    +0.056 S 
ATOM     29  O   UNL     1      -4.468   2.624  -9.781  0.00  0.00    -0.153 OA
ATOM     30  O   UNL     1      -3.059   4.677  -9.783  0.00  0.00    -0.153 OA
BRANCH  28  31
ATOM     31  N   UNL     1      -2.381   2.701 -11.101  0.00  0.00    -0.204 NA
ATOM     32  H   UNL     1      -2.884   3.045 -12.017  0.00  0.00    +0.144 HD
ATOM     33  H   UNL     1      -2.365   1.601 -11.083  0.00  0.00    +0.144 HD
ENDBRANCH  28  31
ENDBRANCH  25  28
ENDBRANCH  21  22
ENDBRANCH  20  21
ENDBRANCH   3  20
TORSDOF 8
