REMARK  Name = ZINC58292731
REMARK  7 active torsions:
REMARK  status: ('A' for Active; 'I' for Inactive)
REMARK    1  A    between atoms: C_5  and  C_7
REMARK    2  A    between atoms: C_7  and  O_8
REMARK    3  A    between atoms: O_8  and  C_9
REMARK    4  A    between atoms: C_12  and  C_15
REMARK    5  A    between atoms: C_15  and  S_16
REMARK    6  A    between atoms: S_16  and  C_17
REMARK    7  A    between atoms: C_21  and  N_23
REMARK                            x       y       z     vdW  Elec       q    Type
REMARK                         _______ _______ _______ _____ _____    ______ ____
ROOT
ATOM      1  C   UNL     1      -0.235  -4.024  -0.019  0.00  0.00    +0.121 A 
ATOM      2  C   UNL     1       0.882  -4.846  -0.030  0.00  0.00    +0.046 A 
ATOM      3  C   UNL     1       0.728  -6.219  -0.036  0.00  0.00    +0.008 A 
ATOM      4  C   UNL     1      -0.538  -6.774  -0.033  0.00  0.00    -0.037 A 
ATOM      5  C   UNL     1      -1.654  -5.956  -0.023  0.00  0.00    +0.008 A 
ATOM      6  C   UNL     1      -1.505  -4.583  -0.010  0.00  0.00    +0.046 A 
ENDROOT
BRANCH   1   7
ATOM      7  O   UNL     1      -0.086  -2.673  -0.013  0.00  0.00    -0.486 OA
BRANCH   7   8
ATOM      8  C   UNL     1       1.250  -2.168  -0.023  0.00  0.00    +0.284 C 
BRANCH   8  13
ATOM      9  C   UNL     1      -0.017   1.382   0.010  0.00  0.00    +0.003 A 
ATOM     10  C   UNL     1       1.194   2.059   0.002  0.00  0.00    +0.020 A 
ATOM     11  C   UNL     1       2.370   1.334  -0.013  0.00  0.00    +0.111 A 
ATOM     12  N   UNL     1       2.350   0.015  -0.021  0.00  0.00    -0.256 NA
ATOM     13  C   UNL     1       1.218  -0.661  -0.014  0.00  0.00    +0.078 A 
ATOM     14  C   UNL     1       0.002  -0.004   0.002  0.00  0.00    +0.027 A 
ENDBRANCH   8  13
ENDBRANCH   7   8
ENDBRANCH   1   7
BRANCH   4  15
ATOM     15  C   UNL     1      -0.704  -8.271  -0.040  0.00  0.00    +0.112 C 
BRANCH  15  16
ATOM     16  S   UNL     1      -0.761  -8.882   1.667  0.00  0.00    -0.081 S 
BRANCH  16  17
ATOM     17  C   UNL     1      -0.954 -10.624   1.491  0.00  0.00    +0.192 A 
ATOM     18  N   UNL     1      -1.014 -11.147   0.275  0.00  0.00    -0.207 NA
ATOM     19  C   UNL     1      -1.159 -12.459   0.103  0.00  0.00    +0.122 A 
ATOM     20  C   UNL     1      -1.248 -13.283   1.221  0.00  0.00    +0.086 A 
ATOM     21  C   UNL     1      -1.182 -12.697   2.482  0.00  0.00    +0.122 A 
ATOM     22  N   UNL     1      -1.031 -11.378   2.578  0.00  0.00    -0.207 NA
ATOM     23  N   UNL     1      -1.220 -12.998  -1.173  0.00  0.00    -0.343 N 
ATOM     24  H   UNL     1      -1.157 -12.418  -1.948  0.00  0.00    +0.144 HD
ATOM     25  H   UNL     1      -1.326 -13.955  -1.290  0.00  0.00    +0.144 HD
BRANCH  21  26
ATOM     26  N   UNL     1      -1.267 -13.479   3.624  0.00  0.00    -0.343 N 
ATOM     27  H   UNL     1      -1.374 -14.440   3.548  0.00  0.00    +0.144 HD
ATOM     28  H   UNL     1      -1.221 -13.064   4.500  0.00  0.00    +0.144 HD
ENDBRANCH  21  26
ENDBRANCH  16  17
ENDBRANCH  15  16
ENDBRANCH   4  15
TORSDOF 7
