REMARK  Name = ZINC40180024
REMARK  7 active torsions:
REMARK  status: ('A' for Active; 'I' for Inactive)
REMARK    1  A    between atoms: C_1  and  C_2
REMARK    2  A    between atoms: C_2  and  C_3
REMARK    3  A    between atoms: C_2  and  C_4
REMARK    4  A    between atoms: C_5  and  C_16
REMARK    5  A    between atoms: N_8  and  C_9
REMARK    6  A    between atoms: N_18  and  C_19
REMARK    7  A    between atoms: C_20  and  C_28
REMARK                            x       y       z     vdW  Elec       q    Type
REMARK                         _______ _______ _______ _____ _____    ______ ____
ROOT
ATOM      1  C   UNL     1      -1.454  -0.470   0.260  0.00  0.00    +0.080 A 
ATOM      2  C   UNL     1      -2.299  -0.000   1.226  0.00  0.00    +0.171 A 
ATOM      3  N   UNL     1      -3.510  -0.553   1.037  0.00  0.00    -0.124 NA
ATOM      4  N   UNL     1      -3.472  -1.336   0.016  0.00  0.00    -0.060 NA
ATOM      5  N   UNL     1      -2.175  -1.308  -0.515  0.00  0.00    -0.216 N 
ENDROOT
BRANCH   5   6
ATOM      6  C   UNL     1      -1.714  -2.017  -1.635  0.00  0.00    +0.067 A 
ATOM      7  C   UNL     1      -0.763  -1.452  -2.473  0.00  0.00    +0.029 A 
ATOM      8  C   UNL     1      -0.311  -2.152  -3.574  0.00  0.00    +0.022 A 
ATOM      9  C   UNL     1      -0.805  -3.416  -3.843  0.00  0.00    +0.041 A 
ATOM     10  C   UNL     1      -1.754  -3.982  -3.009  0.00  0.00    +0.022 A 
ATOM     11  C   UNL     1      -2.205  -3.288  -1.903  0.00  0.00    +0.029 A 
ATOM     12 CL   UNL     1      -0.235  -4.293  -5.228  0.00  0.00    -0.084 Cl
ENDBRANCH   5   6
BRANCH   2  13
ATOM     13  C   UNL     1      -1.942   0.951   2.294  0.00  0.00    +0.271 C 
ATOM     14  O   UNL     1      -0.803   1.367   2.383  0.00  0.00    -0.268 OA
ATOM     15  N   UNL     1      -2.879   1.360   3.173  0.00  0.00    -0.274 N 
ATOM     16  H   UNL     1      -3.788   1.028   3.102  0.00  0.00    +0.156 HD
BRANCH  15  17
ATOM     17  C   UNL     1      -2.544   2.255   4.178  0.00  0.00    +0.090 A 
ATOM     18  C   UNL     1      -3.367   2.776   5.164  0.00  0.00    +0.084 A 
ATOM     19  C   UNL     1      -2.768   3.703   6.107  0.00  0.00    -0.018 A 
ATOM     20  C   UNL     1      -1.456   3.940   5.891  0.00  0.00    -0.004 A 
ATOM     21  S   UNL     1      -1.047   2.951   4.484  0.00  0.00    -0.077 S 
ATOM     22  C   UNL     1      -0.562   4.843   6.685  0.00  0.00    +0.043 C 
ATOM     23  C   UNL     1      -1.444   5.752   7.553  0.00  0.00    +0.005 C 
ATOM     24  C   UNL     1      -2.493   4.893   8.265  0.00  0.00    +0.005 C 
ATOM     25  C   UNL     1      -3.514   4.371   7.253  0.00  0.00    +0.037 C 
BRANCH  18  26
ATOM     26  C   UNL     1      -4.750   2.415   5.248  0.00  0.00    +0.102 C 
ATOM     27  N   UNL     1      -5.847   2.128   5.316  0.00  0.00    -0.191 NA
ENDBRANCH  18  26
ENDBRANCH  15  17
ENDBRANCH   2  13
BRANCH   1  29
ATOM     28  C   UNL     1       0.136   1.390  -0.146  0.00  0.00    +0.014 C 
ATOM     29  C   UNL     1       0.001  -0.116   0.089  0.00  0.00    +0.034 C 
ATOM     30  C   UNL     1       0.772  -0.506   1.352  0.00  0.00    +0.014 C 
ENDBRANCH   1  29
TORSDOF 5
