REMARK  Name = ZINC60353961
REMARK  8 active torsions:
REMARK  status: ('A' for Active; 'I' for Inactive)
REMARK    1  A    between atoms: C_1  and  C_2
REMARK    2  A    between atoms: C_4  and  C_24
REMARK    3  A    between atoms: C_9  and  C_10
REMARK    4  A    between atoms: C_10  and  N_11
REMARK    5  A    between atoms: C_12  and  C_14
REMARK    6  A    between atoms: C_15  and  C_23
REMARK    7  A    between atoms: C_17  and  S_19
REMARK    8  A    between atoms: S_19  and  N_22
REMARK                            x       y       z     vdW  Elec       q    Type
REMARK                         _______ _______ _______ _____ _____    ______ ____
ROOT
ATOM      1  N   UNL     1      -1.348   0.142   2.992  0.00  0.00    -0.307 N 
ATOM      2  C   UNL     1      -1.592   0.762   4.163  0.00  0.00    +0.251 C 
ATOM      3  O   UNL     1      -0.670   1.228   4.808  0.00  0.00    -0.270 OA
ATOM      4  H   UNL     1      -2.083  -0.230   2.478  0.00  0.00    +0.149 HD
ENDROOT
BRANCH   2   5
ATOM      5  C   UNL     1      -2.966   0.874   4.662  0.00  0.00    +0.079 A 
ATOM      6  C   UNL     1      -3.427   1.470   5.826  0.00  0.00    -0.029 A 
ATOM      7  C   UNL     1      -4.786   1.416   6.026  0.00  0.00    +0.040 A 
ATOM      8  C   UNL     1      -5.564   0.803   5.100  0.00  0.00    +0.143 A 
ATOM      9  S   UNL     1      -4.479   0.287   3.926  0.00  0.00    -0.064 S 
ATOM     10  C   UNL     1      -2.498   2.133   6.810  0.00  0.00    +0.045 C 
BRANCH   8  11
ATOM     11  S   UNL     1      -7.315   0.602   5.120  0.00  0.00    +0.062 S 
ATOM     12  O   UNL     1      -7.603  -0.525   4.304  0.00  0.00    -0.153 OA
ATOM     13  O   UNL     1      -7.717   0.680   6.481  0.00  0.00    -0.153 OA
BRANCH  11  14
ATOM     14  N   UNL     1      -7.968   1.918   4.357  0.00  0.00    -0.203 NA
ATOM     15  H   UNL     1      -8.808   1.834   3.879  0.00  0.00    +0.144 HD
ATOM     16  H   UNL     1      -7.511   2.773   4.388  0.00  0.00    +0.144 HD
ENDBRANCH  11  14
ENDBRANCH   8  11
ENDBRANCH   2   5
BRANCH   1  17
ATOM     17  C   UNL     1       0.025   0.030   2.493  0.00  0.00    +0.145 C 
BRANCH  17  26
ATOM     18  C   UNL     1      -0.018   1.503   0.010  0.00  0.00    +0.044 C 
ATOM     19  C   UNL     1       0.002  -0.004   0.002  0.00  0.00    -0.039 A 
ATOM     20  C   UNL     1       0.006  -0.706  -1.212  0.00  0.00    +0.024 A 
ATOM     21  C   UNL     1       0.025  -2.059  -1.209  0.00  0.00    +0.016 A 
ATOM     22  N   UNL     1       0.040  -2.750  -0.040  0.00  0.00    -0.326 N 
ATOM     23  H   UNL     1       0.054  -3.720  -0.057  0.00  0.00    +0.169 HD
ATOM     24  C   UNL     1       0.037  -2.105   1.141  0.00  0.00    +0.254 A 
ATOM     25  O   UNL     1       0.051  -2.740   2.183  0.00  0.00    -0.268 OA
ATOM     26  C   UNL     1       0.023  -0.700   1.175  0.00  0.00    +0.037 A 
ATOM     27  C   UNL     1       0.029  -2.807  -2.517  0.00  0.00    +0.063 C 
ENDBRANCH  17  26
ENDBRANCH   1  17
TORSDOF 5
