REMARK  Name = ZINC09442552
REMARK  10 active torsions:
REMARK  status: ('A' for Active; 'I' for Inactive)
REMARK    1  A    between atoms: C_1  and  C_2
REMARK    2  A    between atoms: C_2  and  C_19
REMARK    3  A    between atoms: N_3  and  N_4
REMARK    4  A    between atoms: C_5  and  C_7
REMARK    5  A    between atoms: C_9  and  O_17
REMARK    6  A    between atoms: C_10  and  O_15
REMARK    7  A    between atoms: C_11  and  O_13
REMARK    8  A    between atoms: O_13  and  C_14
REMARK    9  A    between atoms: O_15  and  C_16
REMARK   10  A    between atoms: O_17  and  C_18
REMARK                            x       y       z     vdW  Elec       q    Type
REMARK                         _______ _______ _______ _____ _____    ______ ____
ROOT
ATOM      1  C   UNL     1      -4.993  -0.012   0.043  0.00  0.00    +0.068 C 
ATOM      2  C   UNL     1      -3.683  -0.757   0.027  0.00  0.00    +0.063 C 
ATOM      3  N   UNL     1      -3.675  -2.055   0.018  0.00  0.00    -0.184 NA
ENDROOT
BRANCH   2   4
ATOM      4  C   UNL     1      -2.412  -0.012   0.022  0.00  0.00    -0.001 A 
ATOM      5  C   UNL     1      -2.419   1.385   0.031  0.00  0.00    +0.011 A 
ATOM      6  C   UNL     1      -1.226   2.075   0.031  0.00  0.00    +0.017 A 
ATOM      7  C   UNL     1      -0.017   1.390   0.010  0.00  0.00    +0.034 A 
ATOM      8  C   UNL     1       0.002  -0.004   0.002  0.00  0.00    +0.046 A 
ATOM      9  C   UNL     1      -1.197  -0.702   0.007  0.00  0.00    +0.034 A 
ATOM     10  N   UNL     1       1.194  -0.724  -0.007  0.00  0.00    -0.313 N 
ATOM     11  C   UNL     1       2.417  -0.239  -0.463  0.00  0.00    +0.045 A 
ATOM     12  C   UNL     1       3.384  -1.148  -0.881  0.00  0.00    +0.024 A 
ATOM     13  C   UNL     1       4.611  -0.702  -1.333  0.00  0.00    +0.002 A 
ATOM     14  C   UNL     1       4.888   0.651  -1.374  0.00  0.00    +0.001 A 
ATOM     15  C   UNL     1       3.933   1.563  -0.964  0.00  0.00    +0.017 A 
ATOM     16  C   UNL     1       2.698   1.123  -0.510  0.00  0.00    +0.034 A 
ATOM     17  S   UNL     1       1.492   2.301   0.000  0.00  0.00    -0.086 S 
ATOM     18  H   UNL     1       1.171  -1.633   0.331  0.00  0.00    +0.152 HD
ENDBRANCH   2   4
BRANCH   3  19
ATOM     19  N   UNL     1      -4.884  -2.764   0.022  0.00  0.00    -0.203 N 
ATOM     20  C   UNL     1      -4.876  -4.111   0.013  0.00  0.00    +0.263 C 
ATOM     21  O   UNL     1      -3.819  -4.713  -0.000  0.00  0.00    -0.268 OA
ATOM     22  H   UNL     1      -5.727  -2.284   0.033  0.00  0.00    +0.178 HD
BRANCH  20  23
ATOM     23  C   UNL     1      -6.149  -4.857   0.018  0.00  0.00    +0.045 A 
ATOM     24  C   UNL     1      -7.364  -4.168   0.039  0.00  0.00    +0.062 A 
ATOM     25  C   UNL     1      -8.555  -4.869   0.038  0.00  0.00    +0.166 A 
ATOM     26  C   UNL     1      -8.545  -6.261   0.028  0.00  0.00    +0.204 A 
ATOM     27  C   UNL     1      -7.336  -6.950   0.013  0.00  0.00    +0.166 A 
ATOM     28  C   UNL     1      -6.142  -6.254   0.008  0.00  0.00    +0.062 A 
BRANCH  27  29
ATOM     29  O   UNL     1      -7.329  -8.310   0.003  0.00  0.00    -0.491 OA
ATOM     30  C   UNL     1      -6.053  -8.953  -0.012  0.00  0.00    +0.277 C 
ENDBRANCH  27  29
BRANCH  26  31
ATOM     31  O   UNL     1      -9.718  -6.948   0.033  0.00  0.00    -0.488 OA
ATOM     32  C   UNL     1     -10.267  -7.285   1.308  0.00  0.00    +0.277 C 
ENDBRANCH  26  31
BRANCH  25  33
ATOM     33  O   UNL     1      -9.738  -4.198   0.053  0.00  0.00    -0.491 OA
ATOM     34  C   UNL     1      -9.675  -2.770   0.063  0.00  0.00    +0.277 C 
ENDBRANCH  25  33
ENDBRANCH  20  23
ENDBRANCH   3  19
TORSDOF 6
