REMARK  Name = ZINC40426587
REMARK  10 active torsions:
REMARK  status: ('A' for Active; 'I' for Inactive)
REMARK    1  A    between atoms: C_1  and  N_2
REMARK    2  A    between atoms: C_5  and  C_10
REMARK    3  A    between atoms: C_15  and  O_16
REMARK    4  A    between atoms: O_16  and  C_17
REMARK    5  A    between atoms: N_20  and  C_22
REMARK    6  A    between atoms: C_22  and  C_23
REMARK    7  A    between atoms: C_23  and  C_24
REMARK    8  A    between atoms: N_26  and  C_27
REMARK    9  A    between atoms: N_30  and  C_33
REMARK   10  A    between atoms: C_33  and  C_34
REMARK                            x       y       z     vdW  Elec       q    Type
REMARK                         _______ _______ _______ _____ _____    ______ ____
ROOT
ATOM      1  C   UNL     1      -0.018   1.461   0.010  0.00  0.00    +0.139 C 
ATOM      2  N   UNL     1       0.002  -0.004   0.002  0.00  0.00    -0.260 N 
ATOM      3  C   UNL     1      -1.193  -0.666   0.004  0.00  0.00    +0.042 C 
ATOM      4  C   UNL     1      -1.245  -2.013  -0.003  0.00  0.00    +0.058 C 
ATOM      5  C   UNL     1       0.068  -2.769  -0.014  0.00  0.00    +0.145 C 
ATOM      6  N   UNL     1       1.301  -1.964  -0.016  0.00  0.00    -0.288 N 
ATOM      7  C   UNL     1       1.191  -0.621  -0.013  0.00  0.00    +0.307 C 
ATOM      8  O   UNL     1       2.203   0.052  -0.018  0.00  0.00    -0.252 OA
ATOM      9  C   UNL     1      -2.585  -2.452   0.002  0.00  0.00    +0.247 C 
ATOM     10  O   UNL     1      -2.927  -3.620  -0.003  0.00  0.00    -0.270 OA
ATOM     11  N   UNL     1      -3.437  -1.411   0.012  0.00  0.00    -0.292 N 
ATOM     12  C   UNL     1      -2.626  -0.184   0.015  0.00  0.00    +0.159 C 
ATOM     13  H   UNL     1       2.172  -2.391  -0.023  0.00  0.00    +0.151 HD
ENDROOT
BRANCH   5  14
ATOM     14  C   UNL     1       0.100  -3.664   1.198  0.00  0.00    +0.019 A 
ATOM     15  C   UNL     1       0.712  -3.233   2.360  0.00  0.00    +0.009 A 
ATOM     16  C   UNL     1       0.741  -4.053   3.472  0.00  0.00    +0.001 A 
ATOM     17  C   UNL     1       0.158  -5.306   3.426  0.00  0.00    +0.004 A 
ATOM     18  C   UNL     1      -0.455  -5.741   2.268  0.00  0.00    +0.046 A 
ATOM     19  C   UNL     1      -0.491  -4.918   1.151  0.00  0.00    +0.125 A 
BRANCH  19  20
ATOM     20  O   UNL     1      -1.099  -5.342   0.012  0.00  0.00    -0.495 OA
ATOM     21  C   UNL     1      -1.686  -6.644   0.036  0.00  0.00    +0.277 C 
ENDBRANCH  19  20
ENDBRANCH   5  14
BRANCH  11  22
ATOM     22  C   UNL     1      -4.900  -1.485   0.019  0.00  0.00    +0.117 C 
BRANCH  22  23
ATOM     23  C   UNL     1      -5.402  -1.519   1.464  0.00  0.00    +0.114 C 
BRANCH  23  24
ATOM     24  C   UNL     1      -6.907  -1.596   1.471  0.00  0.00    +0.215 C 
ATOM     25  O   UNL     1      -7.518  -1.621   0.424  0.00  0.00    -0.276 OA
ATOM     26  N   UNL     1      -7.574  -1.636   2.642  0.00  0.00    -0.313 N 
ATOM     27  H   UNL     1      -7.085  -1.617   3.479  0.00  0.00    +0.149 HD
BRANCH  26  28
ATOM     28  C   UNL     1      -9.037  -1.711   2.649  0.00  0.00    +0.069 C 
ATOM     29  C   UNL     1      -9.622  -0.299   2.544  0.00  0.00    +0.003 C 
ATOM     30  C   UNL     1     -11.148  -0.378   2.632  0.00  0.00    -0.077 C 
ATOM     31  N   UNL     1     -11.538  -0.977   3.914  0.00  0.00    +0.382 N 
ATOM     32  C   UNL     1     -11.041  -2.356   3.991  0.00  0.00    -0.077 C 
ATOM     33  C   UNL     1      -9.511  -2.353   3.956  0.00  0.00    +0.003 C 
ATOM     34  H   UNL     1     -11.145  -0.436   4.670  0.00  0.00    -0.081 HD
BRANCH  31  35
ATOM     35  C   UNL     1     -13.002  -0.978   4.027  0.00  0.00    -0.043 C 
BRANCH  35  36
ATOM     36  C   UNL     1     -13.400  -1.479   5.392  0.00  0.00    -0.064 A 
ATOM     37  C   UNL     1     -13.608  -2.829   5.599  0.00  0.00    +0.002 A 
ATOM     38  C   UNL     1     -13.973  -3.288   6.851  0.00  0.00    +0.000 A 
ATOM     39  C   UNL     1     -14.130  -2.397   7.895  0.00  0.00    +0.000 A 
ATOM     40  C   UNL     1     -13.921  -1.046   7.688  0.00  0.00    +0.000 A 
ATOM     41  C   UNL     1     -13.552  -0.588   6.438  0.00  0.00    +0.002 A 
ENDBRANCH  35  36
ENDBRANCH  31  35
ENDBRANCH  26  28
ENDBRANCH  23  24
ENDBRANCH  22  23
ENDBRANCH  11  22
TORSDOF 8
