REMARK  Name = ZINC64392026
REMARK  6 active torsions:
REMARK  status: ('A' for Active; 'I' for Inactive)
REMARK    1  A    between atoms: C_4  and  C_7
REMARK    2  A    between atoms: C_7  and  C_8
REMARK    3  A    between atoms: C_8  and  C_9
REMARK    4  A    between atoms: C_9  and  N_10
REMARK    5  A    between atoms: C_16  and  C_23
REMARK    6  A    between atoms: C_26  and  C_29
REMARK                            x       y       z     vdW  Elec       q    Type
REMARK                         _______ _______ _______ _____ _____    ______ ____
ROOT
ATOM      1  N   UNL     1       5.947  -1.955   2.757  0.00  0.00    -0.261 N 
ATOM      2  C   UNL     1       6.716  -1.036   3.380  0.00  0.00    +0.264 A 
ATOM      3  O   UNL     1       7.046  -0.012   2.814  0.00  0.00    -0.267 OA
ATOM      4  C   UNL     1       7.146  -1.307   4.763  0.00  0.00    +0.063 A 
ATOM      5  C   UNL     1       7.939  -0.409   5.473  0.00  0.00    +0.016 A 
ATOM      6  C   UNL     1       8.314  -0.709   6.766  0.00  0.00    +0.009 A 
ATOM      7  C   UNL     1       7.906  -1.895   7.358  0.00  0.00    +0.006 A 
ATOM      8  C   UNL     1       7.120  -2.793   6.665  0.00  0.00    +0.034 A 
ATOM      9  C   UNL     1       6.733  -2.509   5.365  0.00  0.00    +0.056 A 
ATOM     10  N   UNL     1       5.942  -3.384   4.634  0.00  0.00    -0.307 N 
ATOM     11  H   UNL     1       5.649  -4.217   5.036  0.00  0.00    +0.170 HD
ATOM     12  C   UNL     1       5.574  -3.087   3.376  0.00  0.00    +0.330 A 
ATOM     13  O   UNL     1       4.877  -3.878   2.771  0.00  0.00    -0.246 OA
ENDROOT
BRANCH   7  14
ATOM     14  C   UNL     1       8.326  -2.206   8.772  0.00  0.00    +0.274 C 
ATOM     15  N   UNL     1       8.524  -0.964   9.528  0.00  0.00    -0.339 N 
ATOM     16  C   UNL     1       9.758  -0.909   9.923  0.00  0.00    +0.134 C 
ATOM     17  N   UNL     1      10.466  -2.011   9.511  0.00  0.00    -0.247 N 
ATOM     18  O   UNL     1       9.601  -2.866   8.777  0.00  0.00    -0.243 OA
ATOM     19  H   UNL     1      11.404  -2.179   9.693  0.00  0.00    +0.196 HD
ATOM     20  H   UNL     1       7.844  -0.295   9.704  0.00  0.00    +0.164 HD
BRANCH  16  21
ATOM     21  C   UNL     1      10.332   0.202  10.716  0.00  0.00    +0.017 A 
ATOM     22  C   UNL     1       9.527   0.918  11.602  0.00  0.00    +0.011 A 
ATOM     23  C   UNL     1      10.068   1.952  12.339  0.00  0.00    +0.001 A 
ATOM     24  C   UNL     1      11.405   2.279  12.201  0.00  0.00    +0.000 A 
ATOM     25  C   UNL     1      12.208   1.572  11.323  0.00  0.00    +0.001 A 
ATOM     26  C   UNL     1      11.681   0.533  10.585  0.00  0.00    +0.011 A 
ENDBRANCH  16  21
ENDBRANCH   7  14
BRANCH   1  27
ATOM     27  C   UNL     1       5.507  -1.710   1.381  0.00  0.00    +0.130 C 
BRANCH  27  28
ATOM     28  C   UNL     1       4.171  -0.963   1.399  0.00  0.00    +0.026 C 
BRANCH  28  29
ATOM     29  C   UNL     1       3.711  -0.707  -0.038  0.00  0.00    +0.037 C 
BRANCH  29  33
ATOM     30  C   UNL     1      -0.017   1.378   0.010  0.00  0.00    +0.000 A 
ATOM     31  C   UNL     1       1.171   2.086   0.002  0.00  0.00    +0.000 A 
ATOM     32  C   UNL     1       2.377   1.411  -0.013  0.00  0.00    +0.003 A 
ATOM     33  C   UNL     1       2.396   0.029  -0.020  0.00  0.00    -0.047 A 
ATOM     34  C   UNL     1       1.208  -0.679  -0.012  0.00  0.00    +0.003 A 
ATOM     35  C   UNL     1       0.002  -0.004   0.002  0.00  0.00    +0.000 A 
ENDBRANCH  29  33
ENDBRANCH  28  29
ENDBRANCH  27  28
ENDBRANCH   1  27
TORSDOF 6
