REMARK  Name = ZINC60169574
REMARK  8 active torsions:
REMARK  status: ('A' for Active; 'I' for Inactive)
REMARK    1  A    between atoms: C_3  and  C_31
REMARK    2  A    between atoms: C_4  and  O_8
REMARK    3  A    between atoms: O_8  and  C_9
REMARK    4  A    between atoms: C_9  and  C_10
REMARK    5  A    between atoms: N_12  and  C_13
REMARK    6  A    between atoms: C_14  and  C_29
REMARK    7  A    between atoms: N_17  and  C_18
REMARK    8  A    between atoms: C_18  and  C_19
REMARK                            x       y       z     vdW  Elec       q    Type
REMARK                         _______ _______ _______ _____ _____    ______ ____
ROOT
ATOM      1  C   UNL     1       4.230  -4.195   0.888  0.00  0.00    +0.256 C 
ATOM      2  O   UNL     1       4.577  -4.803   1.878  0.00  0.00    -0.272 OA
ATOM      3  N   UNL     1       5.107  -3.980  -0.113  0.00  0.00    -0.268 N 
ATOM      4  H   UNL     1       4.830  -3.492  -0.904  0.00  0.00    +0.156 HD
ENDROOT
BRANCH   3   5
ATOM      5  C   UNL     1       6.406  -4.456  -0.010  0.00  0.00    +0.123 A 
ATOM      6  C   UNL     1       6.790  -5.792  -0.012  0.00  0.00    +0.095 A 
ATOM      7  C   UNL     1       8.245  -5.787   0.116  0.00  0.00    -0.007 A 
ATOM      8  C   UNL     1       8.632  -4.499   0.185  0.00  0.00    +0.025 A 
ATOM      9  N   UNL     1       7.529  -3.697   0.103  0.00  0.00    -0.329 N 
ATOM     10  C   UNL     1      10.072  -4.063   0.327  0.00  0.00    +0.054 C 
ATOM     11  C   UNL     1      10.899  -5.266   0.791  0.00  0.00    +0.006 C 
ATOM     12  C   UNL     1      10.603  -6.471  -0.107  0.00  0.00    +0.005 C 
ATOM     13  C   UNL     1       9.177  -6.968   0.164  0.00  0.00    +0.038 C 
BRANCH   6  14
ATOM     14  C   UNL     1       5.935  -6.936  -0.118  0.00  0.00    +0.103 C 
ATOM     15  N   UNL     1       5.257  -7.844  -0.202  0.00  0.00    -0.191 NA
ENDBRANCH   6  14
BRANCH   9  16
ATOM     16  C   UNL     1       7.551  -2.233   0.137  0.00  0.00    +0.154 C 
BRANCH  16  17
ATOM     17  C   UNL     1       7.587  -1.757   1.591  0.00  0.00    +0.138 C 
ATOM     18  C   UNL     1       7.704  -0.213   1.648  0.00  0.00    +0.035 C 
ATOM     19  C   UNL     1       7.088   0.077   3.044  0.00  0.00    +0.031 C 
ATOM     20  C   UNL     1       6.001  -1.013   3.156  0.00  0.00    +0.160 C 
ATOM     21  O   UNL     1       6.348  -2.067   2.248  0.00  0.00    -0.375 OA
ENDBRANCH  16  17
ENDBRANCH   9  16
ENDBRANCH   3   5
BRANCH   1  22
ATOM     22  C   UNL     1       2.818  -3.680   0.776  0.00  0.00    +0.325 C 
BRANCH  22  23
ATOM     23  O   UNL     1       2.088  -4.032   1.953  0.00  0.00    -0.482 OA
BRANCH  23  27
ATOM     24  C   UNL     1      -1.866  -2.837   2.137  0.00  0.00    +0.021 A 
ATOM     25  C   UNL     1      -1.322  -3.541   3.189  0.00  0.00    +0.018 A 
ATOM     26  C   UNL     1       0.013  -3.950   3.138  0.00  0.00    +0.078 A 
ATOM     27  C   UNL     1       0.790  -3.640   2.013  0.00  0.00    +0.135 A 
ATOM     28  C   UNL     1       0.228  -2.931   0.963  0.00  0.00    +0.066 A 
ATOM     29  C   UNL     1      -1.094  -2.533   1.026  0.00  0.00    +0.044 A 
ATOM     30 CL   UNL     1      -1.792  -1.645  -0.293  0.00  0.00    -0.083 Cl
BRANCH  26  31
ATOM     31  C   UNL     1       0.601  -4.703   4.261  0.00  0.00    +0.245 C 
ATOM     32  O   UNL     1       1.763  -5.058   4.213  0.00  0.00    -0.270 OA
ATOM     33  N   UNL     1      -0.150  -4.999   5.341  0.00  0.00    -0.325 N 
ATOM     34  H   UNL     1      -1.077  -4.716   5.379  0.00  0.00    +0.145 HD
ATOM     35  H   UNL     1       0.237  -5.494   6.080  0.00  0.00    +0.145 HD
ENDBRANCH  26  31
ENDBRANCH  23  27
ENDBRANCH  22  23
ENDBRANCH   1  22
TORSDOF 8
