REMARK  Name = ZINC09616233
REMARK  13 active torsions:
REMARK  status: ('A' for Active; 'I' for Inactive)
REMARK    1  A    between atoms: C_1  and  C_2
REMARK    2  A    between atoms: C_5  and  C_8
REMARK    3  A    between atoms: C_8  and  C_9
REMARK    4  A    between atoms: C_9  and  N_10
REMARK    5  A    between atoms: C_11  and  C_13
REMARK    6  A    between atoms: C_13  and  C_14
REMARK    7  A    between atoms: C_14  and  C_15
REMARK    8  A    between atoms: C_15  and  N_16
REMARK    9  A    between atoms: N_25  and  C_28
REMARK   10  A    between atoms: C_28  and  C_29
REMARK   11  A    between atoms: N_31  and  C_32
REMARK   12  A    between atoms: C_32  and  C_33
REMARK   13  A    between atoms: C_33  and  C_34
REMARK                            x       y       z     vdW  Elec       q    Type
REMARK                         _______ _______ _______ _____ _____    ______ ____
ROOT
ATOM      1  N   UNL     1      -0.601  -4.185   1.226  0.00  0.00    -0.260 N 
ATOM      2  C   UNL     1      -0.462  -4.928   0.107  0.00  0.00    +0.264 A 
ATOM      3  O   UNL     1      -0.223  -6.118   0.173  0.00  0.00    -0.267 OA
ATOM      4  C   UNL     1      -0.607  -4.257  -1.198  0.00  0.00    +0.063 A 
ATOM      5  C   UNL     1      -0.478  -4.953  -2.398  0.00  0.00    +0.015 A 
ATOM      6  C   UNL     1      -0.640  -4.283  -3.592  0.00  0.00    +0.001 A 
ATOM      7  C   UNL     1      -0.912  -2.924  -3.603  0.00  0.00    +0.002 A 
ATOM      8  C   UNL     1      -1.036  -2.221  -2.421  0.00  0.00    +0.027 A 
ATOM      9  C   UNL     1      -0.888  -2.880  -1.210  0.00  0.00    +0.059 A 
ATOM     10  N   UNL     1      -1.005  -2.212  -0.000  0.00  0.00    -0.284 N 
ATOM     11  C   UNL     1      -0.864  -2.871   1.163  0.00  0.00    +0.333 A 
ATOM     12  O   UNL     1      -0.979  -2.249   2.201  0.00  0.00    -0.246 OA
ENDROOT
BRANCH   1  13
ATOM     13  C   UNL     1      -0.461  -4.827   2.536  0.00  0.00    +0.130 C 
BRANCH  13  14
ATOM     14  C   UNL     1      -1.827  -5.333   3.004  0.00  0.00    +0.031 C 
BRANCH  14  15
ATOM     15  C   UNL     1      -1.681  -6.004   4.372  0.00  0.00    +0.097 C 
BRANCH  15  17
ATOM     16  N   UNL     1      -3.142  -7.131   6.019  0.00  0.00    -0.315 N 
ATOM     17  C   UNL     1      -3.027  -6.502   4.832  0.00  0.00    +0.213 C 
ATOM     18  O   UNL     1      -4.006  -6.337   4.136  0.00  0.00    -0.276 OA
ATOM     19  H   UNL     1      -2.359  -7.263   6.576  0.00  0.00    +0.149 HD
BRANCH  16  20
ATOM     20  C   UNL     1      -4.450  -7.615   6.467  0.00  0.00    +0.109 C 
BRANCH  20  21
ATOM     21  C   UNL     1      -4.304  -8.286   7.835  0.00  0.00    +0.054 C 
BRANCH  21  26
ATOM     22  C   UNL     1      -9.463 -10.197   9.603  0.00  0.00    +0.044 C 
ATOM     23  C   UNL     1      -8.118  -9.699   9.142  0.00  0.00    -0.050 A 
ATOM     24  C   UNL     1      -7.296 -10.520   8.393  0.00  0.00    +0.003 A 
ATOM     25  C   UNL     1      -6.062 -10.063   7.970  0.00  0.00    +0.004 A 
ATOM     26  C   UNL     1      -5.650  -8.784   8.296  0.00  0.00    -0.046 A 
ATOM     27  C   UNL     1      -6.470  -7.965   9.049  0.00  0.00    +0.004 A 
ATOM     28  C   UNL     1      -7.706  -8.420   9.468  0.00  0.00    +0.003 A 
ENDBRANCH  21  26
ENDBRANCH  20  21
ENDBRANCH  16  20
ENDBRANCH  15  17
ENDBRANCH  14  15
ENDBRANCH  13  14
ENDBRANCH   1  13
BRANCH  10  29
ATOM     29  C   UNL     1      -1.293  -0.775   0.010  0.00  0.00    +0.222 C 
BRANCH  29  30
ATOM     30  C   UNL     1       0.002  -0.004   0.002  0.00  0.00    +0.233 C 
ATOM     31  O   UNL     1       1.060  -0.596  -0.011  0.00  0.00    -0.274 OA
ATOM     32  N   UNL     1      -0.016   1.344   0.009  0.00  0.00    -0.314 N 
ATOM     33  H   UNL     1      -0.863   1.817   0.016  0.00  0.00    +0.149 HD
BRANCH  32  34
ATOM     34  C   UNL     1       1.242   2.093   0.001  0.00  0.00    +0.108 C 
BRANCH  34  35
ATOM     35  C   UNL     1       0.943   3.594   0.012  0.00  0.00    +0.049 C 
BRANCH  35  36
ATOM     36  C   UNL     1       2.237   4.365   0.004  0.00  0.00    -0.072 C 
ATOM     37  C   UNL     1       2.697   4.767  -1.137  0.00  0.00    -0.028 C 
ATOM     38  C   UNL     1       3.975   5.535  -1.305  0.00  0.00    +0.027 C 
ATOM     39  C   UNL     1       4.414   6.128   0.035  0.00  0.00    +0.004 C 
ATOM     40  C   UNL     1       4.373   5.019   1.093  0.00  0.00    +0.005 C 
ATOM     41  C   UNL     1       2.910   4.624   1.320  0.00  0.00    +0.030 C 
ENDBRANCH  35  36
ENDBRANCH  34  35
ENDBRANCH  32  34
ENDBRANCH  29  30
ENDBRANCH  10  29
TORSDOF 12
