REMARK  Name = ZINC20599613
REMARK  6 active torsions:
REMARK  status: ('A' for Active; 'I' for Inactive)
REMARK    1  A    between atoms: C_5  and  C_7
REMARK    2  A    between atoms: C_7  and  C_8
REMARK    3  A    between atoms: C_8  and  C_15
REMARK    4  A    between atoms: N_18  and  C_21
REMARK    5  A    between atoms: C_21  and  C_22
REMARK    6  A    between atoms: C_27  and  C_28
REMARK                            x       y       z     vdW  Elec       q    Type
REMARK                         _______ _______ _______ _____ _____    ______ ____
ROOT
ATOM      1  C   UNL     1       3.200   5.562  -0.644  0.00  0.00    +0.018 C 
ATOM      2  C   UNL     1       3.401   6.865   0.134  0.00  0.00    -0.013 C 
ATOM      3  C   UNL     1       4.815   7.392  -0.119  0.00  0.00    -0.078 C 
ATOM      4  N   UNL     1       5.002   7.626  -1.557  0.00  0.00    +0.382 N 
ATOM      5  C   UNL     1       4.860   6.379  -2.320  0.00  0.00    -0.078 C 
ATOM      6  C   UNL     1       3.447   5.822  -2.133  0.00  0.00    -0.013 C 
ATOM      7  H   UNL     1       4.211   8.314  -1.890  0.00  0.00    -0.081 HD
ENDROOT
BRANCH   1   8
ATOM      8  C   UNL     1       1.767   5.063  -0.444  0.00  0.00    +0.119 C 
ATOM      9  C   UNL     1       1.514   3.815  -1.267  0.00  0.00    +0.245 C 
ATOM     10  O   UNL     1       2.084   2.749  -1.175  0.00  0.00    -0.273 OA
ATOM     11  N   UNL     1       0.524   4.138  -2.122  0.00  0.00    -0.238 N 
ATOM     12  C   UNL     1       0.120   5.402  -1.956  0.00  0.00    +0.307 C 
ATOM     13  O   UNL     1      -0.761   5.922  -2.611  0.00  0.00    -0.252 OA
ATOM     14  N   UNL     1       0.799   6.034  -0.982  0.00  0.00    -0.284 N 
ATOM     15  H   UNL     1       0.151   3.391  -2.838  0.00  0.00    +0.159 HD
ATOM     16  H   UNL     1       0.753   7.052  -0.566  0.00  0.00    +0.151 HD
BRANCH   8  17
ATOM     17  C   UNL     1       1.495   4.795   1.038  0.00  0.00    +0.073 C 
BRANCH  17  22
ATOM     18  C   UNL     1      -1.387   2.402   1.510  0.00  0.00    +0.000 A 
ATOM     19  C   UNL     1      -2.468   3.264   1.498  0.00  0.00    +0.003 A 
ATOM     20  C   UNL     1      -2.268   4.622   1.347  0.00  0.00    +0.038 A 
ATOM     21  C   UNL     1      -0.984   5.120   1.195  0.00  0.00    +0.127 A 
ATOM     22  C   UNL     1       0.097   4.255   1.202  0.00  0.00    -0.010 A 
ATOM     23  C   UNL     1      -0.105   2.897   1.359  0.00  0.00    +0.006 A 
ATOM     24  F   UNL     1      -0.787   6.447   1.041  0.00  0.00    -0.205 F 
ENDBRANCH  17  22
ENDBRANCH   8  17
ENDBRANCH   1   8
BRANCH   4  25
ATOM     25  C   UNL     1       6.299   8.261  -1.823  0.00  0.00    -0.039 C 
BRANCH  25  26
ATOM     26  C   UNL     1       6.263   9.693  -1.352  0.00  0.00    -0.019 A 
ATOM     27  C   UNL     1       6.870  10.183  -0.249  0.00  0.00    +0.107 A 
ATOM     28  N   UNL     1       6.601  11.505  -0.179  0.00  0.00    -0.284 N 
ATOM     29  H   UNL     1       7.009  12.106   0.647  0.00  0.00    +0.188 HD
ATOM     30  N   UNL     1       5.792  11.844  -1.271  0.00  0.00    -0.174 NA
ATOM     31  C   UNL     1       5.585  10.755  -1.981  0.00  0.00    +0.094 A 
BRANCH  31  32
ATOM     32  C   UNL     1       4.781  10.664  -3.225  0.00  0.00    +0.002 A 
ATOM     33  C   UNL     1       5.251   9.924  -4.308  0.00  0.00    +0.011 A 
ATOM     34  C   UNL     1       4.497   9.838  -5.461  0.00  0.00    +0.020 A 
ATOM     35  C   UNL     1       3.281  10.493  -5.546  0.00  0.00    +0.041 A 
ATOM     36  C   UNL     1       2.813  11.234  -4.475  0.00  0.00    +0.020 A 
ATOM     37  C   UNL     1       3.557  11.322  -3.316  0.00  0.00    +0.011 A 
ATOM     38 CL   UNL     1       2.340  10.386  -7.001  0.00  0.00    -0.084 Cl
ENDBRANCH  31  32
ENDBRANCH  25  26
ENDBRANCH   4  25
TORSDOF 6
