REMARK  Name = ZINC04737659
REMARK  5 active torsions:
REMARK  status: ('A' for Active; 'I' for Inactive)
REMARK    1  A    between atoms: C_1  and  C_2
REMARK    2  A    between atoms: C_2  and  C_20
REMARK    3  A    between atoms: N_3  and  N_4
REMARK    4  A    between atoms: N_15  and  C_16
REMARK    5  A    between atoms: C_23  and  O_26
REMARK                            x       y       z     vdW  Elec       q    Type
REMARK                         _______ _______ _______ _____ _____    ______ ____
ROOT
ATOM      1  N   UNL     1       6.880   1.060   0.976  0.00  0.00    -0.204 N 
ATOM      2  C   UNL     1       5.733   1.020   1.750  0.00  0.00    +0.256 A 
ATOM      3  N   UNL     1       5.242   2.150   2.243  0.00  0.00    -0.192 NA
ATOM      4  C   UNL     1       4.140   2.110   2.986  0.00  0.00    +0.165 A 
ATOM      5  C   UNL     1       3.535   0.858   3.220  0.00  0.00    +0.138 A 
ATOM      6  C   UNL     1       2.353   1.120   4.059  0.00  0.00    +0.030 A 
ATOM      7  C   UNL     1       1.368   0.305   4.613  0.00  0.00    +0.027 A 
ATOM      8  C   UNL     1       0.360   0.865   5.369  0.00  0.00    +0.019 A 
ATOM      9  C   UNL     1       0.330   2.234   5.588  0.00  0.00    +0.017 A 
ATOM     10  C   UNL     1       1.299   3.052   5.046  0.00  0.00    +0.027 A 
ATOM     11  C   UNL     1       2.321   2.506   4.276  0.00  0.00    +0.053 A 
ATOM     12  N   UNL     1       3.401   3.076   3.623  0.00  0.00    -0.326 N 
ATOM     13  C   UNL     1       3.712   4.508   3.614  0.00  0.00    +0.151 C 
ATOM     14 BR   UNL     1      -0.982  -0.238   6.116  0.00  0.00    -0.050 Br
ATOM     15  N   UNL     1       4.075  -0.234   2.699  0.00  0.00    -0.142 NA
ATOM     16  N   UNL     1       5.144  -0.148   1.985  0.00  0.00    -0.111 NA
ATOM     17  H   UNL     1       7.317   1.908   0.799  0.00  0.00    +0.178 HD
ENDROOT
BRANCH   1  20
ATOM     18  C   UNL     1       9.027  -1.334  -0.906  0.00  0.00    +0.068 C 
ATOM     19  C   UNL     1       8.546  -0.105  -0.179  0.00  0.00    +0.063 C 
ATOM     20  N   UNL     1       7.410  -0.125   0.449  0.00  0.00    -0.184 NA
BRANCH  19  21
ATOM     21  C   UNL     1       9.365   1.121  -0.181  0.00  0.00    -0.002 A 
ATOM     22  C   UNL     1      10.092   1.476  -1.321  0.00  0.00    +0.013 A 
ATOM     23  C   UNL     1      10.851   2.626  -1.320  0.00  0.00    +0.046 A 
ATOM     24  C   UNL     1      10.905   3.425  -0.185  0.00  0.00    +0.117 A 
ATOM     25  C   UNL     1      10.190   3.072   0.952  0.00  0.00    +0.046 A 
ATOM     26  C   UNL     1       9.422   1.927   0.959  0.00  0.00    +0.013 A 
BRANCH  24  27
ATOM     27  O   UNL     1      11.661   4.554  -0.186  0.00  0.00    -0.507 OA
ATOM     28  H   UNL     1      12.572   4.418   0.106  0.00  0.00    +0.292 HD
ENDBRANCH  24  27
ENDBRANCH  19  21
ENDBRANCH   1  20
TORSDOF 3
