REMARK  Name = ZINC38799138
REMARK  10 active torsions:
REMARK  status: ('A' for Active; 'I' for Inactive)
REMARK    1  A    between atoms: C_1  and  C_2
REMARK    2  A    between atoms: C_2  and  C_3
REMARK    3  A    between atoms: C_3  and  C_4
REMARK    4  A    between atoms: C_6  and  C_10
REMARK    5  A    between atoms: C_10  and  C_11
REMARK    6  A    between atoms: C_11  and  C_12
REMARK    7  A    between atoms: N_14  and  C_15
REMARK    8  A    between atoms: C_15  and  C_16
REMARK    9  A    between atoms: C_16  and  C_18
REMARK   10  A    between atoms: C_16  and  C_25
REMARK                            x       y       z     vdW  Elec       q    Type
REMARK                         _______ _______ _______ _____ _____    ______ ____
ROOT
ATOM      1  C   UNL     1       2.385 -10.489  -1.530  0.00  0.00    +0.069 C 
ENDROOT
BRANCH   1   2
ATOM      2  C   UNL     1       3.566 -11.173  -2.169  0.00  0.00    -0.013 A 
ATOM      3  C   UNL     1       3.517 -12.235  -3.177  0.00  0.00    +0.003 A 
ATOM      4  C   UNL     1       2.482 -12.910  -3.826  0.00  0.00    +0.010 A 
ATOM      5  C   UNL     1       2.775 -13.879  -4.744  0.00  0.00    +0.001 A 
ATOM      6  C   UNL     1       4.094 -14.199  -5.035  0.00  0.00    +0.002 A 
ATOM      7  C   UNL     1       5.131 -13.545  -4.406  0.00  0.00    +0.026 A 
ATOM      8  C   UNL     1       4.856 -12.555  -3.469  0.00  0.00    +0.047 A 
ATOM      9  N   UNL     1       5.647 -11.741  -2.690  0.00  0.00    -0.360 N 
ATOM     10  C   UNL     1       4.862 -10.921  -1.927  0.00  0.00    +0.088 A 
ATOM     11  H   UNL     1       6.617 -11.745  -2.686  0.00  0.00    +0.165 HD
ENDBRANCH   1   2
BRANCH   1  12
ATOM     12  C   UNL     1       2.425 -10.706  -0.039  0.00  0.00    -0.020 A 
ATOM     13  C   UNL     1       3.505 -10.254   0.696  0.00  0.00    +0.006 A 
ATOM     14  C   UNL     1       3.542 -10.453   2.064  0.00  0.00    +0.000 A 
ATOM     15  C   UNL     1       2.499 -11.103   2.697  0.00  0.00    +0.001 A 
ATOM     16  C   UNL     1       1.419 -11.556   1.963  0.00  0.00    +0.020 A 
ATOM     17  C   UNL     1       1.379 -11.352   0.595  0.00  0.00    +0.045 A 
ATOM     18 CL   UNL     1       0.019 -11.914  -0.327  0.00  0.00    -0.083 Cl
ENDBRANCH   1  12
BRANCH   1  19
ATOM     19  C   UNL     1       2.441  -8.990  -1.829  0.00  0.00    +0.117 C 
BRANCH  19  22
ATOM     20  C   UNL     1       1.062  -7.014  -1.460  0.00  0.00    +0.213 C 
ATOM     21  O   UNL     1       1.909  -6.354  -2.024  0.00  0.00    -0.276 OA
ATOM     22  N   UNL     1       1.232  -8.343  -1.310  0.00  0.00    -0.314 N 
ATOM     23  H   UNL     1       0.555  -8.871  -0.860  0.00  0.00    +0.149 HD
BRANCH  20  24
ATOM     24  C   UNL     1      -0.180  -6.349  -0.927  0.00  0.00    +0.100 C 
BRANCH  24  25
ATOM     25  C   UNL     1      -0.125  -4.850  -1.226  0.00  0.00    +0.066 C 
BRANCH  25  28
ATOM     26  C   UNL     1      -1.413  -2.041   0.005  0.00  0.00    +0.103 C 
ATOM     27  N   UNL     1      -1.408  -2.757  -1.065  0.00  0.00    -0.346 N 
ATOM     28  C   UNL     1      -1.386  -4.175  -0.685  0.00  0.00    +0.243 C 
ATOM     29  O   UNL     1      -1.379  -4.179   0.752  0.00  0.00    -0.248 OA
ATOM     30  N   UNL     1      -1.391  -2.812   1.130  0.00  0.00    -0.252 N 
ATOM     31  H   UNL     1      -1.387  -2.479   2.041  0.00  0.00    +0.195 HD
ATOM     32  H   UNL     1      -1.418  -2.416  -1.973  0.00  0.00    +0.163 HD
BRANCH  26  33
ATOM     33  C   UNL     1      -1.433  -0.534   0.013  0.00  0.00    +0.073 C 
BRANCH  33  35
ATOM     34  C   UNL     1      -0.019   1.526   0.010  0.00  0.00    +0.004 C 
ATOM     35  C   UNL     1       0.002  -0.004   0.002  0.00  0.00    +0.004 C 
ENDBRANCH  33  35
ENDBRANCH  26  33
ENDBRANCH  25  28
ENDBRANCH  24  25
ENDBRANCH  20  24
ENDBRANCH  19  22
ENDBRANCH   1  19
TORSDOF 9
