REMARK  Name = ZINC09130675
REMARK  10 active torsions:
REMARK  status: ('A' for Active; 'I' for Inactive)
REMARK    1  A    between atoms: C_1  and  N_2
REMARK    2  A    between atoms: N_2  and  C_3
REMARK    3  A    between atoms: N_2  and  C_4
REMARK    4  A    between atoms: C_4  and  C_5
REMARK    5  A    between atoms: C_5  and  C_6
REMARK    6  A    between atoms: C_6  and  N_7
REMARK    7  A    between atoms: N_7  and  C_8
REMARK    8  A    between atoms: C_10  and  N_25
REMARK    9  A    between atoms: C_11  and  N_24
REMARK   10  A    between atoms: C_31  and  C_33
REMARK                            x       y       z     vdW  Elec       q    Type
REMARK                         _______ _______ _______ _____ _____    ______ ____
ROOT
ATOM      1  C   UNL     1       0.488  -0.480   7.427  0.00  0.00    +0.041 A 
ATOM      2  C   UNL     1       1.432  -1.495   7.272  0.00  0.00    +0.048 A 
ATOM      3  C   UNL     1       2.181  -1.927   8.349  0.00  0.00    +0.053 A 
ATOM      4  C   UNL     1       2.000  -1.347   9.620  0.00  0.00    +0.058 A 
ATOM      5  C   UNL     1       1.060  -0.332   9.790  0.00  0.00    +0.057 A 
ATOM      6  C   UNL     1       0.298   0.111   8.682  0.00  0.00    +0.056 A 
ATOM      7  C   UNL     1      -0.687   1.185   8.860  0.00  0.00    +0.196 C 
ATOM      8  O   UNL     1      -1.520   1.404   8.001  0.00  0.00    -0.287 OA
ATOM      9  C   UNL     1      -0.656   1.997  10.096  0.00  0.00    +0.033 A 
ATOM     10  C   UNL     1      -1.371   3.188  10.179  0.00  0.00    +0.012 A 
ATOM     11  C   UNL     1      -1.331   3.934  11.343  0.00  0.00    +0.001 A 
ATOM     12  C   UNL     1      -0.584   3.505  12.427  0.00  0.00    +0.001 A 
ATOM     13  C   UNL     1       0.132   2.324  12.361  0.00  0.00    +0.012 A 
ATOM     14  C   UNL     1       0.103   1.561  11.198  0.00  0.00    +0.033 A 
ATOM     15  C   UNL     1       0.856   0.288  11.110  0.00  0.00    +0.196 C 
ATOM     16  O   UNL     1       1.311  -0.231  12.111  0.00  0.00    -0.287 OA
ENDROOT
BRANCH   3  17
ATOM     17  N   UNL     1       3.118  -2.940   8.178  0.00  0.00    -0.325 N 
ATOM     18  C   UNL     1       2.735  -4.348   8.348  0.00  0.00    +0.124 C 
ATOM     19  C   UNL     1       3.103  -5.114   7.071  0.00  0.00    +0.127 C 
ATOM     20  N   UNL     1       4.493  -4.795   6.716  0.00  0.00    -0.292 N 
ATOM     21  C   UNL     1       4.875  -3.386   6.545  0.00  0.00    +0.127 C 
ATOM     22  C   UNL     1       4.506  -2.621   7.817  0.00  0.00    +0.124 C 
ATOM     23  C   UNL     1       5.401  -5.777   6.550  0.00  0.00    +0.282 C 
ATOM     24  O   UNL     1       6.574  -5.499   6.383  0.00  0.00    -0.267 OA
BRANCH  23  25
ATOM     25  C   UNL     1       4.976  -7.180   6.571  0.00  0.00    +0.189 A 
ATOM     26  C   UNL     1       5.800  -8.269   6.551  0.00  0.00    +0.054 A 
ATOM     27  C   UNL     1       4.973  -9.402   6.584  0.00  0.00    +0.042 A 
ATOM     28  C   UNL     1       3.696  -8.961   6.622  0.00  0.00    +0.196 A 
ATOM     29  O   UNL     1       3.702  -7.622   6.619  0.00  0.00    -0.458 OA
ENDBRANCH  23  25
ENDBRANCH   3  17
BRANCH   4  30
ATOM     30  N   UNL     1       2.754  -1.785  10.698  0.00  0.00    -0.356 N 
ATOM     31  H   UNL     1       2.761  -1.276  11.524  0.00  0.00    +0.142 HD
ATOM     32  H   UNL     1       3.273  -2.601  10.627  0.00  0.00    +0.142 HD
ENDBRANCH   4  30
BRANCH   1  33
ATOM     33  N   UNL     1      -0.259  -0.054   6.340  0.00  0.00    -0.343 N 
ATOM     34  H   UNL     1      -0.965   0.599   6.462  0.00  0.00    +0.146 HD
BRANCH  33  35
ATOM     35  C   UNL     1       0.019  -0.591   5.005  0.00  0.00    +0.100 C 
BRANCH  35  36
ATOM     36  C   UNL     1      -0.939   0.039   3.992  0.00  0.00    -0.000 C 
BRANCH  36  37
ATOM     37  C   UNL     1      -0.649  -0.522   2.599  0.00  0.00    -0.078 C 
BRANCH  37  39
ATOM     38  C   UNL     1      -1.301   1.524   1.529  0.00  0.00    -0.097 C 
ATOM     39  N   UNL     1      -1.569   0.083   1.626  0.00  0.00    +0.376 N 
ATOM     40  C   UNL     1      -1.372  -0.542   0.311  0.00  0.00    -0.097 C 
ATOM     41  H   UNL     1      -2.521  -0.062   1.928  0.00  0.00    -0.083 HD
ENDBRANCH  37  39
ENDBRANCH  36  37
ENDBRANCH  35  36
ENDBRANCH  33  35
ENDBRANCH   1  33
TORSDOF 8
