REMARK  Name = ZINC33626394
REMARK  7 active torsions:
REMARK  status: ('A' for Active; 'I' for Inactive)
REMARK    1  A    between atoms: C_1  and  C_2
REMARK    2  A    between atoms: C_2  and  C_4
REMARK    3  A    between atoms: C_7  and  N_10
REMARK    4  A    between atoms: C_15  and  C_28
REMARK    5  A    between atoms: C_18  and  C_23
REMARK    6  A    between atoms: C_18  and  C_25
REMARK    7  A    between atoms: C_23  and  O_24
REMARK                            x       y       z     vdW  Elec       q    Type
REMARK                         _______ _______ _______ _____ _____    ______ ____
ROOT
ATOM      1  N   UNL     1       3.874   5.001  -2.906  0.00  0.00    -0.210 N 
ATOM      2  C   UNL     1       3.621   3.779  -2.349  0.00  0.00    +0.229 C 
ATOM      3  O   UNL     1       4.196   2.737  -2.581  0.00  0.00    -0.275 OA
ATOM      4  C   UNL     1       2.489   3.989  -1.393  0.00  0.00    +0.078 C 
ATOM      5  C   UNL     1       2.498   3.361  -0.004  0.00  0.00    -0.020 C 
ATOM      6  N   UNL     1       1.793   4.383   0.837  0.00  0.00    +0.397 N 
ATOM      7  C   UNL     1       1.985   5.718   0.175  0.00  0.00    +0.071 C 
ATOM      8  C   UNL     1       2.893   5.447  -0.949  0.00  0.00    +0.088 C 
ATOM      9  C   UNL     1       3.301   6.033  -2.205  0.00  0.00    +0.229 C 
ATOM     10  O   UNL     1       3.167   7.184  -2.562  0.00  0.00    -0.275 OA
ATOM     11  H   UNL     1       0.723   4.134   0.897  0.00  0.00    -0.083 HD
ATOM     12  H   UNL     1       2.226   4.389   1.848  0.00  0.00    -0.083 HD
ENDROOT
BRANCH   1  16
ATOM     13  C   UNL     1       6.144   5.537  -6.362  0.00  0.00    +0.017 A 
ATOM     14  C   UNL     1       5.930   4.249  -5.854  0.00  0.00    +0.013 A 
ATOM     15  C   UNL     1       5.180   4.077  -4.713  0.00  0.00    +0.024 A 
ATOM     16  C   UNL     1       4.635   5.180  -4.064  0.00  0.00    +0.044 A 
ATOM     17  C   UNL     1       4.840   6.461  -4.567  0.00  0.00    +0.024 A 
ATOM     18  C   UNL     1       5.593   6.644  -5.705  0.00  0.00    +0.013 A 
BRANCH  13  20
ATOM     19  C   UNL     1       7.173   7.112  -8.123  0.00  0.00    +0.091 C 
ATOM     20  C   UNL     1       6.944   5.725  -7.579  0.00  0.00    +0.160 C 
ATOM     21  O   UNL     1       7.421   4.765  -8.146  0.00  0.00    -0.292 OA
ENDBRANCH  13  20
ENDBRANCH   1  16
BRANCH   5  22
ATOM     22  C   UNL     1       1.742   2.057  -0.004  0.00  0.00    -0.022 A 
ATOM     23  C   UNL     1       2.224   0.791  -0.015  0.00  0.00    +0.011 A 
ATOM     24  C   UNL     1       1.333  -0.267  -0.012  0.00  0.00    +0.028 A 
ATOM     25  C   UNL     1       0.002  -0.004   0.002  0.00  0.00    +0.078 A 
ATOM     26  S   UNL     1      -0.022   1.781   0.012  0.00  0.00    -0.083 S 
ATOM     27 CL   UNL     1      -1.331  -1.116   0.009  0.00  0.00    -0.076 Cl
ENDBRANCH   5  22
BRANCH   7  28
ATOM     28  C   UNL     1       2.614   6.693   1.137  0.00  0.00    +0.348 C 
ATOM     29  O   UNL     1       3.462   7.462   0.750  0.00  0.00    -0.248 OA
ATOM     30  O   UNL     1       2.233   6.706   2.424  0.00  0.00    -0.248 OA
ENDBRANCH   7  28
BRANCH   7  31
ATOM     31  C   UNL     1       0.649   6.261  -0.338  0.00  0.00    +0.155 C 
BRANCH  31  32
ATOM     32  O   UNL     1      -0.217   6.517   0.769  0.00  0.00    -0.396 OA
ATOM     33  H   UNL     1      -1.229   6.913   0.595  0.00  0.00    +0.209 HD
ENDBRANCH  31  32
ENDBRANCH   7  31
TORSDOF 6
