REMARK  Name = ZINC22796233
REMARK  7 active torsions:
REMARK  status: ('A' for Active; 'I' for Inactive)
REMARK    1  A    between atoms: C_1  and  N_2
REMARK    2  A    between atoms: C_3  and  C_13
REMARK    3  A    between atoms: C_5  and  C_7
REMARK    4  A    between atoms: C_22  and  C_24
REMARK    5  A    between atoms: C_24  and  N_25
REMARK    6  A    between atoms: N_25  and  C_26
REMARK    7  A    between atoms: C_26  and  C_27
REMARK                            x       y       z     vdW  Elec       q    Type
REMARK                         _______ _______ _______ _____ _____    ______ ____
ROOT
ATOM      1  C   UNL     1       2.058   1.299  -1.312  0.00  0.00    +0.024 C 
ATOM      2  C   UNL     1       1.993  -0.101  -0.694  0.00  0.00    -0.069 C 
ATOM      3  N   UNL     1       1.201  -0.051   0.542  0.00  0.00    +0.381 N 
ATOM      4  C   UNL     1      -0.181   0.366   0.267  0.00  0.00    -0.078 C 
ATOM      5  C   UNL     1      -0.177   1.779  -0.323  0.00  0.00    -0.015 C 
ATOM      6  C   UNL     1       1.273   2.270  -0.422  0.00  0.00    -0.007 C 
ATOM      7  C   UNL     1       1.891   2.256   0.982  0.00  0.00    -0.013 C 
ATOM      8  C   UNL     1       1.830   0.830   1.535  0.00  0.00    -0.086 C 
ATOM      9  H   UNL     1       1.167  -1.067   0.964  0.00  0.00    -0.082 HD
ENDROOT
BRANCH   1  12
ATOM     10  C   UNL     1       3.069   4.144  -1.997  0.00  0.00    +0.172 C 
ATOM     11  N   UNL     1       3.922   2.990  -1.701  0.00  0.00    -0.271 N 
ATOM     12  C   UNL     1       3.495   1.745  -1.401  0.00  0.00    +0.041 A 
ATOM     13  C   UNL     1       4.582   0.971  -1.189  0.00  0.00    +0.053 A 
ATOM     14  C   UNL     1       5.725   1.772  -1.374  0.00  0.00    +0.093 A 
ATOM     15  N   UNL     1       5.323   2.988  -1.679  0.00  0.00    -0.171 NA
BRANCH  14  16
ATOM     16  C   UNL     1       7.135   1.326  -1.243  0.00  0.00    +0.002 A 
ATOM     17  C   UNL     1       7.421   0.004  -0.907  0.00  0.00    +0.010 A 
ATOM     18  C   UNL     1       8.734  -0.406  -0.791  0.00  0.00    +0.001 A 
ATOM     19  C   UNL     1       9.764   0.494  -0.997  0.00  0.00    +0.000 A 
ATOM     20  C   UNL     1       9.485   1.808  -1.326  0.00  0.00    +0.001 A 
ATOM     21  C   UNL     1       8.176   2.228  -1.450  0.00  0.00    +0.010 A 
ENDBRANCH  14  16
ENDBRANCH   1  12
BRANCH   8  22
ATOM     22  C   UNL     1       3.248   0.336   1.831  0.00  0.00    -0.098 C 
BRANCH  22  23
ATOM     23  N   UNL     1       3.198  -1.070   2.255  0.00  0.00    +0.383 N 
ATOM     24  H   UNL     1       2.583  -1.157   3.163  0.00  0.00    -0.085 HD
ATOM     25  H   UNL     1       2.756  -1.680   1.453  0.00  0.00    -0.085 HD
BRANCH  23  26
ATOM     26  C   UNL     1       4.544  -1.579   2.548  0.00  0.00    -0.007 C 
BRANCH  26  27
ATOM     27  C   UNL     1       4.453  -3.020   2.979  0.00  0.00    +0.088 A 
ATOM     28  C   UNL     1       4.511  -4.090   2.166  0.00  0.00    +0.042 A 
ATOM     29  C   UNL     1       4.386  -5.235   2.986  0.00  0.00    +0.041 A 
ATOM     30  C   UNL     1       4.259  -4.796   4.251  0.00  0.00    +0.195 A 
ATOM     31  O   UNL     1       4.306  -3.454   4.242  0.00  0.00    -0.470 OA
ENDBRANCH  26  27
ENDBRANCH  23  26
ENDBRANCH  22  23
ENDBRANCH   8  22
TORSDOF 6
