REMARK  Name = ZINC09379017
REMARK  8 active torsions:
REMARK  status: ('A' for Active; 'I' for Inactive)
REMARK    1  A    between atoms: C_1  and  C_2
REMARK    2  A    between atoms: C_7  and  N_8
REMARK    3  A    between atoms: C_11  and  C_16
REMARK    4  A    between atoms: C_16  and  S_17
REMARK    5  A    between atoms: S_17  and  C_18
REMARK    6  A    between atoms: C_21  and  C_24
REMARK    7  A    between atoms: N_22  and  C_23
REMARK    8  A    between atoms: C_24  and  C_25
REMARK                            x       y       z     vdW  Elec       q    Type
REMARK                         _______ _______ _______ _____ _____    ______ ____
ROOT
ATOM      1  N   UNL     1      12.004   4.483   0.695  0.00  0.00    -0.283 N 
ATOM      2  C   UNL     1      10.993   5.421   0.782  0.00  0.00    +0.224 A 
ATOM      3  N   UNL     1       9.766   5.120   0.363  0.00  0.00    -0.198 NA
ATOM      4  C   UNL     1       8.799   6.017   0.446  0.00  0.00    +0.146 A 
ATOM      5  N   UNL     1       9.047   7.217   0.941  0.00  0.00    -0.199 NA
ATOM      6  C   UNL     1      10.270   7.524   1.367  0.00  0.00    +0.217 A 
ATOM      7  N   UNL     1      11.245   6.625   1.285  0.00  0.00    -0.181 NA
ATOM      8  N   UNL     1      10.527   8.775   1.888  0.00  0.00    -0.327 N 
ATOM      9  H   UNL     1      11.802   3.579   0.408  0.00  0.00    +0.155 HD
ATOM     10  H   UNL     1      11.419   8.999   2.195  0.00  0.00    +0.145 HD
ATOM     11  H   UNL     1       9.815   9.431   1.948  0.00  0.00    +0.145 HD
ENDROOT
BRANCH   1  18
ATOM     12  C   UNL     1      13.784   2.424   1.524  0.00  0.00    +0.045 C 
ATOM     13  C   UNL     1      14.219   3.864   1.429  0.00  0.00    -0.029 A 
ATOM     14  C   UNL     1      15.515   4.218   1.750  0.00  0.00    +0.005 A 
ATOM     15  C   UNL     1      15.915   5.538   1.662  0.00  0.00    +0.000 A 
ATOM     16  C   UNL     1      15.019   6.510   1.254  0.00  0.00    +0.002 A 
ATOM     17  C   UNL     1      13.723   6.162   0.927  0.00  0.00    +0.023 A 
ATOM     18  C   UNL     1      13.317   4.837   1.019  0.00  0.00    +0.036 A 
ENDBRANCH   1  18
BRANCH   4  19
ATOM     19  C   UNL     1       7.412   5.672  -0.030  0.00  0.00    +0.153 C 
BRANCH  19  20
ATOM     20  S   UNL     1       6.462   4.965   1.339  0.00  0.00    -0.078 S 
BRANCH  20  21
ATOM     21  C   UNL     1       4.929   4.664   0.525  0.00  0.00    +0.192 A 
ATOM     22  N   UNL     1       4.650   4.917  -0.733  0.00  0.00    -0.123 NA
ATOM     23  N   UNL     1       3.439   4.572  -0.989  0.00  0.00    -0.134 NA
ATOM     24  C   UNL     1       2.877   4.082   0.080  0.00  0.00    +0.134 A 
ATOM     25  N   UNL     1       3.804   4.128   1.084  0.00  0.00    -0.309 N 
ATOM     26  C   UNL     1       3.628   3.689   2.471  0.00  0.00    +0.152 C 
BRANCH  24  27
ATOM     27  C   UNL     1       1.465   3.567   0.191  0.00  0.00    +0.081 C 
BRANCH  27  28
ATOM     28  C   UNL     1       1.440   2.073  -0.138  0.00  0.00    +0.019 C 
ATOM     29  C   UNL     1      -0.015   1.577  -0.147  0.00  0.00    +0.028 C 
ATOM     30  C   UNL     1       0.004   0.022  -0.169  0.00  0.00    +0.166 C 
ATOM     31  S   UNL     1       1.378  -0.315   1.010  0.00  0.00    -0.031 S 
ATOM     32  O   UNL     1       0.839  -0.481   2.314  0.00  0.00    -0.174 OA
ATOM     33  O   UNL     1       2.216  -1.326   0.466  0.00  0.00    -0.174 OA
ATOM     34  C   UNL     1       2.255   1.299   0.926  0.00  0.00    +0.170 C 
ENDBRANCH  27  28
ENDBRANCH  24  27
ENDBRANCH  20  21
ENDBRANCH  19  20
ENDBRANCH   4  19
TORSDOF 6
