REMARK  Name = ZINC20051847
REMARK  8 active torsions:
REMARK  status: ('A' for Active; 'I' for Inactive)
REMARK    1  A    between atoms: C_1  and  C_2
REMARK    2  A    between atoms: C_2  and  C_4
REMARK    3  A    between atoms: C_2  and  N_14
REMARK    4  A    between atoms: C_15  and  C_17
REMARK    5  A    between atoms: C_17  and  N_18
REMARK    6  A    between atoms: C_21  and  C_25
REMARK    7  A    between atoms: C_21  and  C_26
REMARK    8  A    between atoms: C_29  and  N_32
REMARK                            x       y       z     vdW  Elec       q    Type
REMARK                         _______ _______ _______ _____ _____    ______ ____
ROOT
ATOM      1  N   UNL     1       1.069  -2.183  -0.020  0.00  0.00    -0.215 N 
ATOM      2  C   UNL     1       0.930  -2.924  -1.137  0.00  0.00    +0.251 C 
ATOM      3  O   UNL     1       0.984  -2.535  -2.285  0.00  0.00    -0.272 OA
ATOM      4  C   UNL     1       0.692  -4.343  -0.662  0.00  0.00    +0.135 C 
ATOM      5  N   UNL     1       0.728  -4.227   0.806  0.00  0.00    -0.281 N 
ATOM      6  C   UNL     1       0.958  -2.931   1.084  0.00  0.00    +0.310 C 
ATOM      7  O   UNL     1       1.051  -2.488   2.212  0.00  0.00    -0.252 OA
ATOM      8  C   UNL     1       1.805  -5.270  -1.156  0.00  0.00    +0.047 C 
ATOM      9  H   UNL     1       0.578  -5.119   1.432  0.00  0.00    +0.152 HD
ENDROOT
BRANCH   4  10
ATOM     10  C   UNL     1      -0.655  -4.838  -1.122  0.00  0.00    -0.015 A 
ATOM     11  C   UNL     1      -1.201  -4.361  -2.299  0.00  0.00    +0.008 A 
ATOM     12  C   UNL     1      -2.435  -4.818  -2.724  0.00  0.00    +0.033 A 
ATOM     13  C   UNL     1      -3.127  -5.744  -1.966  0.00  0.00    +0.126 A 
ATOM     14  C   UNL     1      -2.583  -6.217  -0.786  0.00  0.00    +0.033 A 
ATOM     15  C   UNL     1      -1.347  -5.764  -0.364  0.00  0.00    +0.008 A 
BRANCH  13  16
ATOM     16  N   UNL     1      -4.450  -6.229  -2.417  0.00  0.00    +0.056 N 
ATOM     17  O   UNL     1      -5.060  -7.045  -1.749  0.00  0.00    -0.126 OA
ATOM     18  O   UNL     1      -4.930  -5.812  -3.457  0.00  0.00    -0.126 OA
ENDBRANCH  13  16
ENDBRANCH   4  10
BRANCH   1  19
ATOM     19  C   UNL     1       1.317  -0.740  -0.015  0.00  0.00    +0.213 C 
BRANCH  19  21
ATOM     20  N   UNL     1      -0.016   1.344   0.009  0.00  0.00    -0.307 N 
ATOM     21  C   UNL     1       0.002  -0.004   0.002  0.00  0.00    +0.231 C 
ATOM     22  O   UNL     1      -1.040  -0.625   0.009  0.00  0.00    -0.274 OA
ATOM     23  H   UNL     1       0.929   1.907   0.008  0.00  0.00    +0.149 HD
BRANCH  20  25
ATOM     24  C   UNL     1      -1.808   2.206  -1.414  0.00  0.00    +0.033 C 
ATOM     25  C   UNL     1      -1.295   2.059   0.019  0.00  0.00    +0.100 C 
BRANCH  25  26
ATOM     26  C   UNL     1      -1.102   3.425   0.626  0.00  0.00    -0.027 A 
ATOM     27  C   UNL     1       0.035   4.157   0.338  0.00  0.00    +0.006 A 
ATOM     28  C   UNL     1       0.203   5.408   0.895  0.00  0.00    +0.004 A 
ATOM     29  C   UNL     1      -0.755   5.934   1.753  0.00  0.00    -0.044 A 
ATOM     30  C   UNL     1      -1.886   5.203   2.041  0.00  0.00    -0.044 A 
ATOM     31  C   UNL     1      -2.055   3.945   1.476  0.00  0.00    +0.009 A 
ATOM     32  C   UNL     1      -2.970   5.713   2.954  0.00  0.00    +0.035 C 
ATOM     33  C   UNL     1      -2.453   6.869   3.809  0.00  0.00    +0.005 C 
ATOM     34  C   UNL     1      -1.796   7.899   2.882  0.00  0.00    +0.005 C 
ATOM     35  C   UNL     1      -0.501   7.299   2.336  0.00  0.00    +0.035 C 
ENDBRANCH  25  26
ENDBRANCH  20  25
ENDBRANCH  19  21
ENDBRANCH   1  19
TORSDOF 6
