REMARK  Name = ZINC18243713
REMARK  6 active torsions:
REMARK  status: ('A' for Active; 'I' for Inactive)
REMARK    1  A    between atoms: C_1  and  N_2
REMARK    2  A    between atoms: C_3  and  C_21
REMARK    3  A    between atoms: C_6  and  S_7
REMARK    4  A    between atoms: S_7  and  C_8
REMARK    5  A    between atoms: C_8  and  C_9
REMARK    6  A    between atoms: C_26  and  O_27
REMARK                            x       y       z     vdW  Elec       q    Type
REMARK                         _______ _______ _______ _____ _____    ______ ____
ROOT
ATOM      1  C   UNL     1      -5.904   1.079  -0.068  0.00  0.00    +0.153 C 
ATOM      2  N   UNL     1      -5.361  -0.281  -0.007  0.00  0.00    -0.305 N 
ATOM      3  C   UNL     1      -6.057  -1.460  -0.140  0.00  0.00    +0.168 A 
ATOM      4  N   UNL     1      -5.187  -2.436  -0.019  0.00  0.00    -0.128 NA
ATOM      5  N   UNL     1      -4.011  -1.955   0.172  0.00  0.00    -0.122 NA
ATOM      6  C   UNL     1      -4.059  -0.642   0.195  0.00  0.00    +0.192 A 
ENDROOT
BRANCH   3   7
ATOM      7  C   UNL     1      -7.509  -1.602  -0.375  0.00  0.00    +0.062 A 
ATOM      8  C   UNL     1      -8.140  -0.829  -1.350  0.00  0.00    +0.030 A 
ATOM      9  C   UNL     1      -9.496  -0.970  -1.568  0.00  0.00    +0.019 A 
ATOM     10  C   UNL     1     -10.235  -1.867  -0.814  0.00  0.00    +0.019 A 
ATOM     11  C   UNL     1      -9.620  -2.634   0.158  0.00  0.00    +0.047 A 
ATOM     12  C   UNL     1      -8.259  -2.508   0.385  0.00  0.00    +0.128 A 
ATOM     13 BR   UNL     1     -10.350   0.072  -2.895  0.00  0.00    -0.050 Br
BRANCH  12  14
ATOM     14  O   UNL     1      -7.655  -3.261   1.340  0.00  0.00    -0.506 OA
ATOM     15  H   UNL     1      -7.638  -2.848   2.214  0.00  0.00    +0.292 HD
ENDBRANCH  12  14
ENDBRANCH   3   7
BRANCH   6  16
ATOM     16  S   UNL     1      -2.697   0.450   0.433  0.00  0.00    -0.078 S 
BRANCH  16  17
ATOM     17  C   UNL     1      -1.359  -0.754   0.625  0.00  0.00    +0.151 C 
BRANCH  17  18
ATOM     18  C   UNL     1      -0.057  -0.028   0.846  0.00  0.00    +0.121 A 
ATOM     19  N   UNL     1       1.072  -0.765   1.013  0.00  0.00    -0.310 N 
ATOM     20  H   UNL     1       1.022  -1.734   0.988  0.00  0.00    +0.170 HD
ATOM     21  C   UNL     1       2.266  -0.161   1.215  0.00  0.00    +0.259 A 
ATOM     22  O   UNL     1       3.285  -0.809   1.366  0.00  0.00    -0.267 OA
ATOM     23  C   UNL     1       2.284   1.309   1.244  0.00  0.00    +0.065 A 
ATOM     24  C   UNL     1       3.460   2.028   1.446  0.00  0.00    +0.015 A 
ATOM     25  C   UNL     1       3.420   3.405   1.465  0.00  0.00    +0.001 A 
ATOM     26  C   UNL     1       2.219   4.079   1.285  0.00  0.00    +0.002 A 
ATOM     27  C   UNL     1       1.045   3.387   1.085  0.00  0.00    +0.028 A 
ATOM     28  C   UNL     1       1.060   1.991   1.062  0.00  0.00    +0.078 A 
ATOM     29  N   UNL     1      -0.072   1.270   0.868  0.00  0.00    -0.233 NA
ENDBRANCH  17  18
ENDBRANCH  16  17
ENDBRANCH   6  16
TORSDOF 5
