REMARK  Name = ZINC27100078
REMARK  10 active torsions:
REMARK  status: ('A' for Active; 'I' for Inactive)
REMARK    1  A    between atoms: C_1  and  C_2
REMARK    2  A    between atoms: C_2  and  O_3
REMARK    3  A    between atoms: O_3  and  C_4
REMARK    4  A    between atoms: C_4  and  C_6
REMARK    5  A    between atoms: C_9  and  O_12
REMARK    6  A    between atoms: O_12  and  C_13
REMARK    7  A    between atoms: C_22  and  O_38
REMARK    8  A    between atoms: C_23  and  C_24
REMARK    9  A    between atoms: C_24  and  N_25
REMARK   10  A    between atoms: C_30  and  C_32
REMARK                            x       y       z     vdW  Elec       q    Type
REMARK                         _______ _______ _______ _____ _____    ______ ____
ROOT
ATOM      1  C   UNL     1       5.790   3.314  -1.273  0.00  0.00    +0.210 A 
ATOM      2  C   UNL     1       5.300   2.649  -2.337  0.00  0.00    +0.245 A 
ATOM      3  O   UNL     1       4.253   1.817  -2.253  0.00  0.00    -0.459 OA
ATOM      4  C   UNL     1       3.608   1.583  -1.092  0.00  0.00    +0.143 A 
ATOM      5  C   UNL     1       4.034   2.224   0.085  0.00  0.00    +0.068 A 
ATOM      6  C   UNL     1       5.185   3.140   0.004  0.00  0.00    +0.235 A 
ATOM      7  O   UNL     1       5.601   3.725   0.990  0.00  0.00    -0.283 OA
ATOM      8  C   UNL     1       3.375   1.988   1.292  0.00  0.00    +0.019 A 
ATOM      9  C   UNL     1       2.308   1.136   1.327  0.00  0.00    +0.046 A 
ATOM     10  C   UNL     1       1.883   0.492   0.167  0.00  0.00    +0.122 A 
ATOM     11  C   UNL     1       2.527   0.715  -1.039  0.00  0.00    +0.020 A 
ENDROOT
BRANCH  10  12
ATOM     12  O   UNL     1       0.825  -0.356   0.218  0.00  0.00    -0.506 OA
ATOM     13  H   UNL     1       0.485  -0.867  -0.695  0.00  0.00    +0.292 HD
ENDBRANCH  10  12
BRANCH   1  14
ATOM     14  O   UNL     1       6.857   4.146  -1.417  0.00  0.00    -0.449 OA
BRANCH  14  18
ATOM     15  C   UNL     1       8.479   4.582  -5.188  0.00  0.00    +0.059 A 
ATOM     16  C   UNL     1       7.453   5.432  -4.763  0.00  0.00    +0.018 A 
ATOM     17  C   UNL     1       6.915   5.283  -3.505  0.00  0.00    +0.047 A 
ATOM     18  C   UNL     1       7.390   4.290  -2.656  0.00  0.00    +0.129 A 
ATOM     19  C   UNL     1       8.414   3.446  -3.072  0.00  0.00    +0.047 A 
ATOM     20  C   UNL     1       8.954   3.584  -4.331  0.00  0.00    +0.018 A 
BRANCH  15  21
ATOM     21  C   UNL     1       9.058   4.737  -6.535  0.00  0.00    +0.339 C 
ATOM     22  O   UNL     1       8.643   5.605  -7.278  0.00  0.00    -0.245 OA
BRANCH  21  23
ATOM     23  O   UNL     1      10.046   3.917  -6.942  0.00  0.00    -0.461 OA
BRANCH  23  25
ATOM     24  C   UNL     1      11.675   3.110  -8.562  0.00  0.00    +0.048 C 
ATOM     25  C   UNL     1      10.569   4.128  -8.280  0.00  0.00    +0.229 C 
ENDBRANCH  23  25
ENDBRANCH  21  23
ENDBRANCH  15  21
ENDBRANCH  14  18
ENDBRANCH   1  14
BRANCH  11  26
ATOM     26  C   UNL     1       2.054   0.019  -2.289  0.00  0.00    -0.035 C 
BRANCH  26  27
ATOM     27  N   UNL     1       1.042   0.847  -2.958  0.00  0.00    +0.388 N 
ATOM     28  C   UNL     1       1.472   2.249  -3.027  0.00  0.00    -0.077 C 
ATOM     29  C   UNL     1       0.337   3.105  -3.596  0.00  0.00    -0.019 C 
ATOM     30  C   UNL     1      -0.029   2.594  -4.993  0.00  0.00    -0.003 C 
ATOM     31  C   UNL     1      -0.427   1.119  -4.900  0.00  0.00    -0.009 C 
ATOM     32  C   UNL     1       0.730   0.321  -4.293  0.00  0.00    -0.018 C 
ATOM     33  H   UNL     1       0.120   0.808  -2.359  0.00  0.00    -0.080 HD
BRANCH  32  34
ATOM     34  C   UNL     1       0.336  -1.129  -4.182  0.00  0.00    +0.028 A 
ATOM     35  C   UNL     1       0.498  -1.967  -5.270  0.00  0.00    +0.021 A 
ATOM     36  C   UNL     1       0.133  -3.299  -5.157  0.00  0.00    +0.003 A 
ATOM     37  C   UNL     1      -0.385  -3.742  -3.948  0.00  0.00    +0.020 A 
ATOM     38  C   UNL     1      -0.518  -2.846  -2.905  0.00  0.00    +0.111 A 
ATOM     39  N   UNL     1      -0.155  -1.586  -3.046  0.00  0.00    -0.262 NA
ENDBRANCH  32  34
ENDBRANCH  26  27
ENDBRANCH  11  26
TORSDOF 9
