REMARK  Name = ZINC07708589
REMARK  7 active torsions:
REMARK  status: ('A' for Active; 'I' for Inactive)
REMARK    1  A    between atoms: C_4  and  C_7
REMARK    2  A    between atoms: C_7  and  C_8
REMARK    3  A    between atoms: C_13  and  N_14
REMARK    4  A    between atoms: N_14  and  S_15
REMARK    5  A    between atoms: S_15  and  C_18
REMARK    6  A    between atoms: C_21  and  S_24
REMARK    7  A    between atoms: S_24  and  N_27
REMARK                            x       y       z     vdW  Elec       q    Type
REMARK                         _______ _______ _______ _____ _____    ______ ____
ROOT
ATOM      1  N   UNL     1      -2.229  -0.306   1.124  0.00  0.00    -0.216 N 
ATOM      2  H   UNL     1      -1.570  -0.924   0.768  0.00  0.00    +0.174 HD
ENDROOT
BRANCH   1   8
ATOM      3  C   UNL     1      -0.769   1.609   0.959  0.00  0.00    -0.021 A 
ATOM      4  C   UNL     1      -0.383   2.860   1.400  0.00  0.00    +0.006 A 
ATOM      5  C   UNL     1      -1.049   3.459   2.453  0.00  0.00    +0.000 A 
ATOM      6  C   UNL     1      -2.105   2.810   3.067  0.00  0.00    +0.002 A 
ATOM      7  C   UNL     1      -2.496   1.560   2.631  0.00  0.00    +0.025 A 
ATOM      8  C   UNL     1      -1.832   0.956   1.571  0.00  0.00    +0.052 A 
BRANCH   3   9
ATOM      9  C   UNL     1      -0.043   0.956  -0.188  0.00  0.00    +0.072 C 
BRANCH   9  13
ATOM     10  C   UNL     1      -2.121   1.760  -3.833  0.00  0.00    +0.000 A 
ATOM     11  C   UNL     1      -1.133   2.623  -3.395  0.00  0.00    +0.000 A 
ATOM     12  C   UNL     1      -0.461   2.363  -2.216  0.00  0.00    +0.004 A 
ATOM     13  C   UNL     1      -0.776   1.240  -1.474  0.00  0.00    -0.043 A 
ATOM     14  C   UNL     1      -1.760   0.374  -1.914  0.00  0.00    +0.004 A 
ATOM     15  C   UNL     1      -2.436   0.637  -3.091  0.00  0.00    +0.000 A 
ENDBRANCH   9  13
ENDBRANCH   3   9
ENDBRANCH   1   8
BRANCH   1  16
ATOM     16  S   UNL     1      -3.823  -0.749   1.200  0.00  0.00    +0.072 S 
ATOM     17  O   UNL     1      -3.927  -2.006   0.547  0.00  0.00    -0.150 OA
ATOM     18  O   UNL     1      -4.234  -0.553   2.546  0.00  0.00    -0.150 OA
BRANCH  16  19
ATOM     19  C   UNL     1      -4.731   0.404   0.224  0.00  0.00    +0.109 A 
ATOM     20  C   UNL     1      -5.239   1.551   0.804  0.00  0.00    +0.031 A 
ATOM     21  C   UNL     1      -5.948   2.457   0.037  0.00  0.00    +0.030 A 
ATOM     22  C   UNL     1      -6.155   2.211  -1.308  0.00  0.00    +0.105 A 
ATOM     23  C   UNL     1      -5.651   1.061  -1.886  0.00  0.00    +0.030 A 
ATOM     24  C   UNL     1      -4.939   0.157  -1.120  0.00  0.00    +0.031 A 
BRANCH  22  25
ATOM     25  S   UNL     1      -7.062   3.364  -2.284  0.00  0.00    +0.056 S 
ATOM     26  O   UNL     1      -6.958   4.621  -1.630  0.00  0.00    -0.153 OA
ATOM     27  O   UNL     1      -6.650   3.169  -3.630  0.00  0.00    -0.153 OA
BRANCH  25  28
ATOM     28  N   UNL     1      -8.656   2.922  -2.209  0.00  0.00    -0.204 NA
ATOM     29  H   UNL     1      -8.921   2.147  -1.688  0.00  0.00    +0.144 HD
ATOM     30  H   UNL     1      -9.325   3.437  -2.686  0.00  0.00    +0.144 HD
ENDBRANCH  25  28
ENDBRANCH  22  25
ENDBRANCH  16  19
ENDBRANCH   1  16
TORSDOF 7
