REMARK  Name = ZINC21759184
REMARK  9 active torsions:
REMARK  status: ('A' for Active; 'I' for Inactive)
REMARK    1  A    between atoms: C_1  and  C_2
REMARK    2  A    between atoms: C_4  and  C_7
REMARK    3  A    between atoms: C_10  and  C_12
REMARK    4  A    between atoms: C_12  and  N_13
REMARK    5  A    between atoms: C_14  and  C_16
REMARK    6  A    between atoms: C_16  and  N_17
REMARK    7  A    between atoms: C_22  and  C_29
REMARK    8  A    between atoms: C_25  and  C_27
REMARK    9  A    between atoms: C_25  and  C_28
REMARK                            x       y       z     vdW  Elec       q    Type
REMARK                         _______ _______ _______ _____ _____    ______ ____
ROOT
ATOM      1  C   UNL     1      -2.476   1.500   0.228  0.00  0.00    +0.213 C 
ENDROOT
BRANCH   1   2
ATOM      2  N   UNL     1      -1.114   1.993   0.017  0.00  0.00    -0.215 N 
ATOM      3  C   UNL     1      -0.014   1.208   0.009  0.00  0.00    +0.247 C 
ATOM      4  O   UNL     1       0.002  -0.004   0.002  0.00  0.00    -0.273 OA
ATOM      5  C   UNL     1       1.160   2.157   0.003  0.00  0.00    +0.113 C 
ATOM      6  C   UNL     1       2.125   1.813  -1.123  0.00  0.00    +0.038 C 
ATOM      7  C   UNL     1       2.905   0.544  -0.773  0.00  0.00    -0.011 C 
ATOM      8  C   UNL     1       3.726   0.807   0.487  0.00  0.00    +0.009 C 
ATOM      9  C   UNL     1       2.820   1.133   1.670  0.00  0.00    -0.032 C 
ATOM     10  C   UNL     1       1.831   2.242   1.357  0.00  0.00    +0.041 C 
ATOM     11  C   UNL     1       3.718   1.605   2.834  0.00  0.00    +0.011 C 
ATOM     12  C   UNL     1       2.090  -0.130   2.135  0.00  0.00    +0.011 C 
ATOM     13  C   UNL     1       3.848   0.197  -1.929  0.00  0.00    +0.007 C 
ATOM     14  N   UNL     1       0.529   3.463  -0.295  0.00  0.00    -0.285 N 
ATOM     15  C   UNL     1      -0.797   3.276  -0.189  0.00  0.00    +0.310 C 
ATOM     16  O   UNL     1      -1.617   4.170  -0.270  0.00  0.00    -0.252 OA
ATOM     17  H   UNL     1       1.156   4.333  -0.540  0.00  0.00    +0.151 HD
ENDBRANCH   1   2
BRANCH   1  19
ATOM     18  N   UNL     1      -4.004   1.108   2.133  0.00  0.00    -0.307 N 
ATOM     19  C   UNL     1      -2.797   1.521   1.700  0.00  0.00    +0.231 C 
ATOM     20  O   UNL     1      -1.968   1.910   2.495  0.00  0.00    -0.274 OA
ATOM     21  H   UNL     1      -4.756   0.755   1.412  0.00  0.00    +0.149 HD
BRANCH  18  22
ATOM     22  C   UNL     1      -4.316   1.129   3.564  0.00  0.00    +0.178 C 
BRANCH  22  26
ATOM     23  C   UNL     1      -7.902   0.589   4.015  0.00  0.00    +0.154 A 
ATOM     24  C   UNL     1      -7.467  -0.692   4.143  0.00  0.00    +0.052 A 
ATOM     25  C   UNL     1      -6.065  -0.662   3.992  0.00  0.00    +0.047 A 
ATOM     26  C   UNL     1      -5.718   0.622   3.781  0.00  0.00    +0.123 A 
ATOM     27  O   UNL     1      -6.830   1.377   3.801  0.00  0.00    -0.457 OA
BRANCH  23  31
ATOM     28  C   UNL     1     -12.773  -0.254   4.644  0.00  0.00    +0.073 C 
ATOM     29  C   UNL     1     -11.538   0.573   4.400  0.00  0.00    +0.076 A 
ATOM     30  N   UNL     1     -10.290   0.180   4.316  0.00  0.00    -0.241 NA
ATOM     31  C   UNL     1      -9.307   1.041   4.101  0.00  0.00    +0.113 A 
ATOM     32  C   UNL     1      -9.635   2.365   3.956  0.00  0.00    +0.078 A 
ATOM     33  S   UNL     1     -11.409   2.287   4.153  0.00  0.00    -0.080 S 
ENDBRANCH  23  31
ENDBRANCH  22  26
ENDBRANCH  18  22
ENDBRANCH   1  19
TORSDOF 5
