REMARK  Name = ZINC12798100
REMARK  6 active torsions:
REMARK  status: ('A' for Active; 'I' for Inactive)
REMARK    1  A    between atoms: C_1  and  C_2
REMARK    2  A    between atoms: C_2  and  C_4
REMARK    3  A    between atoms: C_2  and  N_12
REMARK    4  A    between atoms: N_12  and  C_13
REMARK    5  A    between atoms: C_16  and  C_19
REMARK    6  A    between atoms: C_19  and  C_20
REMARK                            x       y       z     vdW  Elec       q    Type
REMARK                         _______ _______ _______ _____ _____    ______ ____
ROOT
ATOM      1  C   UNL     1       1.344   8.904   3.763  0.00  0.00    +0.028 A 
ATOM      2  C   UNL     1       2.264   8.546   2.785  0.00  0.00    +0.023 A 
ATOM      3  C   UNL     1       1.829   8.228   1.513  0.00  0.00    +0.006 A 
ATOM      4  C   UNL     1       0.479   8.264   1.213  0.00  0.00    -0.041 A 
ATOM      5  C   UNL     1      -0.438   8.625   2.183  0.00  0.00    +0.006 A 
ATOM      6  C   UNL     1      -0.010   8.940   3.458  0.00  0.00    +0.023 A 
ENDROOT
BRANCH   1   7
ATOM      7  N   UNL     1       1.781   9.227   5.049  0.00  0.00    -0.333 N 
ATOM      8  H   UNL     1       2.728   9.202   5.261  0.00  0.00    +0.147 HD
BRANCH   7  10
ATOM      9  C   UNL     1       0.255   8.342   6.743  0.00  0.00    +0.038 C 
ATOM     10  C   UNL     1       0.810   9.604   6.079  0.00  0.00    +0.154 C 
BRANCH  10  11
ATOM     11  C   UNL     1       1.486  10.462   7.117  0.00  0.00    +0.243 C 
ATOM     12  O   UNL     1       2.685  10.382   7.283  0.00  0.00    -0.273 OA
ATOM     13  N   UNL     1       0.759  11.318   7.862  0.00  0.00    -0.223 N 
ATOM     14  C   UNL     1       1.305  12.283   8.829  0.00  0.00    +0.137 C 
ATOM     15  C   UNL     1       0.057  12.996   9.383  0.00  0.00    +0.125 C 
ATOM     16  N   UNL     1      -1.060  12.351   8.677  0.00  0.00    -0.297 N 
ATOM     17  C   UNL     1      -0.576  11.422   7.843  0.00  0.00    +0.309 C 
ATOM     18  O   UNL     1      -1.284  10.736   7.132  0.00  0.00    -0.252 OA
ATOM     19  H   UNL     1      -1.999  12.565   8.797  0.00  0.00    +0.150 HD
ENDBRANCH  10  11
ENDBRANCH   7  10
ENDBRANCH   1   7
BRANCH   4  20
ATOM     20  C   UNL     1       0.008   7.916  -0.175  0.00  0.00    +0.098 C 
BRANCH  20  21
ATOM     21  C   UNL     1      -0.271   6.438  -0.255  0.00  0.00    +0.084 A 
ATOM     22  N   UNL     1      -1.388   5.811  -0.011  0.00  0.00    -0.244 NA
ATOM     23  C   UNL     1      -1.507   4.472  -0.121  0.00  0.00    +0.078 A 
ATOM     24  C   UNL     1      -2.638   3.657   0.106  0.00  0.00    +0.029 A 
ATOM     25  C   UNL     1      -2.568   2.309  -0.062  0.00  0.00    +0.002 A 
ATOM     26  C   UNL     1      -1.391   1.684  -0.450  0.00  0.00    +0.001 A 
ATOM     27  C   UNL     1      -0.262   2.446  -0.682  0.00  0.00    +0.017 A 
ATOM     28  C   UNL     1      -0.324   3.809  -0.520  0.00  0.00    +0.039 A 
ATOM     29  S   UNL     1       0.817   5.158  -0.694  0.00  0.00    -0.072 S 
ENDBRANCH  20  21
ENDBRANCH   4  20
TORSDOF 5
