REMARK  Name = ZINC20600106
REMARK  9 active torsions:
REMARK  status: ('A' for Active; 'I' for Inactive)
REMARK    1  A    between atoms: C_3  and  C_7
REMARK    2  A    between atoms: C_7  and  C_9
REMARK    3  A    between atoms: C_7  and  N_31
REMARK    4  A    between atoms: C_9  and  N_10
REMARK    5  A    between atoms: C_11  and  C_17
REMARK    6  A    between atoms: C_17  and  C_18
REMARK    7  A    between atoms: C_18  and  N_19
REMARK    8  A    between atoms: N_19  and  C_20
REMARK    9  A    between atoms: C_20  and  C_21
REMARK                            x       y       z     vdW  Elec       q    Type
REMARK                         _______ _______ _______ _____ _____    ______ ____
ROOT
ATOM      1  N   UNL     1      -1.873   0.629  -1.489  0.00  0.00    -0.297 N 
ATOM      2  C   UNL     1      -0.659   1.431  -1.297  0.00  0.00    +0.075 C 
ATOM      3  C   UNL     1       0.331   0.947  -2.380  0.00  0.00    +0.031 C 
ATOM      4  C   UNL     1      -0.629   0.401  -3.462  0.00  0.00    +0.098 C 
ATOM      5  C   UNL     1      -1.885   0.043  -2.699  0.00  0.00    +0.216 C 
ATOM      6  O   UNL     1      -2.774  -0.668  -3.118  0.00  0.00    -0.276 OA
ENDROOT
BRANCH   1   7
ATOM      7  C   UNL     1      -2.935   0.484  -0.490  0.00  0.00    +0.131 C 
BRANCH   7   8
ATOM      8  C   UNL     1      -2.562  -0.627   0.493  0.00  0.00    +0.106 C 
BRANCH   8  11
ATOM      9  C   UNL     1      -4.614  -0.671   3.660  0.00  0.00    +0.020 A 
ATOM     10  C   UNL     1      -3.547  -0.467   2.799  0.00  0.00    +0.008 A 
ATOM     11  C   UNL     1      -3.692  -0.833   1.469  0.00  0.00    -0.011 A 
ATOM     12  C   UNL     1      -4.883  -1.396   1.052  0.00  0.00    +0.116 A 
ATOM     13  N   UNL     1      -5.876  -1.579   1.900  0.00  0.00    -0.263 NA
ATOM     14  C   UNL     1      -5.776  -1.238   3.170  0.00  0.00    +0.111 A 
ENDBRANCH   8  11
BRANCH   8  15
ATOM     15  N   UNL     1      -2.319  -1.873  -0.245  0.00  0.00    -0.290 NA
ATOM     16  C   UNL     1      -2.606  -3.046   0.593  0.00  0.00    +0.113 C 
ATOM     17  C   UNL     1      -2.397  -4.319  -0.232  0.00  0.00    +0.175 C 
ATOM     18  O   UNL     1      -1.063  -4.335  -0.746  0.00  0.00    -0.377 OA
ATOM     19  C   UNL     1      -0.749  -3.207  -1.567  0.00  0.00    +0.175 C 
ATOM     20  C   UNL     1      -0.941  -1.923  -0.756  0.00  0.00    +0.113 C 
ENDBRANCH   8  15
ENDBRANCH   7   8
ENDBRANCH   1   7
BRANCH   2  21
ATOM     21  C   UNL     1      -0.079   1.188   0.098  0.00  0.00    +0.003 C 
BRANCH  21  22
ATOM     22  C   UNL     1       1.143   2.084   0.305  0.00  0.00    -0.080 C 
BRANCH  22  23
ATOM     23  N   UNL     1       1.769   1.768   1.596  0.00  0.00    +0.382 N 
ATOM     24  H   UNL     1       1.046   1.942   2.406  0.00  0.00    -0.085 HD
ATOM     25  H   UNL     1       2.082   0.714   1.604  0.00  0.00    -0.085 HD
BRANCH  23  26
ATOM     26  C   UNL     1       2.949   2.611   1.829  0.00  0.00    -0.045 C 
BRANCH  26  27
ATOM     27  C   UNL     1       3.563   2.259   3.160  0.00  0.00    -0.042 A 
ATOM     28  C   UNL     1       4.728   1.516   3.208  0.00  0.00    +0.052 A 
ATOM     29  C   UNL     1       5.296   1.196   4.429  0.00  0.00    +0.167 A 
ATOM     30  C   UNL     1       4.686   1.615   5.609  0.00  0.00    +0.168 A 
ATOM     31  C   UNL     1       3.516   2.354   5.555  0.00  0.00    +0.069 A 
ATOM     32  C   UNL     1       2.956   2.676   4.331  0.00  0.00    +0.046 A 
ATOM     33 CL   UNL     1       1.490   3.603   4.266  0.00  0.00    -0.083 Cl
ATOM     34  O   UNL     1       5.429   1.172   6.665  0.00  0.00    -0.453 OA
ATOM     35  C   UNL     1       6.273   0.134   6.134  0.00  0.00    +0.466 C 
ATOM     36  O   UNL     1       6.422   0.491   4.747  0.00  0.00    -0.453 OA
ENDBRANCH  26  27
ENDBRANCH  23  26
ENDBRANCH  22  23
ENDBRANCH  21  22
ENDBRANCH   2  21
TORSDOF 9
