REMARK  Name = ZINC21244453
REMARK  7 active torsions:
REMARK  status: ('A' for Active; 'I' for Inactive)
REMARK    1  A    between atoms: C_1  and  N_2
REMARK    2  A    between atoms: N_2  and  C_3
REMARK    3  A    between atoms: N_2  and  C_4
REMARK    4  A    between atoms: C_7  and  C_10
REMARK    5  A    between atoms: C_15  and  C_25
REMARK    6  A    between atoms: C_28  and  O_34
REMARK    7  A    between atoms: C_29  and  N_31
REMARK                            x       y       z     vdW  Elec       q    Type
REMARK                         _______ _______ _______ _____ _____    ______ ____
ROOT
ATOM      1  C   UNL     1      -0.272   1.355  -0.883  0.00  0.00    +0.032 C 
ATOM      2  C   UNL     1      -1.728   0.900  -0.964  0.00  0.00    +0.059 C 
ATOM      3  C   UNL     1      -2.527   1.519   0.170  0.00  0.00    +0.017 C 
ATOM      4  C   UNL     1      -1.948   1.766   1.357  0.00  0.00    +0.036 C 
ATOM      5  C   UNL     1      -2.624   2.370   2.564  0.00  0.00    +0.136 C 
ATOM      6  N   UNL     1      -4.066   2.451   2.469  0.00  0.00    -0.331 N 
ATOM      7  C   UNL     1      -4.678   3.261   1.514  0.00  0.00    +0.049 A 
ATOM      8  C   UNL     1      -5.445   4.356   1.878  0.00  0.00    +0.025 A 
ATOM      9  C   UNL     1      -5.995   5.158   0.893  0.00  0.00    +0.002 A 
ATOM     10  C   UNL     1      -5.779   4.874  -0.443  0.00  0.00    +0.002 A 
ATOM     11  C   UNL     1      -5.027   3.771  -0.810  0.00  0.00    +0.025 A 
ATOM     12  C   UNL     1      -4.496   2.955   0.174  0.00  0.00    +0.052 A 
ATOM     13  N   UNL     1      -3.829   1.771  -0.122  0.00  0.00    -0.316 N 
ATOM     14  C   UNL     1      -0.575   1.468   1.560  0.00  0.00    +0.163 C 
ATOM     15  O   UNL     1      -0.079   1.679   2.649  0.00  0.00    -0.292 OA
ATOM     16  C   UNL     1       0.285   0.901   0.471  0.00  0.00    +0.088 C 
ATOM     17  H   UNL     1      -4.696   1.867   3.156  0.00  0.00    +0.147 HD
ATOM     18  H   UNL     1      -4.436   1.008  -0.632  0.00  0.00    +0.152 HD
ENDROOT
BRANCH   1  22
ATOM     19  C   UNL     1       1.984  -0.425  -4.048  0.00  0.00    +0.029 A 
ATOM     20  C   UNL     1       1.920   0.958  -3.931  0.00  0.00    +0.023 A 
ATOM     21  C   UNL     1       1.190   1.530  -2.907  0.00  0.00    +0.006 A 
ATOM     22  C   UNL     1       0.523   0.728  -1.999  0.00  0.00    -0.043 A 
ATOM     23  C   UNL     1       0.590  -0.649  -2.109  0.00  0.00    +0.006 A 
ATOM     24  C   UNL     1       1.313  -1.228  -3.134  0.00  0.00    +0.023 A 
BRANCH  19  26
ATOM     25  C   UNL     1       3.427  -0.158  -6.045  0.00  0.00    +0.129 C 
ATOM     26  N   UNL     1       2.720  -1.007  -5.082  0.00  0.00    -0.336 N 
ATOM     27  C   UNL     1       2.787  -2.465  -5.204  0.00  0.00    +0.129 C 
ENDBRANCH  19  26
ENDBRANCH   1  22
BRANCH   5  28
ATOM     28  C   UNL     1      -2.081   3.761   2.769  0.00  0.00    -0.020 A 
ATOM     29  C   UNL     1      -2.287   4.731   1.805  0.00  0.00    +0.009 A 
ATOM     30  C   UNL     1      -1.795   6.009   1.993  0.00  0.00    +0.048 A 
ATOM     31  C   UNL     1      -1.084   6.315   3.144  0.00  0.00    +0.147 A 
ATOM     32  C   UNL     1      -0.874   5.338   4.107  0.00  0.00    +0.168 A 
ATOM     33  C   UNL     1      -1.373   4.064   3.917  0.00  0.00    +0.042 A 
BRANCH  32  34
ATOM     34  N   UNL     1      -0.115   5.662   5.336  0.00  0.00    +0.060 N 
ATOM     35  O   UNL     1       0.070   4.804   6.181  0.00  0.00    -0.126 OA
ATOM     36  O   UNL     1       0.324   6.785   5.503  0.00  0.00    -0.126 OA
ENDBRANCH  32  34
BRANCH  31  37
ATOM     37  O   UNL     1      -0.595   7.569   3.329  0.00  0.00    -0.504 OA
ATOM     38  H   UNL     1      -0.031   7.811   4.242  0.00  0.00    +0.292 HD
ENDBRANCH  31  37
ENDBRANCH   5  28
TORSDOF 5
