REMARK  Name = ZINC38965155
REMARK  8 active torsions:
REMARK  status: ('A' for Active; 'I' for Inactive)
REMARK    1  A    between atoms: C_1  and  C_2
REMARK    2  A    between atoms: C_2  and  C_4
REMARK    3  A    between atoms: C_4  and  S_5
REMARK    4  A    between atoms: S_5  and  C_6
REMARK    5  A    between atoms: C_10  and  C_13
REMARK    6  A    between atoms: C_13  and  C_15
REMARK    7  A    between atoms: C_13  and  N_25
REMARK    8  A    between atoms: C_15  and  C_16
REMARK                            x       y       z     vdW  Elec       q    Type
REMARK                         _______ _______ _______ _____ _____    ______ ____
ROOT
ATOM      1  C   UNL     1      -4.246  -4.585  -0.531  0.00  0.00    -0.025 C 
ENDROOT
BRANCH   1   5
ATOM      2  C   UNL     1      -3.553  -1.675   1.512  0.00  0.00    +0.262 C 
ATOM      3  N   UNL     1      -4.412  -1.109   0.446  0.00  0.00    -0.218 NA
ATOM      4  N   UNL     1      -5.023  -2.257  -0.226  0.00  0.00    -0.228 NA
ATOM      5  C   UNL     1      -4.502  -3.457   0.469  0.00  0.00    +0.188 C 
ATOM      6  O   UNL     1      -3.260  -3.019   1.070  0.00  0.00    -0.334 OA
ATOM      7  H   UNL     1      -5.116  -0.500   0.834  0.00  0.00    +0.144 HD
ATOM      8  H   UNL     1      -4.782  -2.274  -1.205  0.00  0.00    +0.143 HD
BRANCH   2   9
ATOM      9  S   UNL     1      -2.023  -0.713   1.670  0.00  0.00    -0.109 S 
BRANCH   9  10
ATOM     10  C   UNL     1      -1.293  -0.775   0.010  0.00  0.00    +0.102 C 
BRANCH  10  12
ATOM     11  C   UNL     1      -0.018   1.503   0.010  0.00  0.00    +0.039 C 
ATOM     12  C   UNL     1       0.002  -0.004   0.002  0.00  0.00    -0.070 C 
ATOM     13  C   UNL     1       1.145  -0.644  -0.012  0.00  0.00    +0.008 C 
ENDBRANCH  10  12
ENDBRANCH   9  10
ENDBRANCH   2   9
ENDBRANCH   1   5
BRANCH   1  14
ATOM     14  N   UNL     1      -3.175  -4.188  -1.454  0.00  0.00    +0.383 N 
ATOM     15  H   UNL     1      -3.006  -4.933  -2.115  0.00  0.00    -0.089 HD
ATOM     16  H   UNL     1      -3.450  -3.354  -1.951  0.00  0.00    -0.089 HD
ATOM     17  H   UNL     1      -2.331  -4.005  -0.932  0.00  0.00    -0.089 HD
ENDBRANCH   1  14
BRANCH   1  18
ATOM     18  C   UNL     1      -3.828  -5.850   0.222  0.00  0.00    +0.025 C 
BRANCH  18  19
ATOM     19  C   UNL     1      -3.696  -6.993  -0.751  0.00  0.00    -0.024 A 
ATOM     20  C   UNL     1      -2.518  -7.319  -1.558  0.00  0.00    +0.003 A 
ATOM     21  C   UNL     1      -1.249  -6.752  -1.696  0.00  0.00    +0.010 A 
ATOM     22  C   UNL     1      -0.347  -7.309  -2.558  0.00  0.00    +0.001 A 
ATOM     23  C   UNL     1      -0.682  -8.434  -3.300  0.00  0.00    +0.002 A 
ATOM     24  C   UNL     1      -1.929  -9.009  -3.179  0.00  0.00    +0.026 A 
ATOM     25  C   UNL     1      -2.862  -8.459  -2.307  0.00  0.00    +0.047 A 
ATOM     26  N   UNL     1      -4.155  -8.790  -1.970  0.00  0.00    -0.360 N 
ATOM     27  C   UNL     1      -4.634  -7.910  -1.038  0.00  0.00    +0.087 A 
ATOM     28  H   UNL     1      -4.652  -9.539  -2.336  0.00  0.00    +0.165 HD
ENDBRANCH  18  19
ENDBRANCH   1  18
TORSDOF 7
