REMARK  Name = ZINC49554988
REMARK  11 active torsions:
REMARK  status: ('A' for Active; 'I' for Inactive)
REMARK    1  A    between atoms: C_1  and  C_2
REMARK    2  A    between atoms: C_2  and  C_3
REMARK    3  A    between atoms: C_2  and  C_4
REMARK    4  A    between atoms: C_4  and  C_5
REMARK    5  A    between atoms: C_5  and  C_7
REMARK    6  A    between atoms: C_5  and  N_11
REMARK    7  A    between atoms: C_7  and  N_8
REMARK    8  A    between atoms: N_8  and  C_9
REMARK    9  A    between atoms: N_8  and  C_10
REMARK   10  A    between atoms: N_11  and  C_12
REMARK   11  A    between atoms: C_17  and  N_18
REMARK                            x       y       z     vdW  Elec       q    Type
REMARK                         _______ _______ _______ _____ _____    ______ ____
ROOT
ATOM      1  N   UNL     1      -0.785  -3.230   1.069  0.00  0.00    -0.341 N 
ATOM      2  H   UNL     1      -0.946  -2.903   1.968  0.00  0.00    +0.146 HD
ENDROOT
BRANCH   1   3
ATOM      3  C   UNL     1      -0.339  -4.543   0.870  0.00  0.00    +0.048 A 
ATOM      4  C   UNL     1      -0.021  -4.983  -0.405  0.00  0.00    +0.026 A 
ATOM      5  C   UNL     1       0.420  -6.279  -0.600  0.00  0.00    +0.017 A 
ATOM      6  C   UNL     1       0.543  -7.140   0.476  0.00  0.00    +0.020 A 
ATOM      7  C   UNL     1       0.228  -6.709   1.752  0.00  0.00    +0.039 A 
ATOM      8  C   UNL     1      -0.209  -5.409   1.956  0.00  0.00    +0.047 A 
ATOM      9 BR   UNL     1       1.145  -8.912   0.201  0.00  0.00    -0.050 Br
BRANCH   8  10
ATOM     10  N   UNL     1      -0.524  -4.969   3.247  0.00  0.00    -0.357 N 
ATOM     11  H   UNL     1      -0.834  -4.060   3.387  0.00  0.00    +0.142 HD
ATOM     12  H   UNL     1      -0.434  -5.572   4.001  0.00  0.00    +0.142 HD
ENDBRANCH   8  10
ENDBRANCH   1   3
BRANCH   1  13
ATOM     13  C   UNL     1      -1.009  -2.350  -0.081  0.00  0.00    +0.054 C 
BRANCH  13  14
ATOM     14  C   UNL     1      -0.851  -0.892   0.354  0.00  0.00    +0.023 C 
BRANCH  14  16
ATOM     15  C   UNL     1       1.537  -0.796  -0.373  0.00  0.00    +0.007 C 
ATOM     16  C   UNL     1       0.587  -0.650   0.817  0.00  0.00    -0.016 C 
ATOM     17  C   UNL     1       0.706   0.761   1.395  0.00  0.00    +0.007 C 
ENDBRANCH  14  16
ENDBRANCH  13  14
BRANCH  13  18
ATOM     18  C   UNL     1      -2.422  -2.571  -0.624  0.00  0.00    -0.057 C 
BRANCH  18  19
ATOM     19  N   UNL     1      -2.596  -1.801  -1.863  0.00  0.00    +0.377 N 
ATOM     20  C   UNL     1      -1.715  -2.345  -2.905  0.00  0.00    -0.097 C 
ATOM     21  C   UNL     1      -3.994  -1.895  -2.305  0.00  0.00    -0.097 C 
ATOM     22  H   UNL     1      -2.361  -0.835  -1.694  0.00  0.00    -0.083 HD
ENDBRANCH  18  19
ENDBRANCH  13  18
ENDBRANCH   1  13
TORSDOF 7
