REMARK  Name = ZINC63374923
REMARK  15 active torsions:
REMARK  status: ('A' for Active; 'I' for Inactive)
REMARK    1  A    between atoms: C_1  and  C_2
REMARK    2  A    between atoms: C_2  and  C_3
REMARK    3  A    between atoms: C_3  and  O_4
REMARK    4  A    between atoms: O_4  and  C_5
REMARK    5  A    between atoms: C_8  and  C_14
REMARK    6  A    between atoms: C_10  and  O_11
REMARK    7  A    between atoms: O_11  and  C_12
REMARK    8  A    between atoms: C_12  and  C_13
REMARK    9  A    between atoms: N_21  and  C_36
REMARK   10  A    between atoms: C_24  and  C_35
REMARK   11  A    between atoms: C_36  and  C_37
REMARK   12  A    between atoms: C_37  and  C_38
REMARK   13  A    between atoms: C_38  and  C_39
REMARK   14  A    between atoms: C_39  and  C_40
REMARK   15  A    between atoms: C_40  and  O_41
REMARK                            x       y       z     vdW  Elec       q    Type
REMARK                         _______ _______ _______ _____ _____    ______ ____
ROOT
ATOM      1  C   UNL     1       3.349  -4.483   5.547  0.00  0.00    +0.065 C 
ATOM      2  C   UNL     1       4.816  -4.026   5.623  0.00  0.00    +0.121 C 
ATOM      3  N   UNL     1       5.382  -4.418   6.928  0.00  0.00    -0.283 N 
ATOM      4  C   UNL     1       6.453  -5.220   6.934  0.00  0.00    +0.234 C 
ATOM      5  O   UNL     1       6.879  -5.596   5.862  0.00  0.00    -0.274 OA
ATOM      6  C   UNL     1       7.164  -5.685   8.161  0.00  0.00    +0.203 C 
ATOM      7  N   UNL     1       6.564  -5.158   9.376  0.00  0.00    -0.291 N 
ATOM      8  C   UNL     1       5.490  -4.370   9.384  0.00  0.00    +0.242 C 
ATOM      9  O   UNL     1       5.077  -3.987  10.458  0.00  0.00    -0.273 OA
ATOM     10  C   UNL     1       4.762  -3.925   8.159  0.00  0.00    +0.135 C 
ATOM     11  C   UNL     1       3.314  -4.424   8.200  0.00  0.00    +0.139 C 
ATOM     12  C   UNL     1       2.700  -4.080   6.847  0.00  0.00    -0.027 C 
ATOM     13  C   UNL     1       1.591  -3.397   7.104  0.00  0.00    -0.000 A 
ATOM     14  C   UNL     1       0.528  -2.886   6.224  0.00  0.00    +0.010 A 
ATOM     15  C   UNL     1      -0.472  -2.194   6.830  0.00  0.00    +0.001 A 
ATOM     16  C   UNL     1      -0.520  -1.961   8.208  0.00  0.00    +0.002 A 
ATOM     17  C   UNL     1       0.409  -2.402   9.094  0.00  0.00    +0.026 A 
ATOM     18  C   UNL     1       1.504  -3.153   8.576  0.00  0.00    +0.043 A 
ATOM     19  N   UNL     1       2.516  -3.724   9.206  0.00  0.00    -0.375 N 
ATOM     20  C   UNL     1       4.740  -2.396   8.124  0.00  0.00    +0.044 C 
ATOM     21  H   UNL     1       2.704  -3.691  10.157  0.00  0.00    +0.160 HD
ENDROOT
BRANCH   1  25
ATOM     22  C   UNL     1       1.386  -2.554   2.274  0.00  0.00    +0.162 A 
ATOM     23  C   UNL     1       1.962  -1.799   3.283  0.00  0.00    +0.050 A 
ATOM     24  C   UNL     1       2.595  -2.425   4.340  0.00  0.00    +0.008 A 
ATOM     25  C   UNL     1       2.656  -3.805   4.393  0.00  0.00    -0.035 A 
ATOM     26  C   UNL     1       2.084  -4.565   3.389  0.00  0.00    +0.053 A 
ATOM     27  C   UNL     1       1.442  -3.944   2.330  0.00  0.00    +0.162 A 
BRANCH  22  28
ATOM     28  O   UNL     1       0.761  -1.940   1.234  0.00  0.00    -0.488 OA
BRANCH  28  29
ATOM     29  C   UNL     1       0.742  -0.511   1.242  0.00  0.00    +0.229 C 
BRANCH  29  31
ATOM     30  C   UNL     1      -0.019   1.526   0.010  0.00  0.00    +0.007 C 
ATOM     31  C   UNL     1       0.002  -0.004   0.002  0.00  0.00    +0.038 C 
ENDBRANCH  29  31
ENDBRANCH  28  29
ENDBRANCH  22  28
BRANCH  27  32
ATOM     32  O   UNL     1       0.874  -4.690   1.346  0.00  0.00    -0.489 OA
BRANCH  32  33
ATOM     33  C   UNL     1       0.971  -6.110   1.470  0.00  0.00    +0.226 C 
ATOM     34  C   UNL     1       0.279  -6.774   0.278  0.00  0.00    +0.048 C 
ENDBRANCH  32  33
ENDBRANCH  27  32
ENDBRANCH   1  25
BRANCH   7  35
ATOM     35  C   UNL     1       7.172  -5.513  10.660  0.00  0.00    +0.108 C 
BRANCH  35  36
ATOM     36  C   UNL     1       8.236  -4.476  11.025  0.00  0.00    +0.019 C 
BRANCH  36  37
ATOM     37  C   UNL     1       8.872  -4.848  12.366  0.00  0.00    +0.004 C 
BRANCH  37  38
ATOM     38  C   UNL     1       9.936  -3.811  12.731  0.00  0.00    +0.028 C 
BRANCH  38  39
ATOM     39  C   UNL     1      10.572  -4.182  14.072  0.00  0.00    +0.156 C 
BRANCH  39  40
ATOM     40  O   UNL     1      11.565  -3.213  14.412  0.00  0.00    -0.395 OA
ATOM     41  H   UNL     1      12.011  -3.386  15.253  0.00  0.00    +0.209 HD
ENDBRANCH  39  40
ENDBRANCH  38  39
ENDBRANCH  37  38
ENDBRANCH  36  37
ENDBRANCH  35  36
ENDBRANCH   7  35
TORSDOF 12
