REMARK  Name = ZINC38576868
REMARK  5 active torsions:
REMARK  status: ('A' for Active; 'I' for Inactive)
REMARK    1  A    between atoms: C_4  and  C_7
REMARK    2  A    between atoms: C_10  and  N_22
REMARK    3  A    between atoms: C_13  and  C_16
REMARK    4  A    between atoms: N_22  and  C_23
REMARK    5  A    between atoms: C_23  and  C_24
REMARK                            x       y       z     vdW  Elec       q    Type
REMARK                         _______ _______ _______ _____ _____    ______ ____
ROOT
ATOM      1  C   UNL     1       3.696  -0.685  -0.037  0.00  0.00    +0.260 C 
ATOM      2  O   UNL     1       4.735  -0.064  -0.144  0.00  0.00    -0.269 OA
ATOM      3  N   UNL     1       3.720  -2.029   0.057  0.00  0.00    -0.232 N 
ATOM      4  C   UNL     1       4.928  -2.863   0.163  0.00  0.00    +0.106 C 
ATOM      5  N   UNL     1       4.452  -4.263   0.287  0.00  0.00    -0.292 NA
ATOM      6  C   UNL     1       3.056  -4.089   0.775  0.00  0.00    +0.171 C 
ATOM      7  N   UNL     1       2.622  -2.855   0.076  0.00  0.00    -0.217 NA
ATOM      8  H   UNL     1       4.467  -4.730  -0.607  0.00  0.00    +0.124 HD
ATOM      9  H   UNL     1       2.310  -3.063  -0.860  0.00  0.00    +0.147 HD
ENDROOT
BRANCH   1  13
ATOM     10  C   UNL     1      -0.015   1.381   0.038  0.00  0.00    +0.000 A 
ATOM     11  C   UNL     1       1.170   2.095   0.033  0.00  0.00    +0.001 A 
ATOM     12  C   UNL     1       2.379   1.430   0.008  0.00  0.00    +0.013 A 
ATOM     13  C   UNL     1       2.404   0.034  -0.011  0.00  0.00    +0.038 A 
ATOM     14  C   UNL     1       1.204  -0.679  -0.005  0.00  0.00    +0.013 A 
ATOM     15  C   UNL     1       0.003  -0.002   0.019  0.00  0.00    +0.001 A 
ENDBRANCH   1  13
BRANCH   6  16
ATOM     16  C   UNL     1       2.200  -5.265   0.380  0.00  0.00    +0.003 A 
ATOM     17  C   UNL     1       0.843  -5.098   0.146  0.00  0.00    +0.009 A 
ATOM     18  C   UNL     1       0.095  -6.208  -0.215  0.00  0.00    +0.020 A 
ATOM     19  C   UNL     1       0.722  -7.435  -0.330  0.00  0.00    +0.111 A 
ATOM     20  N   UNL     1       2.015  -7.556  -0.099  0.00  0.00    -0.263 NA
ATOM     21  C   UNL     1       2.759  -6.521   0.240  0.00  0.00    +0.117 A 
ENDBRANCH   6  16
BRANCH   4  22
ATOM     22  N   UNL     1       5.701  -2.484   1.353  0.00  0.00    +0.403 N 
ATOM     23  H   UNL     1       5.903  -1.496   1.323  0.00  0.00    -0.081 HD
ATOM     24  H   UNL     1       5.165  -2.692   2.183  0.00  0.00    -0.081 HD
BRANCH  22  25
ATOM     25  C   UNL     1       6.960  -3.241   1.381  0.00  0.00    -0.042 C 
BRANCH  25  26
ATOM     26  C   UNL     1       7.753  -2.852   2.602  0.00  0.00    -0.064 C 
ATOM     27  C   UNL     1       7.663  -3.601   3.743  0.00  0.00    +0.007 C 
ATOM     28  C   UNL     1       8.490  -3.182   4.800  0.00  0.00    -0.018 C 
ATOM     29  C   UNL     1       8.368  -3.241   6.136  0.00  0.00    +0.025 C 
ATOM     30  C   UNL     1       9.343  -2.410   6.732  0.00  0.00    +0.106 C 
ATOM     31  N   UNL     1      10.168  -1.914   5.854  0.00  0.00    -0.279 NA
ATOM     32  C   UNL     1       9.806  -2.461   4.554  0.00  0.00    +0.158 C 
ATOM     33  C   UNL     1       9.570  -1.446   3.477  0.00  0.00    +0.004 C 
ATOM     34  C   UNL     1       8.621  -1.679   2.565  0.00  0.00    -0.000 C 
ENDBRANCH  25  26
ENDBRANCH  22  25
ENDBRANCH   4  22
TORSDOF 5
