REMARK  Name = ZINC63237260
REMARK  3 active torsions:
REMARK  status: ('A' for Active; 'I' for Inactive)
REMARK    1  A    between atoms: C_4  and  C_7
REMARK    2  A    between atoms: C_17  and  S_19
REMARK    3  A    between atoms: S_19  and  C_20
REMARK                            x       y       z     vdW  Elec       q    Type
REMARK                         _______ _______ _______ _____ _____    ______ ____
ROOT
ATOM      1  C   UNL     1       3.677  -0.650  -0.058  0.00  0.00    -0.009 C 
ATOM      2  C   UNL     1       4.904   0.011  -0.162  0.00  0.00    +0.003 A 
ATOM      3  C   UNL     1       4.959   1.416  -0.276  0.00  0.00    +0.030 A 
ATOM      4  C   UNL     1       6.167   2.035  -0.375  0.00  0.00    +0.042 A 
ATOM      5  C   UNL     1       7.356   1.307  -0.368  0.00  0.00    +0.022 A 
ATOM      6  C   UNL     1       7.367  -0.050  -0.261  0.00  0.00    +0.025 A 
ATOM      7  C   UNL     1       6.155  -0.756  -0.154  0.00  0.00    +0.041 A 
ATOM      8  N   UNL     1       6.168  -2.089  -0.049  0.00  0.00    -0.284 N 
ATOM      9  C   UNL     1       5.077  -2.822   0.055  0.00  0.00    +0.235 C 
ATOM     10  O   UNL     1       5.164  -4.032   0.147  0.00  0.00    -0.274 OA
ATOM     11  C   UNL     1       3.717  -2.161   0.066  0.00  0.00    +0.171 C 
ATOM     12 CL   UNL     1       6.229   3.764  -0.515  0.00  0.00    -0.084 Cl
ATOM     13  H   UNL     1       7.026  -2.541  -0.048  0.00  0.00    +0.155 HD
ENDROOT
BRANCH   1  17
ATOM     14  C   UNL     1       0.051   1.449  -0.073  0.00  0.00    +0.000 A 
ATOM     15  C   UNL     1       0.864   1.471  -1.195  0.00  0.00    +0.001 A 
ATOM     16  C   UNL     1       2.058   0.785  -1.201  0.00  0.00    +0.008 A 
ATOM     17  C   UNL     1       2.451   0.061  -0.063  0.00  0.00    -0.020 A 
ATOM     18  C   UNL     1       1.620   0.045   1.069  0.00  0.00    +0.008 A 
ATOM     19  C   UNL     1       0.430   0.738   1.054  0.00  0.00    +0.001 A 
ENDBRANCH   1  17
BRANCH  11  20
ATOM     20  S   UNL     1       2.754  -2.858  -1.303  0.00  0.00    -0.071 S 
BRANCH  20  21
ATOM     21  C   UNL     1       3.637  -2.358  -2.744  0.00  0.00    +0.183 C 
ATOM     22  N   UNL     1       4.787  -1.729  -2.566  0.00  0.00    -0.155 NA
ATOM     23  C   UNL     1       5.527  -1.311  -3.591  0.00  0.00    +0.245 C 
ATOM     24  O   UNL     1       6.583  -0.735  -3.416  0.00  0.00    -0.273 OA
ATOM     25  C   UNL     1       4.998  -1.587  -4.987  0.00  0.00    +0.169 C 
ATOM     26  C   UNL     1       3.669  -2.315  -5.062  0.00  0.00    +0.104 C 
ATOM     27  N   UNL     1       3.096  -2.648  -3.928  0.00  0.00    -0.213 NA
ATOM     28  N   UNL     1       3.100  -2.615  -6.250  0.00  0.00    -0.346 N 
ATOM     29  H   UNL     1       3.541  -2.364  -7.076  0.00  0.00    +0.143 HD
ATOM     30  H   UNL     1       2.249  -3.081  -6.276  0.00  0.00    +0.143 HD
ENDBRANCH  20  21
ENDBRANCH  11  20
TORSDOF 3
