REMARK  Name = ZINC61846923
REMARK  3 active torsions:
REMARK  status: ('A' for Active; 'I' for Inactive)
REMARK    1  A    between atoms: C_5  and  N_7
REMARK    2  A    between atoms: N_10  and  C_12
REMARK    3  A    between atoms: C_15  and  C_19
REMARK                            x       y       z     vdW  Elec       q    Type
REMARK                         _______ _______ _______ _____ _____    ______ ____
ROOT
ATOM      1  C   UNL     1      -0.017   1.333   0.030  0.00  0.00    +0.002 A 
ATOM      2  C   UNL     1       1.165   2.047   0.025  0.00  0.00    +0.005 A 
ATOM      3  C   UNL     1       2.388   1.391   0.001  0.00  0.00    -0.025 A 
ATOM      4  C   UNL     1       2.428   0.015  -0.012  0.00  0.00    -0.021 A 
ATOM      5  C   UNL     1       1.234  -0.707  -0.015  0.00  0.00    +0.028 A 
ATOM      6  C   UNL     1       0.014  -0.047   0.007  0.00  0.00    +0.023 A 
ATOM      7  C   UNL     1       3.716  -0.765  -0.007  0.00  0.00    +0.056 C 
ATOM      8  C   UNL     1       4.880   0.103  -0.483  0.00  0.00    +0.110 C 
ATOM      9  N   UNL     1       4.809   1.388   0.233  0.00  0.00    -0.325 N 
ATOM     10  C   UNL     1       3.638   2.234  -0.018  0.00  0.00    +0.140 C 
ENDROOT
BRANCH   9  11
ATOM     11  C   UNL     1       5.813   1.783   1.110  0.00  0.00    +0.031 A 
ATOM     12  C   UNL     1       6.853   0.908   1.415  0.00  0.00    +0.024 A 
ATOM     13  C   UNL     1       7.842   1.289   2.276  0.00  0.00    +0.016 A 
ATOM     14  C   UNL     1       7.814   2.562   2.856  0.00  0.00    +0.055 A 
ATOM     15  C   UNL     1       6.771   3.443   2.551  0.00  0.00    +0.055 A 
ATOM     16  C   UNL     1       5.779   3.053   1.677  0.00  0.00    +0.044 A 
ATOM     17 CL   UNL     1       6.729   5.024   3.267  0.00  0.00    -0.083 Cl
BRANCH  14  18
ATOM     18  C   UNL     1       8.882   2.973   3.786  0.00  0.00    +0.243 C 
ATOM     19  O   UNL     1       8.856   4.080   4.289  0.00  0.00    -0.270 OA
ATOM     20  N   UNL     1       9.886   2.123   4.079  0.00  0.00    -0.325 N 
ATOM     21  H   UNL     1       9.906   1.240   3.677  0.00  0.00    +0.145 HD
ATOM     22  H   UNL     1      10.588   2.394   4.690  0.00  0.00    +0.145 HD
ENDBRANCH  14  18
ENDBRANCH   9  11
BRANCH   5  23
ATOM     23  N   UNL     1       1.267  -2.103  -0.040  0.00  0.00    -0.358 N 
ATOM     24  H   UNL     1       2.118  -2.567  -0.055  0.00  0.00    +0.142 HD
ATOM     25  H   UNL     1       0.438  -2.608  -0.042  0.00  0.00    +0.142 HD
ENDBRANCH   5  23
TORSDOF 3
