REMARK  Name = ZINC14625194
REMARK  10 active torsions:
REMARK  status: ('A' for Active; 'I' for Inactive)
REMARK    1  A    between atoms: C_1  and  C_2
REMARK    2  A    between atoms: C_2  and  C_3
REMARK    3  A    between atoms: C_3  and  C_4
REMARK    4  A    between atoms: C_4  and  N_5
REMARK    5  A    between atoms: C_6  and  N_37
REMARK    6  A    between atoms: C_7  and  N_14
REMARK    7  A    between atoms: N_14  and  C_15
REMARK    8  A    between atoms: C_15  and  C_16
REMARK    9  A    between atoms: C_22  and  C_24
REMARK   10  A    between atoms: C_24  and  C_25
REMARK                            x       y       z     vdW  Elec       q    Type
REMARK                         _______ _______ _______ _____ _____    ______ ____
ROOT
ATOM      1  N   UNL     1       0.099   0.085   0.031  0.00  0.00    -0.260 N 
ATOM      2  C   UNL     1      -1.084  -0.477  -0.294  0.00  0.00    +0.226 C 
ATOM      3  O   UNL     1      -1.261  -1.664  -0.115  0.00  0.00    -0.275 OA
ENDROOT
BRANCH   1   6
ATOM      4  N   UNL     1       2.682  -1.395   2.184  0.00  0.00    -0.280 N 
ATOM      5  C   UNL     1       1.643  -0.594   1.772  0.00  0.00    +0.127 A 
ATOM      6  C   UNL     1       1.163  -0.722   0.484  0.00  0.00    +0.140 A 
ATOM      7  C   UNL     1       1.750  -1.677  -0.367  0.00  0.00    +0.277 A 
ATOM      8  O   UNL     1       1.342  -1.815  -1.508  0.00  0.00    -0.266 OA
ATOM      9  N   UNL     1       2.769  -2.434   0.085  0.00  0.00    -0.273 N 
ATOM     10  H   UNL     1       3.192  -3.107  -0.522  0.00  0.00    +0.173 HD
ATOM     11  C   UNL     1       3.224  -2.295   1.343  0.00  0.00    +0.331 A 
ATOM     12  O   UNL     1       4.141  -2.994   1.727  0.00  0.00    -0.246 OA
BRANCH   5  13
ATOM     13  N   UNL     1       1.090   0.325   2.631  0.00  0.00    -0.343 N 
ATOM     14  H   UNL     1       0.296   0.818   2.369  0.00  0.00    +0.144 HD
ATOM     15  H   UNL     1       1.492   0.480   3.500  0.00  0.00    +0.144 HD
ENDBRANCH   5  13
BRANCH   4  16
ATOM     16  C   UNL     1       3.201  -1.270   3.548  0.00  0.00    +0.128 C 
BRANCH  16  17
ATOM     17  C   UNL     1       2.437  -2.218   4.474  0.00  0.00    +0.021 C 
BRANCH  17  19
ATOM     18  C   UNL     1       2.215  -3.035   6.825  0.00  0.00    +0.004 C 
ATOM     19  C   UNL     1       2.979  -2.087   5.899  0.00  0.00    -0.002 C 
ENDBRANCH  17  19
ENDBRANCH  16  17
ENDBRANCH   4  16
ENDBRANCH   1   6
BRANCH   1  20
ATOM     20  C   UNL     1       0.278   1.535  -0.087  0.00  0.00    +0.149 C 
BRANCH  20  21
ATOM     21  C   UNL     1       0.912   1.857  -1.415  0.00  0.00    -0.030 A 
ATOM     22  C   UNL     1       2.284   1.786  -1.561  0.00  0.00    +0.005 A 
ATOM     23  C   UNL     1       2.865   2.076  -2.782  0.00  0.00    +0.000 A 
ATOM     24  C   UNL     1       2.075   2.447  -3.853  0.00  0.00    +0.000 A 
ATOM     25  C   UNL     1       0.702   2.523  -3.705  0.00  0.00    +0.000 A 
ATOM     26  C   UNL     1       0.121   2.227  -2.487  0.00  0.00    +0.005 A 
ENDBRANCH  20  21
ENDBRANCH   1  20
BRANCH   2  27
ATOM     27  C   UNL     1      -2.184   0.369  -0.881  0.00  0.00    +0.154 C 
BRANCH  27  28
ATOM     28  C   UNL     1      -3.440  -0.455  -1.004  0.00  0.00    +0.078 A 
ATOM     29  C   UNL     1      -4.660   0.146  -1.545  0.00  0.00    +0.011 A 
ATOM     30  C   UNL     1      -4.700   1.475  -1.968  0.00  0.00    +0.010 A 
ATOM     31  C   UNL     1      -5.862   1.989  -2.473  0.00  0.00    +0.001 A 
ATOM     32  C   UNL     1      -7.004   1.205  -2.576  0.00  0.00    +0.001 A 
ATOM     33  C   UNL     1      -6.992  -0.111  -2.170  0.00  0.00    +0.014 A 
ATOM     34  C   UNL     1      -5.818  -0.657  -1.652  0.00  0.00    +0.050 A 
ATOM     35  C   UNL     1      -5.741  -2.053  -1.203  0.00  0.00    +0.272 A 
ATOM     36  O   UNL     1      -6.714  -2.781  -1.272  0.00  0.00    -0.266 OA
ATOM     37  N   UNL     1      -4.571  -2.513  -0.713  0.00  0.00    -0.242 N 
ATOM     38  H   UNL     1      -4.513  -3.434  -0.415  0.00  0.00    +0.192 HD
ATOM     39  N   UNL     1      -3.441  -1.699  -0.625  0.00  0.00    -0.175 NA
ENDBRANCH  27  28
ENDBRANCH   2  27
TORSDOF 9
