REMARK  Name = ZINC39630843
REMARK  13 active torsions:
REMARK  status: ('A' for Active; 'I' for Inactive)
REMARK    1  A    between atoms: C_1  and  C_2
REMARK    2  A    between atoms: C_2  and  S_3
REMARK    3  A    between atoms: S_3  and  C_4
REMARK    4  A    between atoms: C_5  and  C_10
REMARK    5  A    between atoms: C_14  and  C_23
REMARK    6  A    between atoms: N_25  and  C_26
REMARK    7  A    between atoms: C_26  and  C_27
REMARK    8  A    between atoms: C_27  and  C_28
REMARK    9  A    between atoms: C_27  and  C_29
REMARK   10  A    between atoms: C_27  and  C_30
REMARK   11  A    between atoms: C_30  and  N_31
REMARK   12  A    between atoms: N_31  and  C_32
REMARK   13  A    between atoms: N_31  and  C_33
REMARK                            x       y       z     vdW  Elec       q    Type
REMARK                         _______ _______ _______ _____ _____    ______ ____
ROOT
ATOM      1  C   UNL     1       0.080  -3.839  -3.094  0.00  0.00    +0.249 C 
ATOM      2  O   UNL     1      -0.289  -2.683  -3.184  0.00  0.00    -0.270 OA
ATOM      3  N   UNL     1       0.917  -4.353  -4.016  0.00  0.00    -0.296 N 
ATOM      4  C   UNL     1       1.383  -5.754  -4.139  0.00  0.00    +0.121 C 
ATOM      5  C   UNL     1       1.395  -6.030  -5.660  0.00  0.00    +0.100 C 
ATOM      6  C   UNL     1       1.526  -4.642  -6.309  0.00  0.00    -0.004 C 
ATOM      7  C   UNL     1       1.575  -3.646  -5.141  0.00  0.00    +0.115 C 
ATOM      8  C   UNL     1       0.314  -4.354  -7.190  0.00  0.00    -0.010 C 
ATOM      9  C   UNL     1       0.494  -2.993  -7.869  0.00  0.00    -0.082 C 
ATOM     10  N   UNL     1       1.720  -3.006  -8.677  0.00  0.00    +0.379 N 
ATOM     11  C   UNL     1       2.889  -3.191  -7.810  0.00  0.00    -0.082 C 
ATOM     12  C   UNL     1       2.810  -4.560  -7.128  0.00  0.00    -0.010 C 
ATOM     13  H   UNL     1       1.673  -3.762  -9.343  0.00  0.00    -0.086 HD
ATOM     14  H   UNL     1       1.804  -2.130  -9.171  0.00  0.00    -0.086 HD
ENDROOT
BRANCH   1  16
ATOM     15  C   UNL     1      -1.618  -4.412  -1.348  0.00  0.00    +0.109 A 
ATOM     16  C   UNL     1      -0.387  -4.676  -1.974  0.00  0.00    +0.069 A 
ATOM     17  C   UNL     1       0.385  -5.749  -1.516  0.00  0.00    +0.017 A 
ATOM     18  C   UNL     1      -0.098  -6.505  -0.463  0.00  0.00    +0.020 A 
ATOM     19  C   UNL     1      -1.319  -6.183   0.103  0.00  0.00    +0.112 A 
ATOM     20  N   UNL     1      -2.031  -5.165  -0.339  0.00  0.00    -0.248 NA
BRANCH  15  21
ATOM     21  S   UNL     1      -2.614  -3.068  -1.902  0.00  0.00    -0.105 S 
BRANCH  21  23
ATOM     22  C   UNL     1      -5.023  -1.987  -1.191  0.00  0.00    +0.015 C 
ATOM     23  C   UNL     1      -4.064  -3.117  -0.813  0.00  0.00    +0.072 C 
ENDBRANCH  21  23
ENDBRANCH  15  21
ENDBRANCH   1  16
BRANCH   5  24
ATOM     24  C   UNL     1       2.571  -6.896  -6.027  0.00  0.00    +0.218 C 
ATOM     25  O   UNL     1       3.562  -6.902  -5.327  0.00  0.00    -0.275 OA
ATOM     26  N   UNL     1       2.523  -7.665  -7.133  0.00  0.00    -0.315 N 
ATOM     27  H   UNL     1       1.731  -7.660  -7.693  0.00  0.00    +0.149 HD
BRANCH  26  28
ATOM     28  C   UNL     1       3.667  -8.508  -7.490  0.00  0.00    +0.108 C 
BRANCH  28  29
ATOM     29  C   UNL     1       3.355  -9.272  -8.778  0.00  0.00    -0.034 C 
ATOM     30  C   UNL     1       2.121 -10.151  -8.564  0.00  0.00    +0.010 C 
ATOM     31  C   UNL     1       3.083  -8.277  -9.908  0.00  0.00    +0.010 C 
BRANCH  29  32
ATOM     32  C   UNL     1       4.550 -10.152  -9.151  0.00  0.00    -0.072 C 
BRANCH  32  33
ATOM     33  N   UNL     1       4.260 -10.867 -10.401  0.00  0.00    +0.376 N 
ATOM     34  C   UNL     1       4.622 -10.020 -11.545  0.00  0.00    -0.097 C 
ATOM     35  C   UNL     1       5.041 -12.111 -10.446  0.00  0.00    -0.097 C 
ATOM     36  H   UNL     1       3.276 -11.086 -10.443  0.00  0.00    -0.083 HD
ENDBRANCH  32  33
ENDBRANCH  29  32
ENDBRANCH  28  29
ENDBRANCH  26  28
ENDBRANCH   5  24
TORSDOF 8
