REMARK  Name = ZINC39684326
REMARK  10 active torsions:
REMARK  status: ('A' for Active; 'I' for Inactive)
REMARK    1  A    between atoms: C_1  and  C_2
REMARK    2  A    between atoms: C_2  and  C_4
REMARK    3  A    between atoms: C_2  and  N_8
REMARK    4  A    between atoms: C_4  and  C_5
REMARK    5  A    between atoms: C_4  and  C_6
REMARK    6  A    between atoms: C_4  and  C_7
REMARK    7  A    between atoms: C_9  and  C_11
REMARK    8  A    between atoms: C_22  and  C_24
REMARK    9  A    between atoms: C_28  and  O_30
REMARK   10  A    between atoms: O_30  and  C_31
REMARK                            x       y       z     vdW  Elec       q    Type
REMARK                         _______ _______ _______ _____ _____    ______ ____
ROOT
ATOM      1  C   UNL     1       1.237  -1.304  -3.996  0.00  0.00    +0.100 C 
ATOM      2  C   UNL     1       1.631  -2.703  -3.473  0.00  0.00    +0.121 C 
ATOM      3  N   UNL     1       0.556  -3.600  -3.959  0.00  0.00    -0.296 N 
ATOM      4  C   UNL     1       0.256  -3.110  -5.325  0.00  0.00    +0.115 C 
ATOM      5  C   UNL     1       0.338  -1.575  -5.213  0.00  0.00    -0.004 C 
ATOM      6  C   UNL     1      -1.052  -0.989  -4.984  0.00  0.00    -0.010 C 
ATOM      7  C   UNL     1      -1.911  -1.222  -6.230  0.00  0.00    -0.082 C 
ATOM      8  N   UNL     1      -1.275  -0.586  -7.390  0.00  0.00    +0.379 N 
ATOM      9  C   UNL     1       0.021  -1.218  -7.660  0.00  0.00    -0.082 C 
ATOM     10  C   UNL     1       0.962  -0.986  -6.474  0.00  0.00    -0.010 C 
ATOM     11  C   UNL     1      -0.019  -4.629  -3.305  0.00  0.00    +0.247 C 
ATOM     12  O   UNL     1       0.247  -4.832  -2.136  0.00  0.00    -0.270 OA
ATOM     13  H   UNL     1      -1.872  -0.688  -8.197  0.00  0.00    -0.086 HD
ATOM     14  H   UNL     1      -1.136   0.396  -7.200  0.00  0.00    -0.086 HD
ENDROOT
BRANCH  11  15
ATOM     15  C   UNL     1      -0.975  -5.511  -4.009  0.00  0.00    +0.040 A 
ATOM     16  C   UNL     1      -0.968  -5.579  -5.404  0.00  0.00    +0.013 A 
ATOM     17  C   UNL     1      -1.860  -6.403  -6.058  0.00  0.00    +0.004 A 
ATOM     18  C   UNL     1      -2.764  -7.162  -5.336  0.00  0.00    +0.045 A 
ATOM     19  C   UNL     1      -2.778  -7.100  -3.950  0.00  0.00    +0.121 A 
ATOM     20  C   UNL     1      -1.882  -6.281  -3.283  0.00  0.00    +0.058 A 
BRANCH  19  21
ATOM     21  O   UNL     1      -3.669  -7.848  -3.246  0.00  0.00    -0.495 OA
ATOM     22  C   UNL     1      -4.560  -8.674  -3.998  0.00  0.00    +0.277 C 
ENDBRANCH  19  21
ENDBRANCH  11  15
BRANCH   1  24
ATOM     23  N   UNL     1       0.450   0.803  -2.965  0.00  0.00    -0.312 N 
ATOM     24  C   UNL     1       0.476  -0.544  -2.939  0.00  0.00    +0.218 C 
ATOM     25  O   UNL     1      -0.112  -1.146  -2.066  0.00  0.00    -0.275 OA
ATOM     26  H   UNL     1       0.921   1.284  -3.664  0.00  0.00    +0.149 HD
BRANCH  23  28
ATOM     27  C   UNL     1      -1.760   1.650  -2.348  0.00  0.00    +0.028 C 
ATOM     28  C   UNL     1      -0.290   1.541  -1.938  0.00  0.00    +0.075 C 
BRANCH  28  29
ATOM     29  C   UNL     1       0.304   2.943  -1.791  0.00  0.00    -0.020 C 
ATOM     30  C   UNL     1      -0.469   3.714  -0.718  0.00  0.00    +0.012 C 
ATOM     31  C   UNL     1       1.774   2.834  -1.381  0.00  0.00    +0.012 C 
ATOM     32  C   UNL     1       0.201   3.684  -3.125  0.00  0.00    +0.012 C 
ENDBRANCH  28  29
ENDBRANCH  23  28
ENDBRANCH   1  24
TORSDOF 5
