REMARK  Name = ZINC58864475
REMARK  5 active torsions:
REMARK  status: ('A' for Active; 'I' for Inactive)
REMARK    1  A    between atoms: C_1  and  C_2
REMARK    2  A    between atoms: C_2  and  C_4
REMARK    3  A    between atoms: C_2  and  N_13
REMARK    4  A    between atoms: N_16  and  C_17
REMARK    5  A    between atoms: C_22  and  N_23
REMARK                            x       y       z     vdW  Elec       q    Type
REMARK                         _______ _______ _______ _____ _____    ______ ____
ROOT
ATOM      1  N   UNL     1       0.689  -0.460  -1.210  0.00  0.00    -0.290 N 
ATOM      2  C   UNL     1       2.031  -0.583  -1.217  0.00  0.00    +0.304 C 
ATOM      3  O   UNL     1       2.673  -0.297  -0.224  0.00  0.00    -0.252 OA
ATOM      4  N   UNL     1       2.662  -1.022  -2.324  0.00  0.00    -0.268 N 
ATOM      5  H   UNL     1       0.177  -0.688  -2.001  0.00  0.00    +0.151 HD
ATOM      6  H   UNL     1       2.147  -1.327  -3.087  0.00  0.00    +0.156 HD
ENDROOT
BRANCH   4   7
ATOM      7  C   UNL     1       4.063  -1.037  -2.373  0.00  0.00    +0.056 A 
ATOM      8  C   UNL     1       4.796  -0.175  -1.571  0.00  0.00    +0.025 A 
ATOM      9  C   UNL     1       6.178  -0.192  -1.621  0.00  0.00    +0.002 A 
ATOM     10  C   UNL     1       6.832  -1.067  -2.469  0.00  0.00    +0.002 A 
ATOM     11  C   UNL     1       6.109  -1.929  -3.271  0.00  0.00    +0.025 A 
ATOM     12  C   UNL     1       4.723  -1.924  -3.223  0.00  0.00    +0.051 A 
BRANCH  12  13
ATOM     13  N   UNL     1       3.989  -2.800  -4.029  0.00  0.00    -0.328 N 
ATOM     14  C   UNL     1       3.524  -2.521  -5.396  0.00  0.00    +0.105 C 
ATOM     15  C   UNL     1       2.740  -3.761  -5.875  0.00  0.00    +0.020 C 
ATOM     16  C   UNL     1       2.325  -4.445  -4.546  0.00  0.00    +0.020 C 
ATOM     17  C   UNL     1       3.560  -4.160  -3.652  0.00  0.00    +0.105 C 
ENDBRANCH  12  13
ENDBRANCH   4   7
BRANCH   1  19
ATOM     18  C   UNL     1      -0.004   1.547   0.004  0.00  0.00    +0.036 C 
ATOM     19  C   UNL     1       0.003   0.017  -0.006  0.00  0.00    +0.137 C 
BRANCH  19  20
ATOM     20  C   UNL     1      -1.415  -0.492  -0.001  0.00  0.00    +0.126 A 
ATOM     21  C   UNL     1      -2.068  -0.933   1.083  0.00  0.00    +0.055 A 
ATOM     22  C   UNL     1      -3.406  -1.324   0.623  0.00  0.00    +0.020 A 
ATOM     23  C   UNL     1      -4.537  -1.848   1.248  0.00  0.00    +0.011 A 
ATOM     24  C   UNL     1      -5.659  -2.109   0.511  0.00  0.00    +0.001 A 
ATOM     25  C   UNL     1      -5.678  -1.855  -0.853  0.00  0.00    +0.004 A 
ATOM     26  C   UNL     1      -4.570  -1.337  -1.488  0.00  0.00    +0.047 A 
ATOM     27  C   UNL     1      -3.420  -1.064  -0.757  0.00  0.00    +0.135 A 
ATOM     28  O   UNL     1      -2.211  -0.564  -1.083  0.00  0.00    -0.458 OA
ENDBRANCH  19  20
ENDBRANCH   1  19
TORSDOF 4
