REMARK  Name = ZINC39664687
REMARK  14 active torsions:
REMARK  status: ('A' for Active; 'I' for Inactive)
REMARK    1  A    between atoms: C_1  and  N_2
REMARK    2  A    between atoms: N_2  and  C_3
REMARK    3  A    between atoms: N_2  and  C_4
REMARK    4  A    between atoms: C_4  and  C_5
REMARK    5  A    between atoms: C_5  and  C_7
REMARK    6  A    between atoms: C_5  and  N_13
REMARK    7  A    between atoms: C_14  and  C_16
REMARK    8  A    between atoms: C_27  and  C_29
REMARK    9  A    between atoms: C_31  and  O_39
REMARK   10  A    between atoms: C_32  and  O_37
REMARK   11  A    between atoms: C_33  and  O_35
REMARK   12  A    between atoms: O_35  and  C_36
REMARK   13  A    between atoms: O_37  and  C_38
REMARK   14  A    between atoms: O_39  and  C_40
REMARK                            x       y       z     vdW  Elec       q    Type
REMARK                         _______ _______ _______ _____ _____    ______ ____
ROOT
ATOM      1  C   UNL     1      -2.386   2.778   2.287  0.00  0.00    +0.100 C 
ATOM      2  C   UNL     1      -2.397   3.525   3.639  0.00  0.00    +0.121 C 
ATOM      3  N   UNL     1      -3.608   4.377   3.586  0.00  0.00    -0.296 N 
ATOM      4  C   UNL     1      -4.628   3.529   2.924  0.00  0.00    +0.115 C 
ATOM      5  C   UNL     1      -3.851   2.782   1.821  0.00  0.00    -0.004 C 
ATOM      6  C   UNL     1      -3.982   3.520   0.492  0.00  0.00    -0.010 C 
ATOM      7  C   UNL     1      -5.438   3.462   0.022  0.00  0.00    -0.082 C 
ATOM      8  N   UNL     1      -5.848   2.060  -0.131  0.00  0.00    +0.379 N 
ATOM      9  C   UNL     1      -5.808   1.382   1.170  0.00  0.00    -0.082 C 
ATOM     10  C   UNL     1      -4.368   1.353   1.689  0.00  0.00    -0.010 C 
ATOM     11  C   UNL     1      -3.751   5.639   4.037  0.00  0.00    +0.247 C 
ATOM     12  O   UNL     1      -2.790   6.238   4.482  0.00  0.00    -0.270 OA
ATOM     13  H   UNL     1      -6.787   2.025  -0.499  0.00  0.00    -0.086 HD
ATOM     14  H   UNL     1      -5.221   1.596  -0.771  0.00  0.00    -0.086 HD
ENDROOT
BRANCH  11  15
ATOM     15  C   UNL     1      -5.073   6.295   3.992  0.00  0.00    +0.044 A 
ATOM     16  C   UNL     1      -6.235   5.521   3.939  0.00  0.00    +0.062 A 
ATOM     17  C   UNL     1      -7.472   6.137   3.897  0.00  0.00    +0.166 A 
ATOM     18  C   UNL     1      -7.560   7.527   3.908  0.00  0.00    +0.204 A 
ATOM     19  C   UNL     1      -6.403   8.300   3.960  0.00  0.00    +0.166 A 
ATOM     20  C   UNL     1      -5.164   7.688   4.008  0.00  0.00    +0.062 A 
BRANCH  19  21
ATOM     21  O   UNL     1      -6.492   9.657   3.969  0.00  0.00    -0.491 OA
ATOM     22  C   UNL     1      -5.265  10.387   4.024  0.00  0.00    +0.277 C 
ENDBRANCH  19  21
BRANCH  18  23
ATOM     23  O   UNL     1      -8.777   8.130   3.866  0.00  0.00    -0.488 OA
ATOM     24  C   UNL     1      -9.407   8.405   5.119  0.00  0.00    +0.277 C 
ENDBRANCH  18  23
BRANCH  17  25
ATOM     25  O   UNL     1      -8.604   5.385   3.846  0.00  0.00    -0.491 OA
ATOM     26  C   UNL     1      -8.440   3.966   3.838  0.00  0.00    +0.277 C 
ENDBRANCH  17  25
ENDBRANCH  11  15
BRANCH   1  28
ATOM     27  N   UNL     1      -1.256   0.735   1.468  0.00  0.00    -0.310 N 
ATOM     28  C   UNL     1      -1.898   1.364   2.472  0.00  0.00    +0.219 C 
ATOM     29  O   UNL     1      -2.083   0.792   3.526  0.00  0.00    -0.275 OA
ATOM     30  H   UNL     1      -1.050   1.214   0.650  0.00  0.00    +0.149 HD
BRANCH  27  31
ATOM     31  C   UNL     1      -0.870  -0.671   1.611  0.00  0.00    +0.087 C 
BRANCH  31  32
ATOM     32  C   UNL     1       0.272  -0.976   0.677  0.00  0.00    -0.029 A 
ATOM     33  C   UNL     1       0.287  -0.438  -0.596  0.00  0.00    +0.005 A 
ATOM     34  C   UNL     1       1.335  -0.718  -1.452  0.00  0.00    +0.000 A 
ATOM     35  C   UNL     1       2.368  -1.536  -1.036  0.00  0.00    +0.000 A 
ATOM     36  C   UNL     1       2.354  -2.074   0.237  0.00  0.00    +0.000 A 
ATOM     37  C   UNL     1       1.308  -1.790   1.096  0.00  0.00    +0.005 A 
ENDBRANCH  31  32
BRANCH  31  38
ATOM     38  C   UNL     1      -2.064  -1.564   1.267  0.00  0.00    -0.052 C 
BRANCH  38  40
ATOM     39  C   UNL     1      -1.434  -3.192   2.913  0.00  0.00    -0.097 C 
ATOM     40  N   UNL     1      -1.701  -2.971   1.485  0.00  0.00    +0.377 N 
ATOM     41  C   UNL     1      -2.808  -3.835   1.054  0.00  0.00    -0.097 C 
ATOM     42  H   UNL     1      -0.874  -3.192   0.950  0.00  0.00    -0.083 HD
ENDBRANCH  38  40
ENDBRANCH  31  38
ENDBRANCH  27  31
ENDBRANCH   1  28
TORSDOF 9
