REMARK  Name = ZINC24587401
REMARK  9 active torsions:
REMARK  status: ('A' for Active; 'I' for Inactive)
REMARK    1  A    between atoms: C_1  and  C_2
REMARK    2  A    between atoms: C_11  and  O_13
REMARK    3  A    between atoms: O_13  and  C_14
REMARK    4  A    between atoms: C_14  and  C_15
REMARK    5  A    between atoms: C_18  and  C_21
REMARK    6  A    between atoms: N_23  and  C_24
REMARK    7  A    between atoms: C_24  and  C_25
REMARK    8  A    between atoms: C_25  and  C_27
REMARK    9  A    between atoms: C_25  and  N_32
REMARK                            x       y       z     vdW  Elec       q    Type
REMARK                         _______ _______ _______ _____ _____    ______ ____
ROOT
ATOM      1  C   UNL     1       4.508   4.244  -0.090  0.00  0.00    -0.010 A 
ATOM      2  C   UNL     1       5.034   4.710  -1.282  0.00  0.00    +0.008 A 
ATOM      3  C   UNL     1       6.183   5.473  -1.281  0.00  0.00    +0.013 A 
ATOM      4  C   UNL     1       6.823   5.763  -0.075  0.00  0.00    +0.037 A 
ATOM      5  C   UNL     1       6.290   5.285   1.124  0.00  0.00    +0.013 A 
ATOM      6  C   UNL     1       5.137   4.528   1.109  0.00  0.00    +0.008 A 
ENDROOT
BRANCH   4   7
ATOM      7  C   UNL     1       8.059   6.574  -0.066  0.00  0.00    +0.244 C 
ATOM      8  O   UNL     1       8.614   6.826   0.985  0.00  0.00    -0.270 OA
ATOM      9  N   UNL     1       8.570   7.035  -1.225  0.00  0.00    -0.313 N 
ATOM     10  H   UNL     1       8.068   6.808  -2.177  0.00  0.00    +0.149 HD
BRANCH   9  11
ATOM     11  C   UNL     1       9.795   7.839  -1.217  0.00  0.00    +0.094 C 
BRANCH  11  12
ATOM     12  C   UNL     1      10.223   8.131  -2.657  0.00  0.00    -0.013 C 
BRANCH  12  13
ATOM     13  N   UNL     1      11.517   8.826  -2.651  0.00  0.00    +0.386 N 
ATOM     14  C   UNL     1      12.561   8.004  -1.988  0.00  0.00    -0.078 C 
ATOM     15  C   UNL     1      13.883   8.608  -2.526  0.00  0.00    -0.020 C 
ATOM     16  C   UNL     1      13.536   8.945  -3.995  0.00  0.00    -0.020 C 
ATOM     17  C   UNL     1      12.001   9.057  -4.030  0.00  0.00    -0.078 C 
ATOM     18  H   UNL     1      11.345   9.775  -2.121  0.00  0.00    -0.081 HD
ENDBRANCH  12  13
BRANCH  12  19
ATOM     19  C   UNL     1       9.188   9.000  -3.322  0.00  0.00    -0.022 A 
ATOM     20  C   UNL     1       8.195   8.646  -4.174  0.00  0.00    +0.009 A 
ATOM     21  C   UNL     1       7.353   9.625  -4.666  0.00  0.00    +0.008 A 
ATOM     22  C   UNL     1       7.543  10.910  -4.281  0.00  0.00    +0.045 A 
ATOM     23  S   UNL     1       8.945  10.764  -3.186  0.00  0.00    -0.103 S 
ENDBRANCH  12  19
ENDBRANCH  11  12
ENDBRANCH   9  11
ENDBRANCH   4   7
BRANCH   1  24
ATOM     24  C   UNL     1       3.248   3.417  -0.099  0.00  0.00    +0.264 C 
BRANCH  24  25
ATOM     25  O   UNL     1       2.113   4.277   0.019  0.00  0.00    -0.487 OA
BRANCH  25  36
ATOM     26  C   UNL     1      -3.065   0.343  -0.056  0.00  0.00    +0.045 C 
ATOM     27  C   UNL     1      -2.914   1.838   0.054  0.00  0.00    -0.033 A 
ATOM     28  C   UNL     1      -4.003   2.642   0.165  0.00  0.00    +0.096 A 
ATOM     29  C   UNL     1      -3.837   4.039   0.266  0.00  0.00    +0.337 A 
ATOM     30  O   UNL     1      -4.822   4.748   0.365  0.00  0.00    -0.245 OA
ATOM     31  O   UNL     1      -2.620   4.606   0.256  0.00  0.00    -0.422 OA
ATOM     32  C   UNL     1      -1.497   3.864   0.149  0.00  0.00    +0.143 A 
ATOM     33  C   UNL     1      -1.591   2.464   0.037  0.00  0.00    +0.021 A 
ATOM     34  C   UNL     1      -0.429   1.691  -0.069  0.00  0.00    +0.015 A 
ATOM     35  C   UNL     1       0.792   2.300  -0.076  0.00  0.00    +0.046 A 
ATOM     36  C   UNL     1       0.891   3.686   0.027  0.00  0.00    +0.125 A 
ATOM     37  C   UNL     1      -0.249   4.466   0.139  0.00  0.00    +0.092 A 
ENDBRANCH  25  36
ENDBRANCH  24  25
ENDBRANCH   1  24
TORSDOF 8
