REMARK  Name = ZINC20611183
REMARK  6 active torsions:
REMARK  status: ('A' for Active; 'I' for Inactive)
REMARK    1  A    between atoms: C_1  and  C_2
REMARK    2  A    between atoms: C_2  and  C_3
REMARK    3  A    between atoms: C_3  and  C_4
REMARK    4  A    between atoms: C_4  and  N_5
REMARK    5  A    between atoms: C_8  and  C_15
REMARK    6  A    between atoms: C_21  and  C_27
REMARK                            x       y       z     vdW  Elec       q    Type
REMARK                         _______ _______ _______ _____ _____    ______ ____
ROOT
ATOM      1  C   UNL     1      -5.436  -3.557   2.496  0.00  0.00    +0.018 C 
ATOM      2  C   UNL     1      -4.736  -4.673   3.236  0.00  0.00    +0.011 A 
ATOM      3  C   UNL     1      -4.503  -4.639   4.568  0.00  0.00    -0.022 A 
ATOM      4  C   UNL     1      -3.819  -5.863   4.914  0.00  0.00    +0.003 A 
ATOM      5  C   UNL     1      -3.332  -6.373   6.122  0.00  0.00    +0.013 A 
ATOM      6  C   UNL     1      -2.719  -7.601   6.077  0.00  0.00    -0.050 A 
ATOM      7  C   UNL     1      -2.583  -8.312   4.896  0.00  0.00    +0.005 A 
ATOM      8  C   UNL     1      -3.054  -7.833   3.686  0.00  0.00    +0.026 A 
ATOM      9  C   UNL     1      -3.682  -6.589   3.702  0.00  0.00    +0.047 A 
ATOM     10  N   UNL     1      -4.249  -5.838   2.711  0.00  0.00    -0.359 N 
ATOM     11  H   UNL     1      -4.298  -6.093   1.776  0.00  0.00    +0.166 HD
ATOM     12  C   UNL     1      -2.178  -8.194   7.352  0.00  0.00    +0.044 C 
ATOM     13  C   UNL     1      -4.922  -3.490   5.450  0.00  0.00    +0.018 C 
ATOM     14  C   UNL     1      -5.937  -2.643   4.670  0.00  0.00    -0.076 C 
ATOM     15  N   UNL     1      -5.409  -2.346   3.331  0.00  0.00    +0.388 N 
ATOM     16  H   UNL     1      -4.458  -2.018   3.415  0.00  0.00    -0.084 HD
ATOM     17  H   UNL     1      -5.971  -1.629   2.898  0.00  0.00    -0.084 HD
ENDROOT
BRANCH   1  21
ATOM     18  N   UNL     1      -2.787  -2.571   0.015  0.00  0.00    -0.261 N 
ATOM     19  C   UNL     1      -3.405  -2.803   1.190  0.00  0.00    +0.262 A 
ATOM     20  O   UNL     1      -2.825  -2.593   2.241  0.00  0.00    -0.267 OA
ATOM     21  C   UNL     1      -4.725  -3.289   1.194  0.00  0.00    +0.073 A 
ATOM     22  C   UNL     1      -5.352  -3.516   0.005  0.00  0.00    +0.260 A 
ATOM     23  N   UNL     1      -4.685  -3.265  -1.168  0.00  0.00    -0.275 N 
ATOM     24  H   UNL     1      -5.127  -3.425  -2.016  0.00  0.00    +0.173 HD
ATOM     25  C   UNL     1      -3.425  -2.795  -1.149  0.00  0.00    +0.332 A 
ATOM     26  O   UNL     1      -2.852  -2.575  -2.198  0.00  0.00    -0.246 OA
ATOM     27  O   UNL     1      -6.618  -3.983  -0.018  0.00  0.00    -0.267 OA
BRANCH  18  28
ATOM     28  C   UNL     1      -1.413  -2.063   0.004  0.00  0.00    +0.130 C 
BRANCH  28  29
ATOM     29  C   UNL     1      -1.433  -0.534   0.013  0.00  0.00    +0.022 C 
BRANCH  29  31
ATOM     30  C   UNL     1      -0.019   1.526   0.010  0.00  0.00    +0.004 C 
ATOM     31  C   UNL     1       0.002  -0.004   0.002  0.00  0.00    -0.002 C 
ENDBRANCH  29  31
ENDBRANCH  28  29
ENDBRANCH  18  28
ENDBRANCH   1  21
TORSDOF 4
