REMARK  Name = ZINC17702155
REMARK  10 active torsions:
REMARK  status: ('A' for Active; 'I' for Inactive)
REMARK    1  A    between atoms: C_1  and  C_2
REMARK    2  A    between atoms: C_4  and  C_32
REMARK    3  A    between atoms: C_5  and  S_9
REMARK    4  A    between atoms: C_6  and  C_8
REMARK    5  A    between atoms: S_9  and  N_12
REMARK    6  A    between atoms: C_15  and  C_18
REMARK    7  A    between atoms: N_20  and  C_21
REMARK    8  A    between atoms: C_21  and  C_22
REMARK    9  A    between atoms: C_24  and  N_29
REMARK   10  A    between atoms: C_27  and  O_28
REMARK                            x       y       z     vdW  Elec       q    Type
REMARK                         _______ _______ _______ _____ _____    ______ ____
ROOT
ATOM      1  N   UNL     1       0.401  -5.328   0.167  0.00  0.00    -0.177 NA
ATOM      2  C   UNL     1       1.079  -5.802  -1.047  0.00  0.00    +0.110 C 
ATOM      3  C   UNL     1       1.215  -7.326  -0.973  0.00  0.00    +0.030 C 
ATOM      4  C   UNL     1       1.920  -7.708   0.331  0.00  0.00    +0.077 C 
ATOM      5  C   UNL     1       1.082  -7.239   1.522  0.00  0.00    +0.030 C 
ATOM      6  C   UNL     1       0.948  -5.709   1.476  0.00  0.00    +0.110 C 
ENDROOT
BRANCH   4   7
ATOM      7  C   UNL     1       2.087  -9.204   0.392  0.00  0.00    +0.216 C 
ATOM      8  O   UNL     1       1.681  -9.897  -0.517  0.00  0.00    -0.276 OA
ATOM      9  N   UNL     1       2.686  -9.773   1.457  0.00  0.00    -0.311 N 
ATOM     10  H   UNL     1       3.010  -9.218   2.184  0.00  0.00    +0.149 HD
BRANCH   9  11
ATOM     11  C   UNL     1       2.848 -11.227   1.517  0.00  0.00    +0.143 C 
BRANCH  11  12
ATOM     12  C   UNL     1       3.542 -11.604   2.800  0.00  0.00    +0.013 A 
ATOM     13  C   UNL     1       2.823 -12.172   3.834  0.00  0.00    +0.041 A 
ATOM     14  C   UNL     1       3.459 -12.518   5.012  0.00  0.00    +0.127 A 
ATOM     15  C   UNL     1       4.816 -12.295   5.159  0.00  0.00    +0.036 A 
ATOM     16  C   UNL     1       5.539 -11.726   4.128  0.00  0.00    +0.048 A 
ATOM     17  C   UNL     1       4.904 -11.384   2.943  0.00  0.00    +0.122 A 
BRANCH  14  18
ATOM     18  N   UNL     1       2.687 -13.127   6.118  0.00  0.00    +0.056 N 
ATOM     19  O   UNL     1       1.501 -13.322   5.991  0.00  0.00    -0.126 OA
ATOM     20  O   UNL     1       3.243 -13.429   7.148  0.00  0.00    -0.126 OA
ENDBRANCH  14  18
BRANCH  17  21
ATOM     21  O   UNL     1       5.614 -10.830   1.925  0.00  0.00    -0.506 OA
ATOM     22  H   UNL     1       5.656  -9.864   1.956  0.00  0.00    +0.292 HD
ENDBRANCH  17  21
ENDBRANCH  11  12
ENDBRANCH   9  11
ENDBRANCH   4   7
BRANCH   1  23
ATOM     23  S   UNL     1      -0.950  -4.376   0.061  0.00  0.00    +0.061 S 
ATOM     24  O   UNL     1      -1.662  -4.544   1.280  0.00  0.00    -0.153 OA
ATOM     25  O   UNL     1      -1.536  -4.641  -1.206  0.00  0.00    -0.153 OA
BRANCH  23  30
ATOM     26  C   UNL     1       0.919   1.360  -0.067  0.00  0.00    +0.044 C 
ATOM     27  C   UNL     1       0.452  -0.073  -0.035  0.00  0.00    -0.050 A 
ATOM     28  C   UNL     1       0.175  -0.682   1.174  0.00  0.00    +0.008 A 
ATOM     29  C   UNL     1      -0.254  -1.996   1.204  0.00  0.00    -0.024 A 
ATOM     30  C   UNL     1      -0.405  -2.700   0.024  0.00  0.00    +0.111 A 
ATOM     31  C   UNL     1      -0.129  -2.090  -1.185  0.00  0.00    -0.024 A 
ATOM     32  C   UNL     1       0.295  -0.775  -1.215  0.00  0.00    +0.008 A 
ATOM     33  C   UNL     1      -0.294  -2.858  -2.472  0.00  0.00    +0.046 C 
ATOM     34  C   UNL     1      -0.554  -2.662   2.522  0.00  0.00    +0.046 C 
ENDBRANCH  23  30
ENDBRANCH   1  23
TORSDOF 7
