REMARK  Name = ZINC59875566
REMARK  10 active torsions:
REMARK  status: ('A' for Active; 'I' for Inactive)
REMARK    1  A    between atoms: C_1  and  C_2
REMARK    2  A    between atoms: C_2  and  C_4
REMARK    3  A    between atoms: C_2  and  N_10
REMARK    4  A    between atoms: C_11  and  C_13
REMARK    5  A    between atoms: C_18  and  N_19
REMARK    6  A    between atoms: C_20  and  C_22
REMARK    7  A    between atoms: C_22  and  C_23
REMARK    8  A    between atoms: C_23  and  C_24
REMARK    9  A    between atoms: C_24  and  C_25
REMARK   10  A    between atoms: C_25  and  C_26
REMARK                            x       y       z     vdW  Elec       q    Type
REMARK                         _______ _______ _______ _____ _____    ______ ____
ROOT
ATOM      1  N   UNL     1       4.774  -1.004   1.112  0.00  0.00    -0.285 N 
ATOM      2  C   UNL     1       6.087  -1.284   0.994  0.00  0.00    +0.217 C 
ATOM      3  O   UNL     1       6.668  -1.857   1.891  0.00  0.00    -0.275 OA
ATOM      4  H   UNL     1       4.296  -0.600   0.371  0.00  0.00    +0.155 HD
ENDROOT
BRANCH   1  10
ATOM      5  C   UNL     1       3.196  -0.371   2.839  0.00  0.00    +0.058 A 
ATOM      6  C   UNL     1       2.527  -0.676   4.027  0.00  0.00    +0.015 A 
ATOM      7  C   UNL     1       2.766  -1.876   4.662  0.00  0.00    +0.001 A 
ATOM      8  C   UNL     1       3.668  -2.783   4.128  0.00  0.00    +0.002 A 
ATOM      9  C   UNL     1       4.337  -2.495   2.955  0.00  0.00    +0.024 A 
ATOM     10  C   UNL     1       4.105  -1.294   2.299  0.00  0.00    +0.046 A 
BRANCH   5  12
ATOM     11  N   UNL     1       1.987   1.742   2.609  0.00  0.00    -0.305 N 
ATOM     12  C   UNL     1       2.945   0.911   2.154  0.00  0.00    +0.246 C 
ATOM     13  O   UNL     1       3.603   1.218   1.178  0.00  0.00    -0.270 OA
ATOM     14  H   UNL     1       1.462   1.497   3.388  0.00  0.00    +0.150 HD
BRANCH  11  16
ATOM     15  C   UNL     1       2.704   4.075   2.461  0.00  0.00    +0.033 C 
ATOM     16  C   UNL     1       1.737   3.015   1.929  0.00  0.00    +0.100 C 
BRANCH  16  17
ATOM     17  C   UNL     1       0.319   3.453   2.188  0.00  0.00    -0.027 A 
ATOM     18  C   UNL     1      -0.237   3.289   3.443  0.00  0.00    +0.005 A 
ATOM     19  C   UNL     1      -1.538   3.691   3.680  0.00  0.00    +0.000 A 
ATOM     20  C   UNL     1      -2.283   4.258   2.663  0.00  0.00    +0.000 A 
ATOM     21  C   UNL     1      -1.727   4.423   1.408  0.00  0.00    +0.000 A 
ATOM     22  C   UNL     1      -0.424   4.025   1.172  0.00  0.00    +0.005 A 
ENDBRANCH  16  17
ENDBRANCH  11  16
ENDBRANCH   5  12
ENDBRANCH   1  10
BRANCH   2  23
ATOM     23  C   UNL     1       6.833  -0.886  -0.254  0.00  0.00    +0.096 C 
BRANCH  23  24
ATOM     24  C   UNL     1       8.296  -1.318  -0.133  0.00  0.00    +0.009 C 
BRANCH  24  25
ATOM     25  C   UNL     1       9.053  -0.914  -1.399  0.00  0.00    +0.002 C 
BRANCH  25  26
ATOM     26  C   UNL     1      10.516  -1.345  -1.278  0.00  0.00    +0.016 C 
BRANCH  26  27
ATOM     27  C   UNL     1      11.274  -0.941  -2.545  0.00  0.00    +0.069 C 
ATOM     28  C   UNL     1      12.766  -1.322  -2.443  0.00  0.00    +0.108 C 
ATOM     29  C   UNL     1      13.351  -1.873  -3.747  0.00  0.00    +0.105 C 
ATOM     30  C   UNL     1      12.329  -1.948  -4.902  0.00  0.00    +0.093 C 
ATOM     31  S   UNL     1      10.735  -1.954  -3.990  0.00  0.00    -0.154 S 
ATOM     32  N   UNL     1      13.773  -3.240  -3.400  0.00  0.00    -0.294 N 
ATOM     33  C   UNL     1      13.490  -3.469  -2.110  0.00  0.00    +0.300 C 
ATOM     34  O   UNL     1      13.734  -4.523  -1.555  0.00  0.00    -0.253 OA
ATOM     35  N   UNL     1      12.915  -2.438  -1.495  0.00  0.00    -0.294 N 
ATOM     36  H   UNL     1      14.188  -3.872  -4.007  0.00  0.00    +0.151 HD
ATOM     37  H   UNL     1      12.639  -2.427  -0.565  0.00  0.00    +0.151 HD
ENDBRANCH  26  27
ENDBRANCH  25  26
ENDBRANCH  24  25
ENDBRANCH  23  24
ENDBRANCH   2  23
TORSDOF 9
