REMARK  Name = ZINC36577400
REMARK  18 active torsions:
REMARK  status: ('A' for Active; 'I' for Inactive)
REMARK    1  A    between atoms: C_1  and  C_2
REMARK    2  A    between atoms: C_2  and  C_3
REMARK    3  A    between atoms: C_3  and  N_4
REMARK    4  A    between atoms: N_4  and  C_5
REMARK    5  A    between atoms: C_5  and  C_7
REMARK    6  A    between atoms: C_5  and  C_16
REMARK    7  A    between atoms: C_8  and  O_15
REMARK    8  A    between atoms: C_10  and  O_14
REMARK    9  A    between atoms: C_12  and  O_13
REMARK   10  A    between atoms: N_18  and  C_19
REMARK   11  A    between atoms: C_19  and  C_20
REMARK   12  A    between atoms: C_19  and  C_21
REMARK   13  A    between atoms: C_19  and  C_22
REMARK   14  A    between atoms: C_22  and  C_23
REMARK   15  A    between atoms: C_23  and  C_24
REMARK   16  A    between atoms: C_23  and  C_25
REMARK   17  A    between atoms: C_23  and  C_26
REMARK   18  A    between atoms: C_27  and  C_29
REMARK                            x       y       z     vdW  Elec       q    Type
REMARK                         _______ _______ _______ _____ _____    ______ ____
ROOT
ATOM      1  C   UNL     1      -1.061  -5.254  -0.457  0.00  0.00    +0.199 C 
ENDROOT
BRANCH   1   2
ATOM      2  C   UNL     1      -1.155  -5.543  -1.933  0.00  0.00    +0.065 A 
ATOM      3  C   UNL     1      -1.863  -6.649  -2.380  0.00  0.00    +0.129 A 
ATOM      4  C   UNL     1      -1.950  -6.915  -3.738  0.00  0.00    +0.091 A 
ATOM      5  C   UNL     1      -1.329  -6.074  -4.650  0.00  0.00    +0.124 A 
ATOM      6  C   UNL     1      -0.622  -4.968  -4.203  0.00  0.00    +0.091 A 
ATOM      7  C   UNL     1      -0.538  -4.700  -2.845  0.00  0.00    +0.129 A 
BRANCH   7   8
ATOM      8  O   UNL     1       0.151  -3.614  -2.408  0.00  0.00    -0.506 OA
ATOM      9  H   UNL     1       1.086  -3.785  -2.234  0.00  0.00    +0.292 HD
ENDBRANCH   7   8
BRANCH   5  10
ATOM     10  O   UNL     1      -1.413  -6.335  -5.981  0.00  0.00    -0.507 OA
ATOM     11  H   UNL     1      -2.171  -5.922  -6.415  0.00  0.00    +0.292 HD
ENDBRANCH   5  10
BRANCH   3  12
ATOM     12  O   UNL     1      -2.472  -7.472  -1.486  0.00  0.00    -0.506 OA
ATOM     13  H   UNL     1      -3.406  -7.272  -1.339  0.00  0.00    +0.292 HD
ENDBRANCH   3  12
ENDBRANCH   1   2
BRANCH   1  14
ATOM     14  C   UNL     1      -2.305  -4.534  -0.006  0.00  0.00    +0.239 C 
ATOM     15  O   UNL     1      -2.221  -3.427   0.484  0.00  0.00    -0.273 OA
ATOM     16  N   UNL     1      -3.511  -5.118  -0.147  0.00  0.00    -0.308 N 
ATOM     17  H   UNL     1      -3.578  -6.003  -0.539  0.00  0.00    +0.149 HD
BRANCH  16  18
ATOM     18  C   UNL     1      -4.721  -4.417   0.291  0.00  0.00    +0.030 C 
ATOM     19  C   UNL     1      -4.708  -4.284   1.816  0.00  0.00    +0.031 C 
ATOM     20  C   UNL     1      -4.761  -3.025  -0.342  0.00  0.00    +0.031 C 
BRANCH  18  21
ATOM     21  C   UNL     1      -5.955  -5.210  -0.142  0.00  0.00    +0.031 C 
BRANCH  21  22
ATOM     22  C   UNL     1      -6.131  -5.094  -1.657  0.00  0.00    -0.036 C 
ATOM     23  C   UNL     1      -4.758  -5.121  -2.333  0.00  0.00    +0.010 C 
ATOM     24  C   UNL     1      -6.973  -6.266  -2.165  0.00  0.00    +0.010 C 
ATOM     25  C   UNL     1      -6.836  -3.777  -1.989  0.00  0.00    +0.010 C 
ENDBRANCH  21  22
ENDBRANCH  18  21
ENDBRANCH  16  18
ENDBRANCH   1  14
BRANCH   1  26
ATOM     26  N   UNL     1       0.111  -4.415  -0.198  0.00  0.00    -0.282 N 
ATOM     27  C   UNL     1       1.351  -4.928  -0.330  0.00  0.00    +0.249 C 
ATOM     28  O   UNL     1       2.322  -4.207  -0.214  0.00  0.00    -0.270 OA
BRANCH  27  29
ATOM     29  C   UNL     1       1.528  -6.367  -0.617  0.00  0.00    +0.055 A 
ATOM     30  C   UNL     1       0.428  -7.152  -0.968  0.00  0.00    +0.014 A 
ATOM     31  C   UNL     1       0.601  -8.494  -1.234  0.00  0.00    +0.001 A 
ATOM     32  C   UNL     1       1.860  -9.064  -1.154  0.00  0.00    +0.001 A 
ATOM     33  C   UNL     1       2.954  -8.293  -0.806  0.00  0.00    +0.021 A 
ATOM     34  C   UNL     1       2.797  -6.946  -0.543  0.00  0.00    +0.053 A 
ATOM     35 CL   UNL     1       4.172  -5.977  -0.114  0.00  0.00    -0.083 Cl
ENDBRANCH  27  29
BRANCH  26  36
ATOM     36  C   UNL     1      -0.064  -3.017   0.206  0.00  0.00    +0.109 C 
BRANCH  36  38
ATOM     37  C   UNL     1      -0.320  -1.476   2.155  0.00  0.00    +0.005 C 
ATOM     38  C   UNL     1      -0.219  -2.941   1.726  0.00  0.00    +0.016 C 
ENDBRANCH  36  38
ENDBRANCH  26  36
ENDBRANCH   1  26
TORSDOF 12
