REMARK  Name = ZINC52094183
REMARK  2 active torsions:
REMARK  status: ('A' for Active; 'I' for Inactive)
REMARK    1  A    between atoms: C_5  and  C_6
REMARK    2  A    between atoms: C_6  and  C_8
REMARK                            x       y       z     vdW  Elec       q    Type
REMARK                         _______ _______ _______ _____ _____    ______ ____
ROOT
ATOM      1  C   UNL     1      -0.873  -2.393  -0.114  0.00  0.00    +0.039 A 
ATOM      2  C   UNL     1       0.437  -2.879  -0.129  0.00  0.00    +0.040 A 
ATOM      3  C   UNL     1       0.663  -4.237  -0.243  0.00  0.00    +0.068 A 
ATOM      4  C   UNL     1      -0.417  -5.122  -0.342  0.00  0.00    +0.068 A 
ATOM      5  C   UNL     1      -1.718  -4.636  -0.328  0.00  0.00    +0.043 A 
ATOM      6  C   UNL     1      -1.949  -3.283  -0.209  0.00  0.00    +0.031 A 
ATOM      7 BR   UNL     1      -3.722  -2.626  -0.181  0.00  0.00    -0.049 Br
ATOM      8  N   UNL     1       0.119  -6.399  -0.441  0.00  0.00    -0.306 N 
ATOM      9  H   UNL     1      -0.388  -7.222  -0.524  0.00  0.00    +0.170 HD
ATOM     10  C   UNL     1       1.461  -6.303  -0.405  0.00  0.00    +0.325 A 
ATOM     11  O   UNL     1       2.232  -7.242  -0.470  0.00  0.00    -0.247 OA
ATOM     12  N   UNL     1       1.821  -5.012  -0.285  0.00  0.00    -0.306 N 
ATOM     13  H   UNL     1       2.731  -4.677  -0.237  0.00  0.00    +0.170 HD
ENDROOT
BRANCH   1  14
ATOM     14  C   UNL     1      -1.122  -0.943   0.007  0.00  0.00    +0.201 C 
ATOM     15  O   UNL     1      -2.255  -0.532   0.179  0.00  0.00    -0.286 OA
BRANCH  14  20
ATOM     16  C   UNL     1      -0.001   1.367   0.133  0.00  0.00    +0.023 A 
ATOM     17  C   UNL     1       1.220   2.024  -0.021  0.00  0.00    -0.036 A 
ATOM     18  C   UNL     1       2.286   1.256  -0.366  0.00  0.00    -0.006 A 
ATOM     19  S   UNL     1       1.701  -0.310  -0.484  0.00  0.00    -0.090 S 
ATOM     20  C   UNL     1      -0.006   0.001  -0.079  0.00  0.00    +0.060 A 
ATOM     21  C   UNL     1       3.542   2.075  -0.508  0.00  0.00    +0.043 C 
ATOM     22  C   UNL     1       3.046   3.532  -0.631  0.00  0.00    +0.010 C 
ATOM     23  C   UNL     1       1.696   3.473   0.109  0.00  0.00    +0.036 C 
ENDBRANCH  14  20
ENDBRANCH   1  14
TORSDOF 2
