REMARK  Name = ZINC58790586
REMARK  15 active torsions:
REMARK  status: ('A' for Active; 'I' for Inactive)
REMARK    1  A    between atoms: C_1  and  C_2
REMARK    2  A    between atoms: C_2  and  C_3
REMARK    3  A    between atoms: C_3  and  C_4
REMARK    4  A    between atoms: C_4  and  N_5
REMARK    5  A    between atoms: N_5  and  C_6
REMARK    6  A    between atoms: C_7  and  N_19
REMARK    7  A    between atoms: N_8  and  C_15
REMARK    8  A    between atoms: C_15  and  C_16
REMARK    9  A    between atoms: C_16  and  C_17
REMARK   10  A    between atoms: C_16  and  C_18
REMARK   11  A    between atoms: C_20  and  C_22
REMARK   12  A    between atoms: C_22  and  N_23
REMARK   13  A    between atoms: C_31  and  C_33
REMARK   14  A    between atoms: C_33  and  C_34
REMARK   15  A    between atoms: C_33  and  C_35
REMARK                            x       y       z     vdW  Elec       q    Type
REMARK                         _______ _______ _______ _____ _____    ______ ____
ROOT
ATOM      1  N   UNL     1       1.364  -2.517  -2.393  0.00  0.00    -0.263 N 
ATOM      2  C   UNL     1       0.521  -2.872  -3.385  0.00  0.00    +0.237 C 
ATOM      3  O   UNL     1       0.955  -3.393  -4.391  0.00  0.00    -0.274 OA
ENDROOT
BRANCH   1   4
ATOM      4  C   UNL     1       2.758  -2.644  -2.571  0.00  0.00    +0.140 A 
ATOM      5  C   UNL     1       3.482  -3.545  -1.818  0.00  0.00    +0.127 A 
ATOM      6  N   UNL     1       4.840  -3.647  -2.015  0.00  0.00    -0.280 N 
ATOM      7  C   UNL     1       5.454  -2.877  -2.931  0.00  0.00    +0.331 A 
ATOM      8  O   UNL     1       6.655  -2.982  -3.090  0.00  0.00    -0.246 OA
ATOM      9  N   UNL     1       4.765  -1.994  -3.675  0.00  0.00    -0.273 N 
ATOM     10  H   UNL     1       5.231  -1.451  -4.329  0.00  0.00    +0.173 HD
ATOM     11  C   UNL     1       3.432  -1.859  -3.525  0.00  0.00    +0.277 A 
ATOM     12  O   UNL     1       2.816  -1.059  -4.208  0.00  0.00    -0.266 OA
BRANCH   5  13
ATOM     13  N   UNL     1       2.855  -4.331  -0.881  0.00  0.00    -0.343 N 
ATOM     14  H   UNL     1       1.909  -4.212  -0.703  0.00  0.00    +0.144 HD
ATOM     15  H   UNL     1       3.358  -5.005  -0.398  0.00  0.00    +0.144 HD
ENDBRANCH   5  13
BRANCH   6  16
ATOM     16  C   UNL     1       5.621  -4.599  -1.222  0.00  0.00    +0.131 C 
BRANCH  16  17
ATOM     17  C   UNL     1       5.672  -5.946  -1.947  0.00  0.00    +0.003 C 
ATOM     18  C   UNL     1       6.590  -6.902  -1.182  0.00  0.00    +0.009 C 
ATOM     19  C   UNL     1       4.264  -6.539  -2.019  0.00  0.00    +0.009 C 
ENDBRANCH  16  17
ENDBRANCH   6  16
ENDBRANCH   1   4
BRANCH   1  20
ATOM     20  C   UNL     1       0.832  -1.998  -1.130  0.00  0.00    +0.114 C 
BRANCH  20  21
ATOM     21  C   UNL     1       0.810  -0.469  -1.176  0.00  0.00    +0.019 C 
BRANCH  21  23
ATOM     22  C   UNL     1       0.232   1.602   0.097  0.00  0.00    +0.004 C 
ATOM     23  C   UNL     1       0.254   0.073   0.143  0.00  0.00    -0.002 C 
ENDBRANCH  21  23
ENDBRANCH  20  21
ENDBRANCH   1  20
BRANCH   2  24
ATOM     24  C   UNL     1      -0.958  -2.622  -3.242  0.00  0.00    +0.201 C 
BRANCH  24  25
ATOM     25  N   UNL     1      -1.651  -3.094  -4.444  0.00  0.00    -0.321 N 
ATOM     26  C   UNL     1      -1.857  -2.195  -5.588  0.00  0.00    +0.106 C 
ATOM     27  C   UNL     1      -3.304  -2.370  -6.067  0.00  0.00    +0.024 C 
ATOM     28  C   UNL     1      -3.491  -3.805  -6.558  0.00  0.00    +0.038 C 
ATOM     29  C   UNL     1      -3.013  -4.785  -5.519  0.00  0.00    -0.026 A 
ATOM     30  C   UNL     1      -2.122  -4.409  -4.523  0.00  0.00    +0.033 A 
ATOM     31  C   UNL     1      -1.691  -5.340  -3.585  0.00  0.00    +0.023 A 
ATOM     32  C   UNL     1      -2.147  -6.642  -3.644  0.00  0.00    +0.006 A 
ATOM     33  C   UNL     1      -3.033  -7.018  -4.637  0.00  0.00    -0.044 A 
ATOM     34  C   UNL     1      -3.471  -6.090  -5.567  0.00  0.00    +0.009 A 
BRANCH  33  35
ATOM     35  C   UNL     1      -3.531  -8.439  -4.700  0.00  0.00    +0.013 C 
ATOM     36  C   UNL     1      -2.345  -9.388  -4.882  0.00  0.00    +0.012 C 
ATOM     37  C   UNL     1      -4.264  -8.780  -3.402  0.00  0.00    +0.012 C 
ENDBRANCH  33  35
ENDBRANCH  24  25
ENDBRANCH   2  24
TORSDOF 10
