REMARK  Name = ZINC59417894
REMARK  5 active torsions:
REMARK  status: ('A' for Active; 'I' for Inactive)
REMARK    1  A    between atoms: C_1  and  C_2
REMARK    2  A    between atoms: C_5  and  C_9
REMARK    3  A    between atoms: C_12  and  C_14
REMARK    4  A    between atoms: N_15  and  N_16
REMARK    5  A    between atoms: N_28  and  C_29
REMARK                            x       y       z     vdW  Elec       q    Type
REMARK                         _______ _______ _______ _____ _____    ______ ____
ROOT
ATOM      1  N   UNL     1      -3.216  -8.466  -2.017  0.00  0.00    -0.205 N 
ATOM      2  C   UNL     1      -4.071  -8.282  -3.086  0.00  0.00    +0.241 A 
ATOM      3  N   UNL     1      -4.435  -7.054  -3.442  0.00  0.00    -0.179 NA
ATOM      4  C   UNL     1      -5.258  -6.877  -4.470  0.00  0.00    +0.225 A 
ATOM      5  N   UNL     1      -5.718  -7.928  -5.142  0.00  0.00    -0.181 NA
ATOM      6  C   UNL     1      -5.354  -9.156  -4.787  0.00  0.00    +0.224 A 
ATOM      7  N   UNL     1      -4.526  -9.333  -3.762  0.00  0.00    -0.180 NA
ATOM      8  N   UNL     1      -5.832 -10.247  -5.484  0.00  0.00    -0.299 N 
ATOM      9  C   UNL     1      -6.739 -10.194  -6.640  0.00  0.00    +0.108 C 
ATOM     10  C   UNL     1      -7.018 -11.650  -7.070  0.00  0.00    +0.020 C 
ATOM     11  C   UNL     1      -6.703 -12.459  -5.784  0.00  0.00    +0.020 C 
ATOM     12  C   UNL     1      -5.511 -11.657  -5.199  0.00  0.00    +0.108 C 
ATOM     13  N   UNL     1      -5.637  -5.601  -4.840  0.00  0.00    -0.283 N 
ATOM     14  H   UNL     1      -2.947  -9.362  -1.760  0.00  0.00    +0.177 HD
ATOM     15  H   UNL     1      -6.300  -5.474  -5.537  0.00  0.00    +0.155 HD
ENDROOT
BRANCH  13  16
ATOM     16  C   UNL     1      -5.064  -4.491  -4.210  0.00  0.00    +0.034 A 
ATOM     17  C   UNL     1      -3.720  -4.506  -3.862  0.00  0.00    +0.023 A 
ATOM     18  C   UNL     1      -3.157  -3.409  -3.240  0.00  0.00    +0.002 A 
ATOM     19  C   UNL     1      -3.931  -2.296  -2.964  0.00  0.00    +0.000 A 
ATOM     20  C   UNL     1      -5.270  -2.278  -3.310  0.00  0.00    +0.002 A 
ATOM     21  C   UNL     1      -5.837  -3.370  -3.937  0.00  0.00    +0.023 A 
ENDBRANCH  13  16
BRANCH   1  23
ATOM     22  C   UNL     1      -1.930  -7.533  -0.298  0.00  0.00    +0.176 C 
ATOM     23  N   UNL     1      -2.736  -7.359  -1.305  0.00  0.00    -0.184 NA
BRANCH  22  27
ATOM     24  C   UNL     1      -1.084  -4.299   1.080  0.00  0.00    +0.137 A 
ATOM     25  C   UNL     1      -0.363  -5.094   1.921  0.00  0.00    +0.050 A 
ATOM     26  C   UNL     1      -0.582  -6.419   1.519  0.00  0.00    +0.051 A 
ATOM     27  C   UNL     1      -1.429  -6.376   0.447  0.00  0.00    +0.148 A 
ATOM     28  O   UNL     1      -1.729  -5.085   0.197  0.00  0.00    -0.454 OA
BRANCH  24  33
ATOM     29  C   UNL     1      -1.348   1.445   1.285  0.00  0.00    +0.044 C 
ATOM     30  C   UNL     1      -1.279  -0.059   1.232  0.00  0.00    -0.049 A 
ATOM     31  C   UNL     1      -1.009  -0.695   0.032  0.00  0.00    +0.004 A 
ATOM     32  C   UNL     1      -0.944  -2.071  -0.025  0.00  0.00    +0.013 A 
ATOM     33  C   UNL     1      -1.151  -2.825   1.133  0.00  0.00    +0.031 A 
ATOM     34  C   UNL     1      -1.423  -2.178   2.341  0.00  0.00    +0.029 A 
ATOM     35  C   UNL     1      -1.480  -0.799   2.384  0.00  0.00    +0.019 A 
ATOM     36 BR   UNL     1      -1.707  -3.187   3.915  0.00  0.00    -0.050 Br
ENDBRANCH  24  33
ENDBRANCH  22  27
ENDBRANCH   1  23
TORSDOF 4
