REMARK  Name = ZINC20679261
REMARK  7 active torsions:
REMARK  status: ('A' for Active; 'I' for Inactive)
REMARK    1  A    between atoms: C_1  and  O_2
REMARK    2  A    between atoms: O_2  and  C_3
REMARK    3  A    between atoms: C_6  and  N_9
REMARK    4  A    between atoms: N_9  and  S_10
REMARK    5  A    between atoms: S_10  and  C_13
REMARK    6  A    between atoms: C_26  and  C_29
REMARK    7  A    between atoms: C_32  and  O_35
REMARK                            x       y       z     vdW  Elec       q    Type
REMARK                         _______ _______ _______ _____ _____    ______ ____
ROOT
ATOM      1  C   UNL     1      -1.011  -2.579   1.323  0.00  0.00    +0.109 A 
ATOM      2  C   UNL     1      -2.248  -2.567   1.940  0.00  0.00    +0.030 A 
ATOM      3  C   UNL     1      -2.655  -1.459   2.655  0.00  0.00    +0.025 A 
ATOM      4  C   UNL     1      -1.826  -0.349   2.761  0.00  0.00    +0.031 A 
ATOM      5  C   UNL     1      -0.570  -0.374   2.144  0.00  0.00    -0.018 A 
ATOM      6  C   UNL     1      -0.176  -1.482   1.426  0.00  0.00    +0.034 A 
ATOM      7  C   UNL     1       0.299   0.811   2.317  0.00  0.00    +0.049 C 
ATOM      8  C   UNL     1       1.341   1.172   1.322  0.00  0.00    -0.023 C 
ATOM      9  C   UNL     1       1.482   2.492   1.315  0.00  0.00    -0.030 C 
ATOM     10  C   UNL     1       0.499   3.127   2.301  0.00  0.00    +0.033 C 
ATOM     11  C   UNL     1      -0.614   2.073   2.350  0.00  0.00    +0.029 C 
ATOM     12  C   UNL     1      -1.408   1.964   3.639  0.00  0.00    +0.105 C 
ATOM     13  N   UNL     1      -2.266   0.770   3.479  0.00  0.00    -0.336 N 
ATOM     14  H   UNL     1      -3.271   0.750   3.928  0.00  0.00    +0.147 HD
ENDROOT
BRANCH  12  15
ATOM     15  C   UNL     1      -2.258   3.193   3.833  0.00  0.00    -0.027 A 
ATOM     16  C   UNL     1      -3.414   3.357   3.093  0.00  0.00    +0.009 A 
ATOM     17  C   UNL     1      -4.198   4.480   3.273  0.00  0.00    +0.046 A 
ATOM     18  C   UNL     1      -3.817   5.450   4.189  0.00  0.00    +0.117 A 
ATOM     19  C   UNL     1      -2.654   5.287   4.926  0.00  0.00    +0.046 A 
ATOM     20  C   UNL     1      -1.877   4.159   4.747  0.00  0.00    +0.009 A 
BRANCH  18  21
ATOM     21  O   UNL     1      -4.584   6.559   4.364  0.00  0.00    -0.507 OA
ATOM     22  H   UNL     1      -4.281   7.328   5.090  0.00  0.00    +0.292 HD
ENDBRANCH  18  21
ENDBRANCH  12  15
BRANCH   1  23
ATOM     23  S   UNL     1      -0.499  -3.993   0.404  0.00  0.00    +0.072 S 
ATOM     24  O   UNL     1      -1.681  -4.599  -0.101  0.00  0.00    -0.150 OA
ATOM     25  O   UNL     1       0.560  -3.566  -0.442  0.00  0.00    -0.150 OA
BRANCH  23  26
ATOM     26  N   UNL     1       0.159  -5.065   1.481  0.00  0.00    -0.216 N 
ATOM     27  H   UNL     1      -0.305  -6.051   1.629  0.00  0.00    +0.174 HD
BRANCH  26  31
ATOM     28  C   UNL     1       3.577  -4.027   3.630  0.00  0.00    +0.120 A 
ATOM     29  C   UNL     1       2.339  -4.031   4.256  0.00  0.00    +0.047 A 
ATOM     30  C   UNL     1       1.206  -4.375   3.545  0.00  0.00    +0.028 A 
ATOM     31  C   UNL     1       1.307  -4.716   2.202  0.00  0.00    +0.048 A 
ATOM     32  C   UNL     1       2.547  -4.717   1.578  0.00  0.00    +0.028 A 
ATOM     33  C   UNL     1       3.678  -4.368   2.289  0.00  0.00    +0.047 A 
BRANCH  28  35
ATOM     34  C   UNL     1       5.933  -3.706   3.624  0.00  0.00    +0.277 C 
ATOM     35  O   UNL     1       4.692  -3.689   4.331  0.00  0.00    -0.495 OA
ENDBRANCH  28  35
ENDBRANCH  26  31
ENDBRANCH  23  26
ENDBRANCH   1  23
TORSDOF 6
