REMARK  Name = ZINC63491581
REMARK  6 active torsions:
REMARK  status: ('A' for Active; 'I' for Inactive)
REMARK    1  A    between atoms: C_1  and  C_2
REMARK    2  A    between atoms: C_2  and  S_3
REMARK    3  A    between atoms: S_3  and  C_4
REMARK    4  A    between atoms: C_11  and  C_15
REMARK    5  A    between atoms: C_15  and  S_16
REMARK    6  A    between atoms: S_16  and  C_17
REMARK                            x       y       z     vdW  Elec       q    Type
REMARK                         _______ _______ _______ _____ _____    ______ ____
ROOT
ATOM      1  C   UNL     1       0.792  -2.345  -1.354  0.00  0.00    +0.152 C 
ATOM      2  N   UNL     1       0.258  -3.066  -0.406  0.00  0.00    -0.161 NA
ATOM      3  N   UNL     1       0.294  -4.444  -0.402  0.00  0.00    -0.157 N 
ATOM      4  C   UNL     1       1.304  -5.012  -1.351  0.00  0.00    +0.251 C 
ATOM      5  S   UNL     1       1.444  -3.569  -2.486  0.00  0.00    -0.054 S 
ATOM      6  N   UNL     1       0.638  -6.130  -2.032  0.00  0.00    -0.318 N 
ATOM      7  C   UNL     1      -0.038  -7.034  -1.244  0.00  0.00    +0.021 C 
ATOM      8  C   UNL     1      -0.582  -6.634  -0.076  0.00  0.00    +0.088 C 
ATOM      9  C   UNL     1      -0.485  -5.283   0.329  0.00  0.00    +0.263 C 
ATOM     10  O   UNL     1      -1.062  -4.893   1.330  0.00  0.00    -0.269 OA
ATOM     11  H   UNL     1       0.674  -6.227  -2.996  0.00  0.00    +0.148 HD
ENDROOT
BRANCH   1  12
ATOM     12  S   UNL     1       0.851  -0.589  -1.490  0.00  0.00    -0.098 S 
BRANCH  12  14
ATOM     13  C   UNL     1      -0.019   1.526   0.010  0.00  0.00    +0.016 C 
ATOM     14  C   UNL     1       0.002  -0.004   0.002  0.00  0.00    +0.073 C 
ENDBRANCH  12  14
ENDBRANCH   1  12
BRANCH   7  15
ATOM     15  C   UNL     1      -0.171  -8.469  -1.685  0.00  0.00    +0.123 C 
BRANCH  15  16
ATOM     16  S   UNL     1      -1.402  -8.582  -3.013  0.00  0.00    -0.109 S 
BRANCH  16  17
ATOM     17  C   UNL     1      -1.442 -10.348  -3.425  0.00  0.00    +0.236 C 
ATOM     18  N   UNL     1      -1.763 -11.138  -2.230  0.00  0.00    -0.355 N 
ATOM     19  C   UNL     1      -0.758 -11.935  -2.007  0.00  0.00    +0.061 A 
ATOM     20  C   UNL     1      -0.495 -12.947  -0.975  0.00  0.00    +0.027 A 
ATOM     21  C   UNL     1       0.663 -13.636  -0.998  0.00  0.00    +0.002 A 
ATOM     22  C   UNL     1       1.648 -13.429  -1.980  0.00  0.00    +0.002 A 
ATOM     23  C   UNL     1       1.508 -12.526  -2.972  0.00  0.00    +0.027 A 
ATOM     24  C   UNL     1       0.285 -11.716  -3.046  0.00  0.00    +0.061 A 
ATOM     25  N   UNL     1      -0.115 -10.791  -3.871  0.00  0.00    -0.355 N 
ATOM     26  H   UNL     1      -2.574 -11.076  -1.702  0.00  0.00    +0.162 HD
ATOM     27  H   UNL     1       0.373 -10.457  -4.639  0.00  0.00    +0.162 HD
ENDBRANCH  16  17
ENDBRANCH  15  16
ENDBRANCH   7  15
TORSDOF 5
