REMARK  Name = ZINC06743236
REMARK  12 active torsions:
REMARK  status: ('A' for Active; 'I' for Inactive)
REMARK    1  A    between atoms: C_1  and  C_2
REMARK    2  A    between atoms: C_2  and  O_3
REMARK    3  A    between atoms: O_3  and  C_4
REMARK    4  A    between atoms: C_6  and  C_11
REMARK    5  A    between atoms: C_9  and  O_10
REMARK    6  A    between atoms: C_14  and  C_25
REMARK    7  A    between atoms: N_21  and  C_22
REMARK    8  A    between atoms: C_22  and  C_23
REMARK    9  A    between atoms: C_23  and  O_24
REMARK   10  A    between atoms: C_26  and  C_33
REMARK   11  A    between atoms: C_28  and  C_32
REMARK   12  A    between atoms: C_30  and  O_31
REMARK                            x       y       z     vdW  Elec       q    Type
REMARK                         _______ _______ _______ _____ _____    ______ ____
ROOT
ATOM      1  C   UNL     1      -0.112  -4.854  -0.682  0.00  0.00    +0.141 C 
ATOM      2  C   UNL     1      -1.415  -5.306  -0.083  0.00  0.00    +0.035 A 
ATOM      3  C   UNL     1      -2.681  -4.948   0.395  0.00  0.00    +0.102 A 
ATOM      4  N   UNL     1      -3.281  -6.054   0.788  0.00  0.00    -0.173 NA
ATOM      5  N   UNL     1      -2.521  -7.074   0.606  0.00  0.00    -0.272 N 
ATOM      6  H   UNL     1      -2.756  -7.990   0.823  0.00  0.00    +0.189 HD
ATOM      7  C   UNL     1      -1.332  -6.678   0.062  0.00  0.00    +0.126 A 
ATOM      8  C   UNL     1      -0.020  -7.119  -0.424  0.00  0.00    +0.266 C 
ATOM      9  O   UNL     1       0.364  -8.273  -0.433  0.00  0.00    -0.268 OA
ATOM     10  N   UNL     1       0.698  -6.067  -0.860  0.00  0.00    -0.283 N 
ENDROOT
BRANCH   3  11
ATOM     11  C   UNL     1      -3.244  -3.576   0.449  0.00  0.00    +0.047 A 
ATOM     12  C   UNL     1      -3.823  -3.104   1.624  0.00  0.00    -0.037 A 
ATOM     13  C   UNL     1      -4.346  -1.827   1.670  0.00  0.00    +0.007 A 
ATOM     14  C   UNL     1      -4.295  -1.014   0.552  0.00  0.00    -0.047 A 
ATOM     15  C   UNL     1      -3.723  -1.472  -0.619  0.00  0.00    +0.049 A 
ATOM     16  C   UNL     1      -3.189  -2.750  -0.677  0.00  0.00    +0.127 A 
ATOM     17  C   UNL     1      -4.868   0.379   0.612  0.00  0.00    +0.044 C 
ATOM     18  C   UNL     1      -3.881  -3.987   2.844  0.00  0.00    +0.044 C 
BRANCH  16  19
ATOM     19  O   UNL     1      -2.620  -3.200  -1.825  0.00  0.00    -0.506 OA
ATOM     20  H   UNL     1      -3.251  -3.572  -2.457  0.00  0.00    +0.292 HD
ENDBRANCH  16  19
ENDBRANCH   3  11
BRANCH   1  23
ATOM     21  C   UNL     1       1.353  -1.686   0.762  0.00  0.00    +0.162 A 
ATOM     22  C   UNL     1       0.713  -2.566  -0.095  0.00  0.00    +0.055 A 
ATOM     23  C   UNL     1       0.585  -3.898   0.252  0.00  0.00    -0.019 A 
ATOM     24  C   UNL     1       1.093  -4.355   1.453  0.00  0.00    +0.009 A 
ATOM     25  C   UNL     1       1.732  -3.482   2.313  0.00  0.00    +0.049 A 
ATOM     26  C   UNL     1       1.870  -2.147   1.969  0.00  0.00    +0.158 A 
BRANCH  26  27
ATOM     27  O   UNL     1       2.504  -1.287   2.812  0.00  0.00    -0.503 OA
ATOM     28  H   UNL     1       1.918  -0.861   3.452  0.00  0.00    +0.292 HD
ENDBRANCH  26  27
BRANCH  21  29
ATOM     29  O   UNL     1       1.481  -0.375   0.422  0.00  0.00    -0.489 OA
BRANCH  29  31
ATOM     30  C   UNL     1       1.165   1.524  -1.039  0.00  0.00    +0.048 C 
ATOM     31  C   UNL     1       0.926   0.027  -0.832  0.00  0.00    +0.226 C 
ENDBRANCH  29  31
ENDBRANCH  21  29
ENDBRANCH   1  23
BRANCH  10  32
ATOM     32  C   UNL     1       2.052  -6.120  -1.416  0.00  0.00    +0.137 C 
BRANCH  32  33
ATOM     33  C   UNL     1       3.072  -6.107  -0.275  0.00  0.00    +0.175 C 
BRANCH  33  34
ATOM     34  O   UNL     1       2.943  -7.305   0.493  0.00  0.00    -0.393 OA
ATOM     35  H   UNL     1       3.560  -7.365   1.235  0.00  0.00    +0.209 HD
ENDBRANCH  33  34
ENDBRANCH  32  33
ENDBRANCH  10  32
TORSDOF 9
