REMARK  Name = ZINC12035375
REMARK  7 active torsions:
REMARK  status: ('A' for Active; 'I' for Inactive)
REMARK    1  A    between atoms: C_9  and  C_12
REMARK    2  A    between atoms: C_19  and  C_20
REMARK    3  A    between atoms: C_19  and  N_59
REMARK    4  A    between atoms: C_20  and  N_21
REMARK    5  A    between atoms: C_22  and  C_24
REMARK    6  A    between atoms: C_24  and  C_25
REMARK    7  A    between atoms: C_25  and  C_26
REMARK                            x       y       z     vdW  Elec       q    Type
REMARK                         _______ _______ _______ _____ _____    ______ ____
ROOT
ATOM      1  C   UNL     1       5.635   6.953   2.245  0.00  0.00    +0.000 A 
ATOM      2  C   UNL     1       4.613   6.524   3.072  0.00  0.00    +0.004 A 
ATOM      3  C   UNL     1       3.471   5.962   2.534  0.00  0.00    +0.046 A 
ATOM      4  C   UNL     1       3.354   5.830   1.157  0.00  0.00    +0.123 A 
ATOM      5  C   UNL     1       4.370   6.277   0.334  0.00  0.00    -0.022 A 
ATOM      6  C   UNL     1       5.513   6.830   0.872  0.00  0.00    +0.005 A 
ATOM      7  C   UNL     1       4.216   6.156  -1.170  0.00  0.00    -0.039 C 
ATOM      8  C   UNL     1       2.948   4.090  -1.405  0.00  0.00    -0.028 C 
ATOM      9  C   UNL     1       2.484   3.948   0.029  0.00  0.00    +0.190 C 
ATOM     10  O   UNL     1       2.256   5.234   0.618  0.00  0.00    -0.486 OA
ATOM     11  N   UNL     1       4.283   4.717  -1.519  0.00  0.00    +0.386 N 
ATOM     12  H   UNL     1       4.924   4.250  -0.867  0.00  0.00    -0.081 HD
ENDROOT
BRANCH   9  13
ATOM     13  C   UNL     1       1.203   3.154   0.059  0.00  0.00    +0.026 A 
ATOM     14  C   UNL     1      -0.015   3.807   0.073  0.00  0.00    +0.010 A 
ATOM     15  C   UNL     1      -1.190   3.079   0.101  0.00  0.00    +0.001 A 
ATOM     16  C   UNL     1      -1.148   1.697   0.109  0.00  0.00    +0.003 A 
ATOM     17  C   UNL     1       0.069   1.042   0.100  0.00  0.00    +0.039 A 
ATOM     18  C   UNL     1       1.247   1.770   0.072  0.00  0.00    +0.130 A 
ATOM     19  F   UNL     1       2.437   1.131   0.058  0.00  0.00    -0.205 F 
ENDBRANCH   9  13
BRANCH  11  20
ATOM     20  C   UNL     1       4.795   4.555  -2.889  0.00  0.00    -0.059 C 
BRANCH  20  21
ATOM     21  C   UNL     1       3.922   5.309  -3.894  0.00  0.00    +0.085 C 
BRANCH  21  22
ATOM     22  N   UNL     1       4.401   5.043  -5.253  0.00  0.00    -0.317 N 
ATOM     23  C   UNL     1       3.780   5.605  -6.309  0.00  0.00    +0.213 C 
ATOM     24  O   UNL     1       2.825   6.331  -6.134  0.00  0.00    -0.276 OA
ATOM     25  H   UNL     1       5.165   4.462  -5.393  0.00  0.00    +0.149 HD
BRANCH  23  26
ATOM     26  C   UNL     1       4.273   5.332  -7.706  0.00  0.00    +0.101 C 
BRANCH  26  27
ATOM     27  C   UNL     1       3.400   6.085  -8.712  0.00  0.00    +0.061 C 
BRANCH  27  28
ATOM     28  C   UNL     1       3.893   5.812 -10.109  0.00  0.00    +0.038 C 
ATOM     29  N   UNL     1       4.902   5.050 -10.280  0.00  0.00    -0.189 NA
ATOM     30  N   UNL     1       5.393   4.766 -11.558  0.00  0.00    -0.207 N 
ATOM     31  C   UNL     1       5.092   5.570 -12.597  0.00  0.00    +0.233 C 
ATOM     32  O   UNL     1       5.529   5.330 -13.702  0.00  0.00    -0.274 OA
ATOM     33  C   UNL     1       4.206   6.771 -12.375  0.00  0.00    +0.103 C 
ATOM     34  C   UNL     1       3.189   6.447 -11.279  0.00  0.00    +0.062 C 
ATOM     35  H   UNL     1       5.957   3.989 -11.697  0.00  0.00    +0.177 HD
ENDBRANCH  27  28
ENDBRANCH  26  27
ENDBRANCH  23  26
ENDBRANCH  21  22
ENDBRANCH  20  21
ENDBRANCH  11  20
TORSDOF 7
