REMARK  Name = ZINC05735014
REMARK  14 active torsions:
REMARK  status: ('A' for Active; 'I' for Inactive)
REMARK    1  A    between atoms: C_1  and  C_2
REMARK    2  A    between atoms: C_2  and  C_4
REMARK    3  A    between atoms: C_2  and  N_52
REMARK    4  A    between atoms: C_4  and  C_5
REMARK    5  A    between atoms: C_5  and  C_6
REMARK    6  A    between atoms: C_9  and  O_12
REMARK    7  A    between atoms: O_12  and  C_13
REMARK    8  A    between atoms: C_14  and  C_15
REMARK    9  A    between atoms: C_14  and  N_52
REMARK   10  A    between atoms: C_15  and  C_17
REMARK   11  A    between atoms: C_15  and  O_27
REMARK   12  A    between atoms: C_20  and  O_26
REMARK   13  A    between atoms: C_21  and  S_23
REMARK   14  A    between atoms: S_23  and  C_25
REMARK                            x       y       z     vdW  Elec       q    Type
REMARK                         _______ _______ _______ _____ _____    ______ ____
ROOT
ATOM      1  C   UNL     1      -1.792   3.621  -2.049  0.00  0.00    -0.046 C 
ENDROOT
BRANCH   1   2
ATOM      2  N   UNL     1      -0.662   3.064  -1.282  0.00  0.00    +0.383 N 
ATOM      3  H   UNL     1       0.220   3.334  -1.733  0.00  0.00    -0.085 HD
ATOM      4  H   UNL     1      -0.685   3.438  -0.326  0.00  0.00    -0.085 HD
BRANCH   2   6
ATOM      5  C   UNL     1      -0.111   0.998  -2.487  0.00  0.00    -0.014 C 
ATOM      6  C   UNL     1      -0.753   1.593  -1.232  0.00  0.00    -0.075 C 
BRANCH   6   7
ATOM      7  C   UNL     1      -0.013   1.086   0.008  0.00  0.00    -0.011 C 
BRANCH   7   8
ATOM      8  C   UNL     1      -0.729   1.579   1.267  0.00  0.00    +0.033 C 
BRANCH   8   9
ATOM      9  C   UNL     1       0.000   1.080   2.488  0.00  0.00    -0.047 A 
ATOM     10  C   UNL     1      -0.348  -0.134   3.051  0.00  0.00    +0.007 A 
ATOM     11  C   UNL     1       0.322  -0.596   4.167  0.00  0.00    +0.046 A 
ATOM     12  C   UNL     1       1.338   0.164   4.729  0.00  0.00    +0.120 A 
ATOM     13  C   UNL     1       1.682   1.383   4.165  0.00  0.00    +0.046 A 
ATOM     14  C   UNL     1       1.012   1.839   3.046  0.00  0.00    +0.007 A 
BRANCH  12  15
ATOM     15  O   UNL     1       1.996  -0.287   5.830  0.00  0.00    -0.495 OA
ATOM     16  C   UNL     1       1.588  -1.551   6.356  0.00  0.00    +0.277 C 
ENDBRANCH  12  15
ENDBRANCH   8   9
ENDBRANCH   7   8
ENDBRANCH   6   7
ENDBRANCH   2   6
ENDBRANCH   1   2
BRANCH   1  17
ATOM     17  C   UNL     1      -1.671   5.146  -2.084  0.00  0.00    +0.128 C 
BRANCH  17  18
ATOM     18  C   UNL     1      -2.884   5.731  -2.760  0.00  0.00    -0.020 A 
ATOM     19  C   UNL     1      -2.965   5.745  -4.141  0.00  0.00    +0.010 A 
ATOM     20  C   UNL     1      -4.079   6.275  -4.763  0.00  0.00    +0.047 A 
ATOM     21  C   UNL     1      -5.111   6.804  -4.001  0.00  0.00    +0.133 A 
ATOM     22  C   UNL     1      -5.025   6.793  -2.617  0.00  0.00    +0.080 A 
ATOM     23  C   UNL     1      -3.911   6.257  -2.000  0.00  0.00    +0.027 A 
BRANCH  22  24
ATOM     24  S   UNL     1      -6.334   7.464  -1.647  0.00  0.00    +0.054 S 
ATOM     25  O   UNL     1      -6.142   6.884  -0.363  0.00  0.00    -0.252 OA
ATOM     26  C   UNL     1      -5.959   9.238  -1.570  0.00  0.00    +0.127 C 
ENDBRANCH  22  24
BRANCH  21  27
ATOM     27  O   UNL     1      -6.206   7.331  -4.611  0.00  0.00    -0.506 OA
ATOM     28  H   UNL     1      -6.130   8.275  -4.806  0.00  0.00    +0.292 HD
ENDBRANCH  21  27
ENDBRANCH  17  18
BRANCH  17  29
ATOM     29  O   UNL     1      -0.497   5.514  -2.811  0.00  0.00    -0.389 OA
ATOM     30  H   UNL     1      -0.489   5.206  -3.728  0.00  0.00    +0.210 HD
ENDBRANCH  17  29
ENDBRANCH   1  17
TORSDOF 11
