REMARK  Name = ZINC07545866
REMARK  8 active torsions:
REMARK  status: ('A' for Active; 'I' for Inactive)
REMARK    1  A    between atoms: C_3  and  C_8
REMARK    2  A    between atoms: C_11  and  S_13
REMARK    3  A    between atoms: S_13  and  C_14
REMARK    4  A    between atoms: C_14  and  C_15
REMARK    5  A    between atoms: C_15  and  O_16
REMARK    6  A    between atoms: O_16  and  C_17
REMARK    7  A    between atoms: C_20  and  S_23
REMARK    8  A    between atoms: S_23  and  N_26
REMARK                            x       y       z     vdW  Elec       q    Type
REMARK                         _______ _______ _______ _____ _____    ______ ____
ROOT
ATOM      1  C   UNL     1      -0.013   1.086   0.008  0.00  0.00    +0.120 C 
ENDROOT
BRANCH   1   2
ATOM      2  S   UNL     1      -0.860   1.669   1.497  0.00  0.00    -0.062 S 
BRANCH   2   6
ATOM      3  C   UNL     1       1.026   0.377   4.632  0.00  0.00    +0.249 A 
ATOM      4  N   UNL     1       1.750  -0.120   3.659  0.00  0.00    -0.106 NA
ATOM      5  N   UNL     1       1.243   0.227   2.528  0.00  0.00    -0.101 NA
ATOM      6  C   UNL     1       0.174   0.961   2.735  0.00  0.00    +0.278 A 
ATOM      7  O   UNL     1       0.017   1.077   4.068  0.00  0.00    -0.411 OA
BRANCH   3  10
ATOM      8  C   UNL     1       0.651   0.641   8.359  0.00  0.00    +0.002 A 
ATOM      9  C   UNL     1       0.418   0.804   7.009  0.00  0.00    +0.013 A 
ATOM     10  C   UNL     1       1.272   0.209   6.079  0.00  0.00    +0.040 A 
ATOM     11  C   UNL     1       2.364  -0.540   6.522  0.00  0.00    +0.033 A 
ATOM     12  C   UNL     1       2.588  -0.692   7.875  0.00  0.00    +0.042 A 
ATOM     13  C   UNL     1       1.733  -0.103   8.792  0.00  0.00    +0.020 A 
ATOM     14 CL   UNL     1       3.944  -1.624   8.430  0.00  0.00    -0.084 Cl
ENDBRANCH   3  10
ENDBRANCH   2   6
ENDBRANCH   1   2
BRANCH   1  15
ATOM     15  C   UNL     1      -0.753   1.593  -1.232  0.00  0.00    +0.240 C 
BRANCH  15  16
ATOM     16  O   UNL     1      -0.084   1.132  -2.407  0.00  0.00    -0.491 OA
BRANCH  16  17
ATOM     17  C   UNL     1      -0.617   1.496  -3.603  0.00  0.00    +0.121 A 
ATOM     18  C   UNL     1      -1.763   2.277  -3.644  0.00  0.00    +0.047 A 
ATOM     19  C   UNL     1      -2.299   2.651  -4.861  0.00  0.00    +0.032 A 
ATOM     20  C   UNL     1      -1.701   2.239  -6.037  0.00  0.00    +0.105 A 
ATOM     21  C   UNL     1      -0.562   1.456  -5.999  0.00  0.00    +0.032 A 
ATOM     22  C   UNL     1      -0.018   1.084  -4.785  0.00  0.00    +0.047 A 
BRANCH  20  23
ATOM     23  S   UNL     1      -2.392   2.711  -7.588  0.00  0.00    +0.056 S 
ATOM     24  O   UNL     1      -3.142   3.895  -7.354  0.00  0.00    -0.153 OA
ATOM     25  O   UNL     1      -1.336   2.653  -8.537  0.00  0.00    -0.153 OA
BRANCH  23  26
ATOM     26  N   UNL     1      -3.479   1.539  -8.017  0.00  0.00    -0.204 NA
ATOM     27  H   UNL     1      -3.624   0.775  -7.437  0.00  0.00    +0.144 HD
ATOM     28  H   UNL     1      -3.972   1.615  -8.850  0.00  0.00    +0.144 HD
ENDBRANCH  23  26
ENDBRANCH  20  23
ENDBRANCH  16  17
ENDBRANCH  15  16
ENDBRANCH   1  15
TORSDOF 8
