REMARK  Name = ZINC13467386
REMARK  10 active torsions:
REMARK  status: ('A' for Active; 'I' for Inactive)
REMARK    1  A    between atoms: C_1  and  C_2
REMARK    2  A    between atoms: C_2  and  O_4
REMARK    3  A    between atoms: O_4  and  C_5
REMARK    4  A    between atoms: C_9  and  C_35
REMARK    5  A    between atoms: C_14  and  C_34
REMARK    6  A    between atoms: C_20  and  O_25
REMARK    7  A    between atoms: C_22  and  O_24
REMARK    8  A    between atoms: C_28  and  O_30
REMARK    9  A    between atoms: O_30  and  C_31
REMARK   10  A    between atoms: C_31  and  C_33
REMARK                            x       y       z     vdW  Elec       q    Type
REMARK                         _______ _______ _______ _____ _____    ______ ____
ROOT
ATOM      1  C   UNL     1      -4.925  -3.628   1.486  0.00  0.00    +0.179 C 
ATOM      2  C   UNL     1      -4.061  -4.340   0.449  0.00  0.00    +0.045 C 
ATOM      3  C   UNL     1      -2.644  -3.772   0.428  0.00  0.00    +0.013 C 
ATOM      4  C   UNL     1      -2.680  -2.260   0.161  0.00  0.00    +0.002 C 
ATOM      5  C   UNL     1      -1.259  -1.718   0.090  0.00  0.00    +0.001 C 
ATOM      6  C   UNL     1      -0.361  -2.274   1.185  0.00  0.00    +0.005 C 
ATOM      7  C   UNL     1       1.093  -1.814   0.972  0.00  0.00    +0.011 C 
ATOM      8  C   UNL     1       1.132  -0.306   1.003  0.00  0.00    +0.008 C 
ATOM      9  C   UNL     1       0.181   0.271  -0.062  0.00  0.00    +0.002 C 
ATOM     10  C   UNL     1      -1.240  -0.184   0.066  0.00  0.00    -0.001 C 
ATOM     11  C   UNL     1      -2.002   0.394   1.245  0.00  0.00    +0.038 C 
ATOM     12  C   UNL     1      -3.462  -0.081   1.194  0.00  0.00    +0.147 C 
ATOM     13  C   UNL     1      -3.489  -1.602   1.270  0.00  0.00    +0.101 C 
ATOM     14  C   UNL     1      -4.930  -2.117   1.243  0.00  0.00    +0.082 C 
ATOM     15  C   UNL     1       0.491   1.770   0.025  0.00  0.00    +0.008 C 
ATOM     16  C   UNL     1       2.043   1.778   0.143  0.00  0.00    +0.045 C 
ATOM     17  C   UNL     1       2.460   0.342   0.560  0.00  0.00    +0.183 C 
ATOM     18  C   UNL     1       0.848   0.206   2.414  0.00  0.00    +0.015 C 
ATOM     19  C   UNL     1      -3.341  -2.044  -1.208  0.00  0.00    +0.014 C 
ENDROOT
BRANCH  13  20
ATOM     20  O   UNL     1      -2.925  -1.989   2.540  0.00  0.00    -0.385 OA
ATOM     21  H   UNL     1      -3.382  -1.613   3.304  0.00  0.00    +0.210 HD
ENDBRANCH  13  20
BRANCH  12  22
ATOM     22  O   UNL     1      -4.102   0.415   0.027  0.00  0.00    -0.389 OA
ATOM     23  H   UNL     1      -4.098   1.379  -0.044  0.00  0.00    +0.210 HD
ENDBRANCH  12  22
BRANCH   1  24
ATOM     24  O   UNL     1      -6.288  -4.129   1.403  0.00  0.00    -0.461 OA
BRANCH  24  26
ATOM     25  C   UNL     1      -7.981  -5.779   2.115  0.00  0.00    +0.136 C 
ATOM     26  C   UNL     1      -6.588  -5.203   2.149  0.00  0.00    +0.304 C 
ATOM     27  O   UNL     1      -5.742  -5.709   2.848  0.00  0.00    -0.251 OA
ENDBRANCH  24  26
ENDBRANCH   1  24
BRANCH  17  28
ATOM     28  O   UNL     1       3.012  -0.377  -0.569  0.00  0.00    -0.461 OA
BRANCH  28  29
ATOM     29  C   UNL     1       4.349  -0.385  -0.692  0.00  0.00    +0.304 C 
ATOM     30  O   UNL     1       5.033   0.191   0.121  0.00  0.00    -0.251 OA
ATOM     31  C   UNL     1       4.996  -1.113  -1.842  0.00  0.00    +0.136 C 
ENDBRANCH  28  29
ENDBRANCH  17  28
TORSDOF 6
