REMARK  Name = ZINC20877102
REMARK  10 active torsions:
REMARK  status: ('A' for Active; 'I' for Inactive)
REMARK    1  A    between atoms: C_1  and  O_2
REMARK    2  A    between atoms: O_2  and  C_3
REMARK    3  A    between atoms: C_5  and  C_25
REMARK    4  A    between atoms: C_8  and  O_9
REMARK    5  A    between atoms: O_9  and  C_10
REMARK    6  A    between atoms: C_10  and  C_11
REMARK    7  A    between atoms: C_11  and  C_13
REMARK    8  A    between atoms: C_11  and  O_23
REMARK    9  A    between atoms: C_25  and  N_26
REMARK   10  A    between atoms: N_26  and  C_27
REMARK                            x       y       z     vdW  Elec       q    Type
REMARK                         _______ _______ _______ _____ _____    ______ ____
ROOT
ATOM      1  C   UNL     1      -7.045  -0.960   3.045  0.00  0.00    +0.163 A 
ATOM      2  C   UNL     1      -7.677  -1.122   4.268  0.00  0.00    +0.051 A 
ATOM      3  C   UNL     1      -7.308  -2.159   5.104  0.00  0.00    -0.060 A 
ATOM      4  C   UNL     1      -6.308  -3.035   4.725  0.00  0.00    +0.021 A 
ATOM      5  C   UNL     1      -5.677  -2.882   3.504  0.00  0.00    +0.063 A 
ATOM      6  C   UNL     1      -6.039  -1.841   2.663  0.00  0.00    +0.176 A 
ATOM      7 BR   UNL     1      -4.316  -4.087   2.985  0.00  0.00    -0.046 Br
ENDROOT
BRANCH   1   9
ATOM      8  C   UNL     1      -8.448   0.925   2.679  0.00  0.00    +0.277 C 
ATOM      9  O   UNL     1      -7.408   0.059   2.221  0.00  0.00    -0.491 OA
ENDBRANCH   1   9
BRANCH   6  10
ATOM     10  O   UNL     1      -5.416  -1.685   1.464  0.00  0.00    -0.484 OA
BRANCH  10  11
ATOM     11  C   UNL     1      -4.250  -0.858   1.441  0.00  0.00    +0.265 C 
BRANCH  11  12
ATOM     12  C   UNL     1      -3.692  -0.803   0.018  0.00  0.00    +0.182 C 
BRANCH  12  13
ATOM     13  C   UNL     1      -2.397  -0.033   0.016  0.00  0.00    -0.012 A 
ATOM     14  C   UNL     1      -2.415   1.349   0.026  0.00  0.00    +0.010 A 
ATOM     15  C   UNL     1      -1.229   2.059   0.019  0.00  0.00    +0.050 A 
ATOM     16  C   UNL     1      -0.017   1.385   0.010  0.00  0.00    +0.162 A 
ATOM     17  C   UNL     1       0.002  -0.004   0.002  0.00  0.00    +0.162 A 
ATOM     18  C   UNL     1      -1.192  -0.710   0.004  0.00  0.00    +0.055 A 
ATOM     19  O   UNL     1       1.181  -0.685  -0.007  0.00  0.00    -0.485 OA
ATOM     20  C   UNL     1       2.347   0.053  -0.387  0.00  0.00    +0.270 C 
ATOM     21  C   UNL     1       2.334   1.392   0.364  0.00  0.00    +0.270 C 
ATOM     22  O   UNL     1       1.143   2.098   0.002  0.00  0.00    -0.485 OA
ENDBRANCH  12  13
BRANCH  12  23
ATOM     23  O   UNL     1      -4.634  -0.153  -0.839  0.00  0.00    -0.384 OA
ATOM     24  H   UNL     1      -4.405  -0.020  -1.906  0.00  0.00    +0.210 HD
ENDBRANCH  12  23
ENDBRANCH  11  12
ENDBRANCH  10  11
ENDBRANCH   6  10
BRANCH   3  25
ATOM     25  C   UNL     1      -7.997  -2.334   6.433  0.00  0.00    -0.046 C 
BRANCH  25  26
ATOM     26  N   UNL     1      -9.165  -3.209   6.267  0.00  0.00    +0.384 N 
ATOM     27  H   UNL     1      -9.864  -2.756   5.549  0.00  0.00    -0.085 HD
ATOM     28  H   UNL     1      -8.838  -4.190   5.892  0.00  0.00    -0.085 HD
BRANCH  26  29
ATOM     29  C   UNL     1      -9.863  -3.404   7.545  0.00  0.00    -0.071 C 
ATOM     30  C   UNL     1      -9.200  -4.544   8.320  0.00  0.00    -0.016 C 
ATOM     31  C   UNL     1      -9.928  -4.746   9.651  0.00  0.00    -0.002 C 
ATOM     32  C   UNL     1     -11.393  -5.095   9.384  0.00  0.00    -0.000 C 
ATOM     33  C   UNL     1     -12.056  -3.954   8.609  0.00  0.00    -0.002 C 
ATOM     34  C   UNL     1     -11.329  -3.752   7.278  0.00  0.00    -0.016 C 
ENDBRANCH  26  29
ENDBRANCH  25  26
ENDBRANCH   3  25
TORSDOF 9
