REMARK  Name = ZINC15023141
REMARK  8 active torsions:
REMARK  status: ('A' for Active; 'I' for Inactive)
REMARK    1  A    between atoms: C_1  and  C_2
REMARK    2  A    between atoms: C_13  and  C_29
REMARK    3  A    between atoms: C_15  and  C_23
REMARK    4  A    between atoms: C_17  and  C_18
REMARK    5  A    between atoms: C_17  and  C_20
REMARK    6  A    between atoms: C_29  and  C_31
REMARK    7  A    between atoms: C_35  and  O_37
REMARK    8  A    between atoms: O_37  and  C_38
REMARK                            x       y       z     vdW  Elec       q    Type
REMARK                         _______ _______ _______ _____ _____    ______ ____
ROOT
ATOM      1  C   UNL     1      -5.594   3.956   4.766  0.00  0.00    +0.044 C 
ATOM      2  C   UNL     1      -4.702   3.388   3.692  0.00  0.00    -0.050 A 
ATOM      3  C   UNL     1      -4.985   3.636   2.360  0.00  0.00    +0.005 A 
ATOM      4  C   UNL     1      -4.176   3.124   1.362  0.00  0.00    +0.024 A 
ATOM      5  C   UNL     1      -3.076   2.357   1.694  0.00  0.00    +0.038 A 
ATOM      6  C   UNL     1      -2.786   2.098   3.054  0.00  0.00    -0.004 A 
ATOM      7  C   UNL     1      -3.605   2.621   4.045  0.00  0.00    +0.013 A 
ATOM      8  C   UNL     1      -1.604   1.265   3.380  0.00  0.00    +0.007 C 
ATOM      9  C   UNL     1      -0.612   1.208   2.474  0.00  0.00    -0.002 C 
ATOM     10  C   UNL     1      -0.810   2.000   1.216  0.00  0.00    +0.127 C 
ATOM     11  N   UNL     1      -2.217   1.816   0.770  0.00  0.00    -0.310 N 
ATOM     12  C   UNL     1      -2.255   2.284  -0.612  0.00  0.00    +0.155 C 
ATOM     13  C   UNL     1      -0.842   2.018  -1.187  0.00  0.00    +0.078 C 
ATOM     14  C   UNL     1      -0.018   1.468   0.010  0.00  0.00    +0.163 C 
ENDROOT
BRANCH  13  15
ATOM     15  C   UNL     1      -0.907   0.996  -2.292  0.00  0.00    -0.040 A 
ATOM     16  C   UNL     1      -1.469  -0.245  -2.054  0.00  0.00    +0.004 A 
ATOM     17  C   UNL     1      -1.534  -1.181  -3.069  0.00  0.00    +0.000 A 
ATOM     18  C   UNL     1      -1.027  -0.881  -4.319  0.00  0.00    +0.000 A 
ATOM     19  C   UNL     1      -0.461   0.358  -4.556  0.00  0.00    +0.000 A 
ATOM     20  C   UNL     1      -0.401   1.296  -3.543  0.00  0.00    +0.004 A 
ENDBRANCH  13  15
BRANCH  14  21
ATOM     21  C   UNL     1       1.383   2.022  -0.000  0.00  0.00    +0.233 C 
ATOM     22  O   UNL     1       1.741   2.749  -0.903  0.00  0.00    -0.274 OA
ATOM     23  N   UNL     1       2.239   1.711   0.994  0.00  0.00    -0.328 N 
ATOM     24  H   UNL     1       1.952   1.130   1.716  0.00  0.00    +0.145 HD
ATOM     25  H   UNL     1       3.141   2.068   0.987  0.00  0.00    +0.145 HD
ENDBRANCH  14  21
BRANCH  14  26
ATOM     26  C   UNL     1       0.002  -0.004   0.002  0.00  0.00    +0.082 C 
ATOM     27  N   UNL     1       0.018  -1.140  -0.004  0.00  0.00    -0.195 NA
ENDBRANCH  14  26
BRANCH  12  28
ATOM     28  C   UNL     1      -2.564   3.759  -0.653  0.00  0.00    +0.184 C 
ATOM     29  O   UNL     1      -2.447   4.431   0.349  0.00  0.00    -0.290 OA
BRANCH  28  30
ATOM     30  C   UNL     1      -3.009   4.383  -1.910  0.00  0.00    +0.023 A 
ATOM     31  C   UNL     1      -3.146   3.610  -3.068  0.00  0.00    +0.011 A 
ATOM     32  C   UNL     1      -3.563   4.199  -4.243  0.00  0.00    +0.004 A 
ATOM     33  C   UNL     1      -3.847   5.553  -4.281  0.00  0.00    +0.045 A 
ATOM     34  C   UNL     1      -3.714   6.329  -3.137  0.00  0.00    +0.121 A 
ATOM     35  C   UNL     1      -3.302   5.749  -1.950  0.00  0.00    +0.057 A 
BRANCH  34  36
ATOM     36  O   UNL     1      -3.994   7.658  -3.183  0.00  0.00    -0.495 OA
ATOM     37  C   UNL     1      -4.420   8.188  -4.439  0.00  0.00    +0.277 C 
ENDBRANCH  34  36
ENDBRANCH  28  30
ENDBRANCH  12  28
TORSDOF 6
