REMARK  Name = ZINC10066089
REMARK  10 active torsions:
REMARK  status: ('A' for Active; 'I' for Inactive)
REMARK    1  A    between atoms: C_1  and  N_64
REMARK    2  A    between atoms: C_2  and  N_64
REMARK    3  A    between atoms: C_3  and  C_4
REMARK    4  A    between atoms: C_3  and  N_64
REMARK    5  A    between atoms: C_4  and  N_5
REMARK    6  A    between atoms: C_10  and  O_15
REMARK    7  A    between atoms: O_15  and  C_16
REMARK    8  A    between atoms: C_17  and  C_19
REMARK    9  A    between atoms: C_22  and  S_25
REMARK   10  A    between atoms: S_25  and  N_28
REMARK                            x       y       z     vdW  Elec       q    Type
REMARK                         _______ _______ _______ _____ _____    ______ ____
ROOT
ATOM      1  N   UNL     1      -0.399  -3.952   0.164  0.00  0.00    -0.248 N 
ATOM      2  C   UNL     1       0.007  -2.667  -0.154  0.00  0.00    +0.168 A 
ATOM      3  N   UNL     1       1.204  -2.240  -0.484  0.00  0.00    -0.224 NA
ATOM      4  C   UNL     1       1.459  -0.946  -0.772  0.00  0.00    +0.084 A 
ATOM      5  C   UNL     1       2.693  -0.361  -1.139  0.00  0.00    +0.074 A 
ATOM      6  C   UNL     1       2.781   0.986  -1.401  0.00  0.00    +0.122 A 
ATOM      7  C   UNL     1       1.666   1.815  -1.316  0.00  0.00    +0.047 A 
ATOM      8  C   UNL     1       0.446   1.272  -0.959  0.00  0.00    +0.021 A 
ATOM      9  C   UNL     1       0.351  -0.072  -0.696  0.00  0.00    +0.041 A 
ATOM     10  S   UNL     1      -0.964  -1.168  -0.220  0.00  0.00    -0.052 S 
ATOM     11  C   UNL     1       0.493  -4.962   0.158  0.00  0.00    +0.252 C 
ATOM     12  O   UNL     1       1.627  -4.769  -0.234  0.00  0.00    -0.270 OA
ENDROOT
BRANCH  11  13
ATOM     13  C   UNL     1       0.092  -6.305   0.628  0.00  0.00    +0.037 A 
ATOM     14  C   UNL     1      -1.101  -6.877   0.181  0.00  0.00    +0.015 A 
ATOM     15  C   UNL     1      -1.466  -8.132   0.620  0.00  0.00    +0.029 A 
ATOM     16  C   UNL     1      -0.659  -8.820   1.508  0.00  0.00    +0.106 A 
ATOM     17  C   UNL     1       0.521  -8.257   1.959  0.00  0.00    +0.029 A 
ATOM     18  C   UNL     1       0.901  -7.004   1.524  0.00  0.00    +0.015 A 
BRANCH  16  19
ATOM     19  S   UNL     1      -1.138 -10.421   2.069  0.00  0.00    +0.061 S 
ATOM     20  O   UNL     1      -2.009 -10.954   1.081  0.00  0.00    -0.153 OA
ATOM     21  O   UNL     1       0.053 -11.083   2.471  0.00  0.00    -0.153 OA
BRANCH  19  22
ATOM     22  N   UNL     1      -2.047 -10.209   3.437  0.00  0.00    -0.177 NA
ATOM     23  C   UNL     1      -1.412 -10.185   4.761  0.00  0.00    +0.109 C 
ATOM     24  C   UNL     1      -1.834  -8.896   5.482  0.00  0.00    +0.017 C 
ATOM     25  C   UNL     1      -3.362  -8.815   5.517  0.00  0.00    +0.003 C 
ATOM     26  C   UNL     1      -3.904  -8.766   4.087  0.00  0.00    +0.017 C 
ATOM     27  C   UNL     1      -3.505 -10.048   3.349  0.00  0.00    +0.109 C 
ENDBRANCH  19  22
ENDBRANCH  16  19
ENDBRANCH  11  13
BRANCH   6  28
ATOM     28  O   UNL     1       3.982   1.519  -1.752  0.00  0.00    -0.495 OA
ATOM     29  C   UNL     1       4.017   2.923  -2.013  0.00  0.00    +0.277 C 
ENDBRANCH   6  28
BRANCH   1  30
ATOM     30  C   UNL     1      -1.800  -4.213   0.507  0.00  0.00    +0.097 C 
BRANCH  30  31
ATOM     31  C   UNL     1      -2.623  -4.343  -0.776  0.00  0.00    -0.060 C 
BRANCH  31  34
ATOM     32  C   UNL     1      -4.681  -3.673   0.309  0.00  0.00    -0.097 C 
ATOM     33  C   UNL     1      -4.753  -5.102  -1.644  0.00  0.00    -0.097 C 
ATOM     34  N   UNL     1      -3.996  -4.760  -0.421  0.00  0.00    +0.377 N 
ATOM     35  H   UNL     1      -3.947  -5.589   0.183  0.00  0.00    -0.083 HD
ENDBRANCH  31  34
ENDBRANCH  30  31
ENDBRANCH   1  30
TORSDOF 7
