REMARK  Name = ZINC08994899
REMARK  7 active torsions:
REMARK  status: ('A' for Active; 'I' for Inactive)
REMARK    1  A    between atoms: C_1  and  C_2
REMARK    2  A    between atoms: C_2  and  C_28
REMARK    3  A    between atoms: N_7  and  C_9
REMARK    4  A    between atoms: C_12  and  S_15
REMARK    5  A    between atoms: S_15  and  N_18
REMARK    6  A    between atoms: C_21  and  O_26
REMARK    7  A    between atoms: O_26  and  C_27
REMARK                            x       y       z     vdW  Elec       q    Type
REMARK                         _______ _______ _______ _____ _____    ______ ____
ROOT
ATOM      1  C   UNL     1      -3.223   8.030   1.791  0.00  0.00    +0.037 C 
ATOM      2  C   UNL     1      -2.016   7.668   2.659  0.00  0.00    +0.060 C 
ATOM      3  C   UNL     1      -2.445   6.755   3.762  0.00  0.00    +0.040 A 
ATOM      4  C   UNL     1      -2.350   5.375   3.726  0.00  0.00    +0.029 A 
ATOM      5  C   UNL     1      -2.850   4.729   4.853  0.00  0.00    +0.106 A 
ATOM      6  S   UNL     1      -2.850   3.021   4.961  0.00  0.00    -0.031 S 
ATOM      7  N   UNL     1      -3.336   5.487   5.859  0.00  0.00    -0.273 N 
ATOM      8  S   UNL     1      -3.149   7.089   5.288  0.00  0.00    -0.008 S 
ATOM      9  C   UNL     1      -1.755   4.749   2.508  0.00  0.00    +0.010 A 
ATOM     10  C   UNL     1      -1.835   3.386   2.279  0.00  0.00    +0.056 A 
ATOM     11  C   UNL     1      -1.305   2.859   1.109  0.00  0.00    +0.121 A 
ATOM     12  C   UNL     1      -0.711   3.699   0.177  0.00  0.00    +0.047 A 
ATOM     13  C   UNL     1      -0.626   5.060   0.407  0.00  0.00    +0.027 A 
ATOM     14  C   UNL     1      -1.137   5.598   1.577  0.00  0.00    +0.036 A 
ATOM     15  N   UNL     1      -1.010   6.968   1.843  0.00  0.00    -0.334 N 
ATOM     16  C   UNL     1      -1.406   8.940   3.251  0.00  0.00    +0.037 C 
ATOM     17  H   UNL     1      -0.253   7.459   1.486  0.00  0.00    +0.147 HD
ENDROOT
BRANCH   7  18
ATOM     18  C   UNL     1      -3.868   5.063   7.080  0.00  0.00    +0.054 A 
ATOM     19  C   UNL     1      -5.072   5.587   7.534  0.00  0.00    +0.028 A 
ATOM     20  C   UNL     1      -5.598   5.162   8.739  0.00  0.00    +0.030 A 
ATOM     21  C   UNL     1      -4.921   4.224   9.498  0.00  0.00    +0.105 A 
ATOM     22  C   UNL     1      -3.719   3.705   9.051  0.00  0.00    +0.030 A 
ATOM     23  C   UNL     1      -3.191   4.122   7.845  0.00  0.00    +0.028 A 
BRANCH  21  24
ATOM     24  S   UNL     1      -5.591   3.691  11.037  0.00  0.00    +0.056 S 
ATOM     25  O   UNL     1      -6.992   3.920  10.972  0.00  0.00    -0.153 OA
ATOM     26  O   UNL     1      -5.040   2.407  11.297  0.00  0.00    -0.153 OA
BRANCH  24  27
ATOM     27  N   UNL     1      -5.000   4.704  12.206  0.00  0.00    -0.204 NA
ATOM     28  H   UNL     1      -4.399   5.426  11.964  0.00  0.00    +0.144 HD
ATOM     29  H   UNL     1      -5.254   4.575  13.133  0.00  0.00    +0.144 HD
ENDBRANCH  24  27
ENDBRANCH  21  24
ENDBRANCH   7  18
BRANCH  11  30
ATOM     30  O   UNL     1      -1.372   1.522   0.874  0.00  0.00    -0.495 OA
ATOM     31  C   UNL     1      -0.811   1.049  -0.352  0.00  0.00    +0.277 C 
ENDBRANCH  11  30
TORSDOF 4
