REMARK  Name = ZINC20500532
REMARK  5 active torsions:
REMARK  status: ('A' for Active; 'I' for Inactive)
REMARK    1  A    between atoms: C_1  and  N_2
REMARK    2  A    between atoms: C_5  and  C_7
REMARK    3  A    between atoms: C_7  and  N_8
REMARK    4  A    between atoms: C_13  and  C_17
REMARK    5  A    between atoms: C_17  and  C_18
REMARK                            x       y       z     vdW  Elec       q    Type
REMARK                         _______ _______ _______ _____ _____    ______ ____
ROOT
ATOM      1  N   UNL     1      -0.722   1.572  -1.183  0.00  0.00    -0.292 NA
ATOM      2  C   UNL     1      -0.013   1.086   0.008  0.00  0.00    +0.091 C 
ATOM      3  C   UNL     1      -0.730   1.580   1.272  0.00  0.00    +0.070 C 
ATOM      4  C   UNL     1      -2.198   1.271   1.122  0.00  0.00    +0.042 A 
ATOM      5  C   UNL     1      -2.773   0.951  -0.068  0.00  0.00    +0.010 A 
ATOM      6  C   UNL     1      -4.126   0.723   0.157  0.00  0.00    +0.068 A 
ATOM      7  N   UNL     1      -4.362   0.899   1.435  0.00  0.00    -0.178 NA
ATOM      8  N   UNL     1      -3.154   1.248   2.061  0.00  0.00    -0.281 N 
ATOM      9  H   UNL     1      -2.904   1.481   3.107  0.00  0.00    +0.189 HD
ATOM     10  C   UNL     1      -2.009   0.878  -1.366  0.00  0.00    +0.123 C 
ENDROOT
BRANCH   1  11
ATOM     11  C   UNL     1       0.117   1.448  -2.383  0.00  0.00    +0.143 C 
BRANCH  11  16
ATOM     12  C   UNL     1       4.665   3.304  -1.348  0.00  0.00    +0.172 C 
ATOM     13  N   UNL     1       3.283   3.207  -1.823  0.00  0.00    -0.273 N 
ATOM     14  C   UNL     1       2.578   4.192  -2.421  0.00  0.00    +0.128 A 
ATOM     15  C   UNL     1       1.349   3.702  -2.710  0.00  0.00    +0.083 A 
ATOM     16  C   UNL     1       1.300   2.375  -2.266  0.00  0.00    +0.095 A 
ATOM     17  N   UNL     1       2.459   2.078  -1.738  0.00  0.00    -0.174 NA
ATOM     18 CL   UNL     1       0.061   4.567  -3.489  0.00  0.00    -0.080 Cl
ENDBRANCH  11  16
ENDBRANCH   1  11
BRANCH   6  19
ATOM     19  C   UNL     1      -5.145   0.340  -0.886  0.00  0.00    +0.061 C 
BRANCH  19  20
ATOM     20  C   UNL     1      -5.213  -1.185  -0.996  0.00  0.00    -0.005 C 
ATOM     21  C   UNL     1      -3.878  -1.719  -1.519  0.00  0.00    +0.004 C 
ATOM     22  C   UNL     1      -3.947  -3.243  -1.629  0.00  0.00    +0.000 C 
ATOM     23  C   UNL     1      -5.067  -3.635  -2.596  0.00  0.00    +0.000 C 
ATOM     24  C   UNL     1      -6.402  -3.100  -2.073  0.00  0.00    +0.000 C 
ATOM     25  C   UNL     1      -6.333  -1.576  -1.963  0.00  0.00    +0.004 C 
ENDBRANCH  19  20
ENDBRANCH   6  19
TORSDOF 4
