REMARK  Name = ZINC10023205
REMARK  9 active torsions:
REMARK  status: ('A' for Active; 'I' for Inactive)
REMARK    1  A    between atoms: C_1  and  C_2
REMARK    2  A    between atoms: C_2  and  C_3
REMARK    3  A    between atoms: C_3  and  C_5
REMARK    4  A    between atoms: C_3  and  C_6
REMARK    5  A    between atoms: C_9  and  S_12
REMARK    6  A    between atoms: S_12  and  N_15
REMARK    7  A    between atoms: C_20  and  C_22
REMARK    8  A    between atoms: C_20  and  C_29
REMARK    9  A    between atoms: C_20  and  N_58
REMARK                            x       y       z     vdW  Elec       q    Type
REMARK                         _______ _______ _______ _____ _____    ______ ____
ROOT
ATOM      1  N   UNL     1      -4.731  -0.376   0.831  0.00  0.00    -0.180 NA
ATOM      2  C   UNL     1      -3.422  -1.001   1.074  0.00  0.00    +0.091 C 
ATOM      3  C   UNL     1      -2.370   0.106   1.202  0.00  0.00    -0.060 C 
ATOM      4  C   UNL     1      -3.732   1.655  -0.074  0.00  0.00    -0.060 C 
ATOM      5  C   UNL     1      -4.840   0.612  -0.254  0.00  0.00    +0.091 C 
ATOM      6  N   UNL     1      -2.429   0.958  -0.006  0.00  0.00    +0.392 N 
ATOM      7  H   UNL     1      -2.326   0.364  -0.837  0.00  0.00    -0.080 HD
ENDROOT
BRANCH   1   8
ATOM      8  S   UNL     1      -6.048  -0.774   1.753  0.00  0.00    +0.061 S 
ATOM      9  O   UNL     1      -7.196  -0.479   0.970  0.00  0.00    -0.153 OA
ATOM     10  O   UNL     1      -5.798  -2.070   2.280  0.00  0.00    -0.153 OA
BRANCH   8  14
ATOM     11  C   UNL     1      -6.121   2.063   5.279  0.00  0.00    -0.044 A 
ATOM     12  C   UNL     1      -6.782   2.395   4.111  0.00  0.00    +0.006 A 
ATOM     13  C   UNL     1      -6.759   1.529   3.034  0.00  0.00    +0.029 A 
ATOM     14  C   UNL     1      -6.076   0.330   3.125  0.00  0.00    +0.105 A 
ATOM     15  C   UNL     1      -5.420  -0.004   4.295  0.00  0.00    +0.029 A 
ATOM     16  C   UNL     1      -5.439   0.865   5.370  0.00  0.00    +0.006 A 
BRANCH  11  17
ATOM     17  C   UNL     1      -6.146   3.008   6.453  0.00  0.00    +0.016 C 
ATOM     18  C   UNL     1      -6.784   2.311   7.656  0.00  0.00    +0.012 C 
BRANCH  17  20
ATOM     19  C   UNL     1      -4.747   4.477   7.912  0.00  0.00    +0.004 C 
ATOM     20  C   UNL     1      -4.715   3.423   6.803  0.00  0.00    +0.004 C 
ENDBRANCH  17  20
ENDBRANCH  11  17
ENDBRANCH   8  14
ENDBRANCH   1   8
BRANCH   6  21
ATOM     21  C   UNL     1      -1.330   1.944   0.019  0.00  0.00    +0.050 C 
BRANCH  21  22
ATOM     22  C   UNL     1      -1.427   2.816  -1.206  0.00  0.00    -0.052 A 
ATOM     23  C   UNL     1      -1.780   2.262  -2.423  0.00  0.00    +0.004 A 
ATOM     24  C   UNL     1      -1.875   3.062  -3.546  0.00  0.00    +0.020 A 
ATOM     25  C   UNL     1      -1.606   4.416  -3.455  0.00  0.00    +0.041 A 
ATOM     26  C   UNL     1      -1.247   4.969  -2.238  0.00  0.00    +0.020 A 
ATOM     27  C   UNL     1      -1.158   4.169  -1.115  0.00  0.00    +0.004 A 
ATOM     28 CL   UNL     1      -1.717   5.420  -4.866  0.00  0.00    -0.084 Cl
ENDBRANCH  21  22
BRANCH  21  29
ATOM     29  C   UNL     1      -0.014   1.209   0.009  0.00  0.00    +0.201 C 
ATOM     30  O   UNL     1       0.002  -0.004   0.002  0.00  0.00    -0.277 OA
ATOM     31  N   UNL     1       1.143   1.898   0.001  0.00  0.00    -0.330 N 
ATOM     32  H   UNL     1       1.990   1.425  -0.009  0.00  0.00    +0.145 HD
ATOM     33  H   UNL     1       1.130   2.868   0.007  0.00  0.00    +0.145 HD
ENDBRANCH  21  29
ENDBRANCH   6  21
TORSDOF 7
