REMARK  Name = ZINC08753714
REMARK  11 active torsions:
REMARK  status: ('A' for Active; 'I' for Inactive)
REMARK    1  A    between atoms: C_1  and  C_2
REMARK    2  A    between atoms: C_2  and  C_3
REMARK    3  A    between atoms: C_2  and  C_4
REMARK    4  A    between atoms: C_4  and  C_5
REMARK    5  A    between atoms: C_5  and  N_6
REMARK    6  A    between atoms: N_6  and  C_7
REMARK    7  A    between atoms: C_8  and  N_23
REMARK    8  A    between atoms: N_9  and  C_16
REMARK    9  A    between atoms: C_16  and  C_17
REMARK   10  A    between atoms: C_24  and  C_26
REMARK   11  A    between atoms: N_31  and  C_38
REMARK                            x       y       z     vdW  Elec       q    Type
REMARK                         _______ _______ _______ _____ _____    ______ ____
ROOT
ATOM      1  N   UNL     1      -2.745  -1.862   3.908  0.00  0.00    -0.264 N 
ATOM      2  C   UNL     1      -1.626  -2.481   3.477  0.00  0.00    +0.228 C 
ATOM      3  O   UNL     1      -1.113  -3.348   4.153  0.00  0.00    -0.275 OA
ENDROOT
BRANCH   2   4
ATOM      4  C   UNL     1      -1.013  -2.095   2.155  0.00  0.00    +0.116 C 
ATOM      5  C   UNL     1      -0.006  -0.965   2.371  0.00  0.00    +0.113 C 
ATOM      6  C   UNL     1       1.216  -1.493   3.073  0.00  0.00    +0.221 C 
ATOM      7  O   UNL     1       1.797  -0.791   3.873  0.00  0.00    -0.275 OA
ATOM      8  N   UNL     1       1.670  -2.735   2.823  0.00  0.00    -0.274 N 
ATOM      9  C   UNL     1       1.004  -3.564   1.916  0.00  0.00    +0.040 A 
ATOM     10  C   UNL     1      -0.310  -3.288   1.561  0.00  0.00    -0.014 A 
ATOM     11  C   UNL     1      -0.969  -4.107   0.665  0.00  0.00    +0.006 A 
ATOM     12  C   UNL     1      -0.320  -5.200   0.120  0.00  0.00    +0.000 A 
ATOM     13  C   UNL     1       0.988  -5.478   0.472  0.00  0.00    +0.002 A 
ATOM     14  C   UNL     1       1.652  -4.663   1.369  0.00  0.00    +0.024 A 
ATOM     15  C   UNL     1       2.872  -3.220   3.506  0.00  0.00    +0.138 C 
ENDBRANCH   2   4
BRANCH   1  16
ATOM     16  C   UNL     1      -3.389  -0.915   3.084  0.00  0.00    +0.140 A 
ATOM     17  C   UNL     1      -3.430   0.416   3.445  0.00  0.00    +0.128 A 
ATOM     18  N   UNL     1      -4.071   1.315   2.624  0.00  0.00    -0.276 N 
ATOM     19  C   UNL     1      -4.640   0.903   1.477  0.00  0.00    +0.331 A 
ATOM     20  O   UNL     1      -5.198   1.714   0.762  0.00  0.00    -0.246 OA
ATOM     21  N   UNL     1      -4.605  -0.389   1.106  0.00  0.00    -0.273 N 
ATOM     22  H   UNL     1      -5.037  -0.669   0.248  0.00  0.00    +0.173 HD
ATOM     23  C   UNL     1      -3.995  -1.310   1.877  0.00  0.00    +0.277 A 
ATOM     24  O   UNL     1      -3.969  -2.480   1.531  0.00  0.00    -0.266 OA
BRANCH  17  25
ATOM     25  N   UNL     1      -2.843   0.839   4.614  0.00  0.00    -0.343 N 
ATOM     26  H   UNL     1      -2.938   1.761   4.898  0.00  0.00    +0.144 HD
ATOM     27  H   UNL     1      -2.334   0.214   5.154  0.00  0.00    +0.144 HD
ENDBRANCH  17  25
BRANCH  18  28
ATOM     28  C   UNL     1      -4.127   2.731   2.998  0.00  0.00    +0.163 C 
BRANCH  28  29
ATOM     29  C   UNL     1      -5.367   2.985   3.815  0.00  0.00    -0.028 A 
ATOM     30  C   UNL     1      -5.325   2.862   5.191  0.00  0.00    +0.005 A 
ATOM     31  C   UNL     1      -6.461   3.100   5.942  0.00  0.00    +0.000 A 
ATOM     32  C   UNL     1      -7.641   3.457   5.316  0.00  0.00    +0.000 A 
ATOM     33  C   UNL     1      -7.684   3.575   3.939  0.00  0.00    +0.000 A 
ATOM     34  C   UNL     1      -6.548   3.337   3.188  0.00  0.00    +0.005 A 
ENDBRANCH  28  29
ENDBRANCH  18  28
ENDBRANCH   1  16
BRANCH   1  35
ATOM     35  C   UNL     1      -3.291  -2.173   5.231  0.00  0.00    +0.114 C 
BRANCH  35  36
ATOM     36  C   UNL     1      -4.345  -3.274   5.101  0.00  0.00    +0.022 C 
BRANCH  36  38
ATOM     37  C   UNL     1      -6.145  -4.520   6.306  0.00  0.00    +0.007 C 
ATOM     38  C   UNL     1      -5.007  -3.510   6.461  0.00  0.00    -0.016 C 
ATOM     39  C   UNL     1      -3.970  -4.056   7.444  0.00  0.00    +0.007 C 
ENDBRANCH  36  38
ENDBRANCH  35  36
ENDBRANCH   1  35
TORSDOF 8
