REMARK  Name = ZINC02918546
REMARK  8 active torsions:
REMARK  status: ('A' for Active; 'I' for Inactive)
REMARK    1  A    between atoms: C_1  and  C_2
REMARK    2  A    between atoms: C_2  and  O_3
REMARK    3  A    between atoms: O_3  and  C_4
REMARK    4  A    between atoms: C_6  and  C_14
REMARK    5  A    between atoms: C_9  and  O_10
REMARK    6  A    between atoms: O_10  and  C_11
REMARK    7  A    between atoms: C_17  and  C_29
REMARK    8  A    between atoms: C_33  and  C_35
REMARK                            x       y       z     vdW  Elec       q    Type
REMARK                         _______ _______ _______ _____ _____    ______ ____
ROOT
ATOM      1  C   UNL     1       2.003  -4.169   1.612  0.00  0.00    +0.122 C 
ATOM      2  C   UNL     1       1.491  -3.321   2.781  0.00  0.00    +0.057 C 
ATOM      3  C   UNL     1       0.064  -2.844   2.489  0.00  0.00    +0.106 C 
ATOM      4  N   UNL     1      -0.814  -4.024   2.388  0.00  0.00    -0.309 N 
ATOM      5  C   UNL     1      -0.324  -5.097   1.659  0.00  0.00    +0.175 A 
ATOM      6  N   UNL     1       0.996  -5.182   1.282  0.00  0.00    -0.306 N 
ATOM      7  C   UNL     1       1.142  -6.347   0.582  0.00  0.00    +0.069 A 
ATOM      8  C   UNL     1       2.233  -6.948  -0.034  0.00  0.00    +0.028 A 
ATOM      9  C   UNL     1       2.011  -8.159  -0.670  0.00  0.00    +0.002 A 
ATOM     10  C   UNL     1       0.762  -8.755  -0.697  0.00  0.00    +0.002 A 
ATOM     11  C   UNL     1      -0.340  -8.177  -0.091  0.00  0.00    +0.028 A 
ATOM     12  C   UNL     1      -0.139  -6.954   0.557  0.00  0.00    +0.065 A 
ATOM     13  N   UNL     1      -0.981  -6.143   1.229  0.00  0.00    -0.327 N 
ATOM     14  H   UNL     1      -1.800  -4.020   2.877  0.00  0.00    +0.149 HD
ATOM     15  H   UNL     1      -2.055  -6.243   1.441  0.00  0.00    +0.169 HD
ENDROOT
BRANCH   3  16
ATOM     16  C   UNL     1       0.041  -2.084   1.188  0.00  0.00    -0.027 A 
ATOM     17  C   UNL     1       0.039  -2.768  -0.013  0.00  0.00    +0.005 A 
ATOM     18  C   UNL     1       0.018  -2.071  -1.206  0.00  0.00    +0.001 A 
ATOM     19  C   UNL     1      -0.006  -0.689  -1.199  0.00  0.00    +0.003 A 
ATOM     20  C   UNL     1       0.002  -0.004   0.002  0.00  0.00    -0.050 A 
ATOM     21  C   UNL     1       0.023  -0.702   1.196  0.00  0.00    +0.008 A 
ATOM     22  C   UNL     1      -0.018   1.503   0.010  0.00  0.00    +0.044 C 
ENDBRANCH   3  16
BRANCH   1  25
ATOM     23  C   UNL     1       5.629  -5.229   1.642  0.00  0.00    +0.162 A 
ATOM     24  C   UNL     1       4.443  -4.611   1.279  0.00  0.00    +0.055 A 
ATOM     25  C   UNL     1       3.291  -4.846   2.005  0.00  0.00    -0.021 A 
ATOM     26  C   UNL     1       3.315  -5.705   3.088  0.00  0.00    +0.009 A 
ATOM     27  C   UNL     1       4.494  -6.329   3.453  0.00  0.00    +0.050 A 
ATOM     28  C   UNL     1       5.654  -6.094   2.732  0.00  0.00    +0.168 A 
BRANCH  23  29
ATOM     29  O   UNL     1       6.765  -4.995   0.932  0.00  0.00    -0.489 OA
BRANCH  29  31
ATOM     30  C   UNL     1       8.033  -3.960  -0.846  0.00  0.00    +0.048 C 
ATOM     31  C   UNL     1       6.665  -4.097  -0.175  0.00  0.00    +0.226 C 
ENDBRANCH  29  31
ENDBRANCH  23  29
BRANCH  28  32
ATOM     32  O   UNL     1       6.814  -6.707   3.090  0.00  0.00    -0.431 OA
BRANCH  32  33
ATOM     33  C   UNL     1       6.764  -7.581   4.219  0.00  0.00    +0.541 C 
ATOM     34  F   UNL     1       6.356  -6.863   5.348  0.00  0.00    -0.166 F 
ATOM     35  F   UNL     1       5.855  -8.614   3.969  0.00  0.00    -0.166 F 
ENDBRANCH  32  33
ENDBRANCH  28  32
ENDBRANCH   1  25
TORSDOF 6
