REMARK  Name = ZINC38549225
REMARK  5 active torsions:
REMARK  status: ('A' for Active; 'I' for Inactive)
REMARK    1  A    between atoms: C_4  and  N_7
REMARK    2  A    between atoms: C_8  and  C_25
REMARK    3  A    between atoms: C_12  and  S_14
REMARK    4  A    between atoms: S_14  and  C_15
REMARK    5  A    between atoms: C_15  and  C_16
REMARK                            x       y       z     vdW  Elec       q    Type
REMARK                         _______ _______ _______ _____ _____    ______ ____
ROOT
ATOM      1  N   UNL     1       3.806  -0.670  -0.276  0.00  0.00    -0.284 N 
ATOM      2  C   UNL     1       3.818  -2.110   0.051  0.00  0.00    +0.190 C 
ATOM      3  N   UNL     1       5.167  -2.570  -0.373  0.00  0.00    -0.230 NA
ATOM      4  N   UNL     1       6.031  -1.435  -0.013  0.00  0.00    -0.226 NA
ATOM      5  C   UNL     1       5.214  -0.240  -0.325  0.00  0.00    +0.218 C 
ATOM      6  H   UNL     1       5.438  -3.404   0.126  0.00  0.00    +0.143 HD
ATOM      7  H   UNL     1       6.881  -1.441  -0.558  0.00  0.00    +0.143 HD
ENDROOT
BRANCH   1  11
ATOM      8  C   UNL     1       0.452   1.703  -0.950  0.00  0.00    +0.000 A 
ATOM      9  C   UNL     1       1.716   2.220  -1.162  0.00  0.00    +0.002 A 
ATOM     10  C   UNL     1       2.831   1.436  -0.940  0.00  0.00    +0.023 A 
ATOM     11  C   UNL     1       2.681   0.126  -0.502  0.00  0.00    +0.033 A 
ATOM     12  C   UNL     1       1.409  -0.390  -0.290  0.00  0.00    +0.023 A 
ATOM     13  C   UNL     1       0.298   0.400  -0.514  0.00  0.00    +0.002 A 
ENDBRANCH   1  11
BRANCH   2  14
ATOM     14  C   UNL     1       2.745  -2.835  -0.718  0.00  0.00    +0.007 A 
ATOM     15  C   UNL     1       2.658  -2.704  -2.096  0.00  0.00    +0.010 A 
ATOM     16  C   UNL     1       1.654  -3.390  -2.762  0.00  0.00    +0.020 A 
ATOM     17  C   UNL     1       0.779  -4.176  -2.036  0.00  0.00    +0.111 A 
ATOM     18  N   UNL     1       0.891  -4.277  -0.727  0.00  0.00    -0.263 NA
ATOM     19  C   UNL     1       1.837  -3.644  -0.061  0.00  0.00    +0.117 A 
ENDBRANCH   2  14
BRANCH   5  20
ATOM     20  S   UNL     1       5.513   1.051   0.914  0.00  0.00    -0.114 S 
BRANCH  20  21
ATOM     21  C   UNL     1       5.103   0.252   2.490  0.00  0.00    +0.146 C 
BRANCH  21  22
ATOM     22  C   UNL     1       5.310   1.229   3.618  0.00  0.00    +0.118 A 
ATOM     23  N   UNL     1       4.402   2.039   4.079  0.00  0.00    -0.232 NA
ATOM     24  C   UNL     1       4.922   2.779   5.092  0.00  0.00    +0.089 A 
ATOM     25  C   UNL     1       4.402   3.775   5.922  0.00  0.00    +0.030 A 
ATOM     26  C   UNL     1       5.195   4.347   6.877  0.00  0.00    +0.002 A 
ATOM     27  C   UNL     1       6.515   3.949   7.033  0.00  0.00    +0.002 A 
ATOM     28  C   UNL     1       7.049   2.967   6.224  0.00  0.00    +0.028 A 
ATOM     29  C   UNL     1       6.258   2.375   5.249  0.00  0.00    +0.066 A 
ATOM     30  N   UNL     1       6.472   1.389   4.306  0.00  0.00    -0.341 N 
ATOM     31  H   UNL     1       7.299   0.903   4.160  0.00  0.00    +0.167 HD
ENDBRANCH  21  22
ENDBRANCH  20  21
ENDBRANCH   5  20
TORSDOF 5
