REMARK  Name = ZINC56934826
REMARK  6 active torsions:
REMARK  status: ('A' for Active; 'I' for Inactive)
REMARK    1  A    between atoms: C_1  and  C_2
REMARK    2  A    between atoms: C_3  and  C_18
REMARK    3  A    between atoms: C_9  and  C_12
REMARK    4  A    between atoms: N_20  and  C_21
REMARK    5  A    between atoms: C_21  and  C_22
REMARK    6  A    between atoms: C_22  and  C_23
REMARK                            x       y       z     vdW  Elec       q    Type
REMARK                         _______ _______ _______ _____ _____    ______ ____
ROOT
ATOM      1  C   UNL     1      -0.018   1.503   0.010  0.00  0.00    +0.068 C 
ATOM      2  C   UNL     1       0.002  -0.004   0.002  0.00  0.00    +0.076 A 
ATOM      3  C   UNL     1       0.009  -0.813  -1.099  0.00  0.00    +0.170 A 
ATOM      4  N   UNL     1       0.028  -2.092  -0.688  0.00  0.00    -0.124 NA
ATOM      5  N   UNL     1       0.033  -2.132   0.599  0.00  0.00    -0.058 NA
ATOM      6  N   UNL     1       0.023  -0.816   1.083  0.00  0.00    -0.192 N 
ATOM      7  C   UNL     1       0.031  -0.421   2.420  0.00  0.00    +0.196 A 
ATOM      8  N   UNL     1       0.057  -1.164   3.510  0.00  0.00    -0.221 NA
ATOM      9  C   UNL     1       0.060  -0.618   4.715  0.00  0.00    +0.080 A 
ATOM     10  C   UNL     1       0.036   0.745   4.834  0.00  0.00    +0.077 A 
ATOM     11  S   UNL     1       0.015   1.227   3.112  0.00  0.00    -0.056 S 
ENDROOT
BRANCH   9  12
ATOM     12  C   UNL     1       0.089  -1.476   5.925  0.00  0.00    +0.001 A 
ATOM     13  C   UNL     1       0.086  -0.896   7.193  0.00  0.00    +0.010 A 
ATOM     14  C   UNL     1       0.113  -1.699   8.315  0.00  0.00    +0.001 A 
ATOM     15  C   UNL     1       0.143  -3.076   8.184  0.00  0.00    +0.000 A 
ATOM     16  C   UNL     1       0.146  -3.656   6.928  0.00  0.00    +0.001 A 
ATOM     17  C   UNL     1       0.113  -2.863   5.798  0.00  0.00    +0.010 A 
ENDBRANCH   9  12
BRANCH   3  18
ATOM     18  C   UNL     1      -0.004  -0.358  -2.502  0.00  0.00    +0.266 C 
ATOM     19  O   UNL     1      -0.021   0.831  -2.756  0.00  0.00    -0.268 OA
ATOM     20  N   UNL     1       0.005  -1.261  -3.503  0.00  0.00    -0.310 N 
ATOM     21  H   UNL     1       0.019  -2.210  -3.300  0.00  0.00    +0.149 HD
BRANCH  20  22
ATOM     22  C   UNL     1      -0.007  -0.810  -4.897  0.00  0.00    +0.109 C 
BRANCH  22  23
ATOM     23  C   UNL     1       0.005  -2.025  -5.826  0.00  0.00    +0.056 C 
BRANCH  23  24
ATOM     24  C   UNL     1      -0.007  -1.561  -7.260  0.00  0.00    -0.021 A 
ATOM     25  C   UNL     1      -1.088  -1.414  -8.042  0.00  0.00    +0.087 A 
ATOM     26  N   UNL     1      -0.711  -0.974  -9.282  0.00  0.00    -0.360 N 
ATOM     27  H   UNL     1      -1.317  -0.795 -10.018  0.00  0.00    +0.165 HD
ATOM     28  C   UNL     1       0.657  -0.824  -9.329  0.00  0.00    +0.047 A 
ATOM     29  C   UNL     1       1.157  -1.179  -8.062  0.00  0.00    +0.003 A 
ATOM     30  C   UNL     1       2.529  -1.117  -7.813  0.00  0.00    +0.010 A 
ATOM     31  C   UNL     1       3.381  -0.707  -8.801  0.00  0.00    +0.001 A 
ATOM     32  C   UNL     1       2.892  -0.352 -10.050  0.00  0.00    +0.002 A 
ATOM     33  C   UNL     1       1.542  -0.415 -10.321  0.00  0.00    +0.026 A 
ENDBRANCH  23  24
ENDBRANCH  22  23
ENDBRANCH  20  22
ENDBRANCH   3  18
TORSDOF 5
