REMARK  Name = ZINC62242267
REMARK  2 active torsions:
REMARK  status: ('A' for Active; 'I' for Inactive)
REMARK    1  A    between atoms: C_6  and  C_7
REMARK    2  A    between atoms: C_7  and  C_9
REMARK                            x       y       z     vdW  Elec       q    Type
REMARK                         _______ _______ _______ _____ _____    ______ ____
ROOT
ATOM      1  C   UNL     1       0.355   1.097   0.223  0.00  0.00    +0.007 A 
ATOM      2  C   UNL     1       1.632   1.613   0.101  0.00  0.00    +0.030 A 
ATOM      3  C   UNL     1       2.657   0.810  -0.372  0.00  0.00    +0.087 A 
ATOM      4  C   UNL     1       2.401  -0.516  -0.724  0.00  0.00    +0.157 A 
ATOM      5  C   UNL     1       1.117  -1.024  -0.598  0.00  0.00    +0.053 A 
ATOM      6  C   UNL     1       0.100  -0.217  -0.126  0.00  0.00    -0.030 A 
ATOM      7  O   UNL     1       3.571  -1.053  -1.148  0.00  0.00    -0.408 OA
ATOM      8  C   UNL     1       4.535  -0.123  -1.074  0.00  0.00    +0.419 A 
ATOM      9  O   UNL     1       5.699  -0.293  -1.383  0.00  0.00    -0.223 OA
ATOM     10  N   UNL     1       4.015   1.028  -0.604  0.00  0.00    -0.288 N 
ATOM     11  H   UNL     1       4.496   1.857  -0.455  0.00  0.00    +0.172 HD
ENDROOT
BRANCH   6  12
ATOM     12  C   UNL     1      -1.295  -0.772   0.010  0.00  0.00    +0.092 C 
ATOM     13 BR   UNL     1      -2.149  -0.011   1.609  0.00  0.00    -0.083 Br
BRANCH  12  14
ATOM     14  C   UNL     1      -2.113  -0.404  -1.229  0.00  0.00    +0.033 C 
ATOM     15  C   UNL     1      -2.306   1.114  -1.283  0.00  0.00    +0.009 C 
ATOM     16  C   UNL     1      -3.191   1.463  -2.484  0.00  0.00    +0.028 C 
ATOM     17  C   UNL     1      -4.520   0.712  -2.364  0.00  0.00    +0.160 C 
ATOM     18  O   UNL     1      -4.267  -0.692  -2.287  0.00  0.00    -0.379 OA
ATOM     19  C   UNL     1      -3.483  -1.084  -1.158  0.00  0.00    +0.164 C 
ENDBRANCH  12  14
ENDBRANCH   6  12
TORSDOF 2
