REMARK  Name = ZINC39673208
REMARK  8 active torsions:
REMARK  status: ('A' for Active; 'I' for Inactive)
REMARK    1  A    between atoms: C_1  and  C_2
REMARK    2  A    between atoms: C_5  and  C_9
REMARK    3  A    between atoms: C_7  and  C_8
REMARK    4  A    between atoms: C_9  and  N_10
REMARK    5  A    between atoms: C_11  and  C_13
REMARK    6  A    between atoms: C_24  and  C_26
REMARK    7  A    between atoms: C_33  and  C_37
REMARK    8  A    between atoms: N_35  and  C_36
REMARK                            x       y       z     vdW  Elec       q    Type
REMARK                         _______ _______ _______ _____ _____    ______ ____
ROOT
ATOM      1  C   UNL     1       3.539  -6.669   0.417  0.00  0.00    +0.100 C 
ATOM      2  C   UNL     1       4.011  -6.226  -0.986  0.00  0.00    +0.121 C 
ATOM      3  N   UNL     1       4.780  -7.381  -1.504  0.00  0.00    -0.296 N 
ATOM      4  C   UNL     1       4.013  -8.567  -1.055  0.00  0.00    +0.115 C 
ATOM      5  C   UNL     1       3.542  -8.206   0.368  0.00  0.00    -0.004 C 
ATOM      6  C   UNL     1       4.512  -8.767   1.403  0.00  0.00    -0.010 C 
ATOM      7  C   UNL     1       4.454 -10.296   1.374  0.00  0.00    -0.082 C 
ATOM      8  N   UNL     1       3.086 -10.742   1.664  0.00  0.00    +0.379 N 
ATOM      9  C   UNL     1       2.174 -10.276   0.612  0.00  0.00    -0.082 C 
ATOM     10  C   UNL     1       2.135  -8.745   0.610  0.00  0.00    -0.010 C 
ATOM     11  C   UNL     1       5.921  -7.359  -2.222  0.00  0.00    +0.250 C 
ATOM     12  O   UNL     1       6.385  -8.394  -2.659  0.00  0.00    -0.270 OA
ATOM     13  H   UNL     1       3.063 -11.750   1.704  0.00  0.00    -0.086 HD
ATOM     14  H   UNL     1       2.792 -10.366   2.553  0.00  0.00    -0.086 HD
ENDROOT
BRANCH  11  15
ATOM     15  C   UNL     1       6.606  -6.077  -2.479  0.00  0.00    +0.074 A 
ATOM     16  C   UNL     1       5.866  -4.904  -2.683  0.00  0.00    +0.127 A 
ATOM     17  N   UNL     1       6.455  -3.755  -2.912  0.00  0.00    -0.235 NA
ATOM     18  C   UNL     1       7.780  -3.643  -2.963  0.00  0.00    +0.160 A 
ATOM     19  C   UNL     1       8.596  -4.775  -2.767  0.00  0.00    +0.060 A 
ATOM     20  C   UNL     1       8.002  -6.016  -2.516  0.00  0.00    +0.067 A 
ATOM     21 CL   UNL     1       8.967  -7.436  -2.263  0.00  0.00    -0.082 Cl
ATOM     22  C   UNL     1       9.976  -4.315  -2.885  0.00  0.00    +0.071 A 
ATOM     23  N   UNL     1       9.945  -3.036  -3.125  0.00  0.00    -0.174 NA
ATOM     24  N   UNL     1       8.622  -2.589  -3.180  0.00  0.00    -0.249 N 
ATOM     25  C   UNL     1       8.204  -1.208  -3.431  0.00  0.00    +0.174 C 
ATOM     26  C   UNL     1      11.213  -5.166  -2.751  0.00  0.00    +0.068 C 
ENDBRANCH  11  15
BRANCH   1  28
ATOM     27  N   UNL     1       1.763  -5.896   1.955  0.00  0.00    -0.311 N 
ATOM     28  C   UNL     1       2.149  -6.155   0.690  0.00  0.00    +0.218 C 
ATOM     29  O   UNL     1       1.378  -5.974  -0.228  0.00  0.00    -0.275 OA
ATOM     30  H   UNL     1       2.380  -6.041   2.690  0.00  0.00    +0.149 HD
BRANCH  27  31
ATOM     31  C   UNL     1       0.412  -5.396   2.221  0.00  0.00    +0.139 C 
BRANCH  31  36
ATOM     32  C   UNL     1      -0.270  -4.604   7.904  0.00  0.00    +0.044 C 
ATOM     33  C   UNL     1      -0.092  -4.811   6.422  0.00  0.00    -0.048 A 
ATOM     34  C   UNL     1       0.385  -3.780   5.633  0.00  0.00    +0.004 A 
ATOM     35  C   UNL     1       0.548  -3.970   4.274  0.00  0.00    +0.005 A 
ATOM     36  C   UNL     1       0.234  -5.190   3.703  0.00  0.00    -0.030 A 
ATOM     37  C   UNL     1      -0.242  -6.220   4.492  0.00  0.00    +0.008 A 
ATOM     38  C   UNL     1      -0.401  -6.032   5.853  0.00  0.00    -0.047 A 
ATOM     39  C   UNL     1      -0.915  -7.156   6.714  0.00  0.00    +0.044 C 
ENDBRANCH  31  36
ENDBRANCH  27  31
ENDBRANCH   1  28
TORSDOF 4
