REMARK  Name = ZINC39679025
REMARK  12 active torsions:
REMARK  status: ('A' for Active; 'I' for Inactive)
REMARK    1  A    between atoms: C_1  and  N_2
REMARK    2  A    between atoms: N_2  and  C_3
REMARK    3  A    between atoms: N_2  and  C_4
REMARK    4  A    between atoms: C_4  and  C_5
REMARK    5  A    between atoms: C_5  and  C_6
REMARK    6  A    between atoms: C_6  and  C_7
REMARK    7  A    between atoms: C_7  and  N_8
REMARK    8  A    between atoms: C_9  and  C_11
REMARK    9  A    between atoms: C_22  and  C_24
REMARK   10  A    between atoms: C_27  and  O_34
REMARK   11  A    between atoms: C_28  and  C_30
REMARK   12  A    between atoms: O_34  and  C_35
REMARK                            x       y       z     vdW  Elec       q    Type
REMARK                         _______ _______ _______ _____ _____    ______ ____
ROOT
ATOM      1  C   UNL     1       7.127  -1.147  -5.584  0.00  0.00    +0.100 C 
ATOM      2  C   UNL     1       6.308  -0.345  -6.620  0.00  0.00    +0.121 C 
ATOM      3  N   UNL     1       7.110   0.877  -6.867  0.00  0.00    -0.296 N 
ATOM      4  C   UNL     1       8.513   0.400  -6.882  0.00  0.00    +0.115 C 
ATOM      5  C   UNL     1       8.575  -0.658  -5.761  0.00  0.00    -0.004 C 
ATOM      6  C   UNL     1       9.081  -0.026  -4.468  0.00  0.00    -0.010 C 
ATOM      7  C   UNL     1      10.540   0.401  -4.652  0.00  0.00    -0.082 C 
ATOM      8  N   UNL     1      11.354  -0.770  -5.000  0.00  0.00    +0.379 N 
ATOM      9  C   UNL     1      10.920  -1.316  -6.291  0.00  0.00    -0.082 C 
ATOM     10  C   UNL     1       9.477  -1.815  -6.177  0.00  0.00    -0.010 C 
ATOM     11  C   UNL     1       6.664   2.137  -7.040  0.00  0.00    +0.247 C 
ATOM     12  O   UNL     1       5.487   2.393  -6.875  0.00  0.00    -0.270 OA
ATOM     13  H   UNL     1      12.324  -0.498  -5.061  0.00  0.00    -0.086 HD
ATOM     14  H   UNL     1      11.250  -1.475  -4.286  0.00  0.00    -0.086 HD
ENDROOT
BRANCH  11  15
ATOM     15  C   UNL     1       7.604   3.206  -7.429  0.00  0.00    +0.038 A 
ATOM     16  C   UNL     1       8.820   2.882  -8.038  0.00  0.00    +0.016 A 
ATOM     17  C   UNL     1       9.694   3.882  -8.400  0.00  0.00    +0.047 A 
ATOM     18  C   UNL     1       9.369   5.212  -8.162  0.00  0.00    +0.132 A 
ATOM     19  C   UNL     1       8.161   5.538  -7.557  0.00  0.00    +0.097 A 
ATOM     20  C   UNL     1       7.279   4.544  -7.196  0.00  0.00    +0.029 A 
BRANCH  19  21
ATOM     21  C   UNL     1       7.814   6.982  -7.300  0.00  0.00    +0.421 C 
ATOM     22  F   UNL     1       6.558   7.058  -6.688  0.00  0.00    -0.166 F 
ATOM     23  F   UNL     1       8.777   7.551  -6.461  0.00  0.00    -0.166 F 
ATOM     24  F   UNL     1       7.784   7.677  -8.514  0.00  0.00    -0.166 F 
ENDBRANCH  19  21
BRANCH  18  25
ATOM     25  O   UNL     1      10.234   6.195  -8.520  0.00  0.00    -0.495 OA
ATOM     26  C   UNL     1      11.457   5.789  -9.137  0.00  0.00    +0.277 C 
ENDBRANCH  18  25
ENDBRANCH  11  15
BRANCH   1  28
ATOM     27  N   UNL     1       6.851  -1.743  -3.199  0.00  0.00    -0.315 N 
ATOM     28  C   UNL     1       6.641  -0.852  -4.188  0.00  0.00    +0.218 C 
ATOM     29  O   UNL     1       6.062   0.188  -3.955  0.00  0.00    -0.275 OA
ATOM     30  H   UNL     1       7.314  -2.575  -3.386  0.00  0.00    +0.149 HD
BRANCH  27  31
ATOM     31  C   UNL     1       6.378  -1.456  -1.843  0.00  0.00    +0.104 C 
BRANCH  31  32
ATOM     32  C   UNL     1       6.741  -2.622  -0.919  0.00  0.00    +0.017 C 
BRANCH  32  33
ATOM     33  C   UNL     1       6.248  -2.322   0.497  0.00  0.00    -0.017 C 
BRANCH  33  34
ATOM     34  C   UNL     1       6.610  -3.487   1.421  0.00  0.00    -0.080 C 
BRANCH  34  36
ATOM     35  C   UNL     1       4.669  -3.142   2.787  0.00  0.00    -0.097 C 
ATOM     36  N   UNL     1       6.137  -3.200   2.781  0.00  0.00    +0.376 N 
ATOM     37  C   UNL     1       6.588  -4.261   3.691  0.00  0.00    -0.097 C 
ATOM     38  H   UNL     1       6.509  -2.313   3.087  0.00  0.00    -0.083 HD
ENDBRANCH  34  36
ENDBRANCH  33  34
ENDBRANCH  32  33
ENDBRANCH  31  32
ENDBRANCH  27  31
ENDBRANCH   1  28
TORSDOF 9
