REMARK  Name = ZINC44389477
REMARK  4 active torsions:
REMARK  status: ('A' for Active; 'I' for Inactive)
REMARK    1  A    between atoms: C_9  and  C_11
REMARK    2  A    between atoms: N_13  and  C_14
REMARK    3  A    between atoms: C_14  and  C_15
REMARK    4  A    between atoms: C_14  and  C_18
REMARK                            x       y       z     vdW  Elec       q    Type
REMARK                         _______ _______ _______ _____ _____    ______ ____
ROOT
ATOM      1  C   UNL     1       5.429  -3.866  -0.164  0.00  0.00    +0.265 C 
ATOM      2  O   UNL     1       6.125  -4.855  -0.049  0.00  0.00    -0.268 OA
ATOM      3  N   UNL     1       5.997  -2.646  -0.227  0.00  0.00    -0.291 N 
ATOM      4  H   UNL     1       5.441  -1.856  -0.319  0.00  0.00    +0.150 HD
ENDROOT
BRANCH   1  13
ATOM      5  C   UNL     1      -0.877  -3.370  -0.557  0.00  0.00    +0.002 A 
ATOM      6  C   UNL     1      -0.306  -2.101  -0.623  0.00  0.00    +0.002 A 
ATOM      7  C   UNL     1       1.040  -1.920  -0.562  0.00  0.00    +0.030 A 
ATOM      8  C   UNL     1       1.884  -3.039  -0.428  0.00  0.00    +0.090 A 
ATOM      9  C   UNL     1       1.282  -4.373  -0.359  0.00  0.00    +0.089 A 
ATOM     10  C   UNL     1      -0.116  -4.491  -0.428  0.00  0.00    +0.030 A 
ATOM     11  N   UNL     1       2.075  -5.442  -0.231  0.00  0.00    -0.251 NA
ATOM     12  C   UNL     1       3.377  -5.279  -0.171  0.00  0.00    +0.144 A 
ATOM     13  C   UNL     1       3.955  -4.002  -0.237  0.00  0.00    +0.144 A 
ATOM     14  N   UNL     1       3.209  -2.918  -0.363  0.00  0.00    -0.239 NA
ENDBRANCH   1  13
BRANCH   3  15
ATOM     15  C   UNL     1       7.454  -2.511  -0.155  0.00  0.00    +0.245 C 
BRANCH  15  16
ATOM     16  C   UNL     1       7.875  -1.233  -0.833  0.00  0.00    +0.240 C 
ATOM     17  O   UNL     1       7.102  -0.301  -0.903  0.00  0.00    -0.273 OA
ATOM     18  N   UNL     1       9.110  -1.126  -1.362  0.00  0.00    -0.327 N 
ATOM     19  H   UNL     1       9.703  -1.893  -1.370  0.00  0.00    +0.145 HD
ATOM     20  H   UNL     1       9.406  -0.280  -1.734  0.00  0.00    +0.145 HD
ENDBRANCH  15  16
BRANCH  15  21
ATOM     21  C   UNL     1       7.885  -2.479   1.289  0.00  0.00    +0.240 C 
ATOM     22  O   UNL     1       7.104  -2.127   2.147  0.00  0.00    -0.273 OA
ATOM     23  N   UNL     1       9.139  -2.842   1.626  0.00  0.00    -0.327 N 
ATOM     24  H   UNL     1       9.741  -3.192   0.951  0.00  0.00    +0.145 HD
ATOM     25  H   UNL     1       9.438  -2.754   2.545  0.00  0.00    +0.145 HD
ENDBRANCH  15  21
ENDBRANCH   3  15
TORSDOF 4
