REMARK  Name = ZINC20902208
REMARK  8 active torsions:
REMARK  status: ('A' for Active; 'I' for Inactive)
REMARK    1  A    between atoms: C_1  and  C_2
REMARK    2  A    between atoms: C_2  and  C_3
REMARK    3  A    between atoms: C_8  and  N_9
REMARK    4  A    between atoms: C_10  and  C_12
REMARK    5  A    between atoms: C_12  and  N_13
REMARK    6  A    between atoms: N_13  and  C_14
REMARK    7  A    between atoms: N_13  and  S_15
REMARK    8  A    between atoms: S_15  and  C_18
REMARK                            x       y       z     vdW  Elec       q    Type
REMARK                         _______ _______ _______ _____ _____    ______ ____
ROOT
ATOM      1  S   UNL     1      -5.408   3.375   0.208  0.00  0.00    +0.061 S 
ATOM      2  O   UNL     1      -5.598   4.088  -1.007  0.00  0.00    -0.153 OA
ATOM      3  O   UNL     1      -6.276   2.329   0.621  0.00  0.00    -0.153 OA
ENDROOT
BRANCH   1   4
ATOM      4  C   UNL     1      -3.787   2.686   0.139  0.00  0.00    +0.106 A 
ATOM      5  C   UNL     1      -3.477   1.568   0.896  0.00  0.00    +0.030 A 
ATOM      6  C   UNL     1      -2.213   1.025   0.843  0.00  0.00    +0.026 A 
ATOM      7  C   UNL     1      -1.229   1.591   0.028  0.00  0.00    +0.046 A 
ATOM      8  C   UNL     1      -1.539   2.719  -0.725  0.00  0.00    +0.060 A 
ATOM      9  C   UNL     1      -2.834   3.259  -0.654  0.00  0.00    +0.043 A 
ATOM     10  C   UNL     1      -0.573   3.385  -1.605  0.00  0.00    +0.246 C 
ATOM     11  O   UNL     1      -0.970   3.787  -2.682  0.00  0.00    -0.270 OA
ATOM     12  N   UNL     1       0.710   3.580  -1.306  0.00  0.00    -0.303 N 
ATOM     13  C   UNL     1       1.279   3.117  -0.040  0.00  0.00    +0.200 C 
ATOM     14  C   UNL     1       1.185   1.617   0.015  0.00  0.00    +0.234 C 
ATOM     15  O   UNL     1       2.207   0.964   0.054  0.00  0.00    -0.274 OA
ATOM     16  N   UNL     1       0.015   0.984   0.023  0.00  0.00    -0.284 N 
ATOM     17  H   UNL     1       1.346   4.102  -2.036  0.00  0.00    +0.150 HD
ATOM     18  H   UNL     1       0.092  -0.113   0.025  0.00  0.00    +0.155 HD
ENDBRANCH   1   4
BRANCH   1  19
ATOM     19  N   UNL     1      -5.411   4.500   1.423  0.00  0.00    -0.171 NA
ATOM     20  C   UNL     1      -5.067   5.894   1.131  0.00  0.00    +0.132 C 
BRANCH  19  21
ATOM     21  C   UNL     1      -5.758   4.102   2.789  0.00  0.00    +0.205 C 
BRANCH  21  23
ATOM     22  N   UNL     1      -4.572   3.412   4.848  0.00  0.00    -0.284 N 
ATOM     23  C   UNL     1      -4.498   3.801   3.559  0.00  0.00    +0.233 C 
ATOM     24  O   UNL     1      -3.417   3.908   3.020  0.00  0.00    -0.274 OA
ATOM     25  H   UNL     1      -5.544   3.402   5.364  0.00  0.00    +0.155 HD
BRANCH  22  31
ATOM     26  C   UNL     1      -3.357   3.111   6.913  0.00  0.00    -0.026 A 
ATOM     27  C   UNL     1      -2.213   2.725   7.583  0.00  0.00    +0.005 A 
ATOM     28  C   UNL     1      -1.124   2.249   6.876  0.00  0.00    +0.000 A 
ATOM     29  C   UNL     1      -1.177   2.158   5.497  0.00  0.00    +0.002 A 
ATOM     30  C   UNL     1      -2.321   2.538   4.822  0.00  0.00    +0.023 A 
ATOM     31  C   UNL     1      -3.414   3.021   5.529  0.00  0.00    +0.037 A 
BRANCH  26  33
ATOM     32  C   UNL     1      -5.522   2.482   7.946  0.00  0.00    +0.009 C 
ATOM     33  C   UNL     1      -4.544   3.629   7.685  0.00  0.00    +0.033 C 
ENDBRANCH  26  33
ENDBRANCH  22  31
ENDBRANCH  21  23
ENDBRANCH  19  21
ENDBRANCH   1  19
TORSDOF 6
