REMARK  Name = ZINC44037673
REMARK  13 active torsions:
REMARK  status: ('A' for Active; 'I' for Inactive)
REMARK    1  A    between atoms: C_1  and  C_2
REMARK    2  A    between atoms: C_4  and  C_28
REMARK    3  A    between atoms: C_5  and  S_9
REMARK    4  A    between atoms: C_7  and  C_8
REMARK    5  A    between atoms: S_9  and  N_12
REMARK    6  A    between atoms: N_12  and  C_13
REMARK    7  A    between atoms: C_16  and  C_19
REMARK    8  A    between atoms: C_19  and  C_20
REMARK    9  A    between atoms: N_22  and  C_23
REMARK   10  A    between atoms: C_23  and  C_24
REMARK   11  A    between atoms: C_23  and  C_25
REMARK   12  A    between atoms: C_23  and  C_26
REMARK   13  A    between atoms: C_26  and  O_27
REMARK                            x       y       z     vdW  Elec       q    Type
REMARK                         _______ _______ _______ _____ _____    ______ ____
ROOT
ATOM      1  C   UNL     1      -1.921  -5.447  -1.706  0.00  0.00    +0.048 A 
ATOM      2  C   UNL     1      -1.975  -4.242  -2.395  0.00  0.00    +0.025 A 
ATOM      3  C   UNL     1      -2.440  -4.213  -3.696  0.00  0.00    +0.006 A 
ATOM      4  C   UNL     1      -2.851  -5.381  -4.311  0.00  0.00    -0.039 A 
ATOM      5  C   UNL     1      -2.799  -6.582  -3.627  0.00  0.00    +0.006 A 
ATOM      6  C   UNL     1      -2.330  -6.619  -2.329  0.00  0.00    +0.025 A 
ENDROOT
BRANCH   1   7
ATOM      7  N   UNL     1      -1.452  -5.480  -0.391  0.00  0.00    -0.216 N 
ATOM      8  H   UNL     1      -1.938  -5.977   0.286  0.00  0.00    +0.174 HD
BRANCH   7   9
ATOM      9  S   UNL     1      -0.065  -4.671   0.014  0.00  0.00    +0.073 S 
ATOM     10  O   UNL     1       0.207  -4.985   1.373  0.00  0.00    -0.150 OA
ATOM     11  O   UNL     1      -0.227  -3.334  -0.441  0.00  0.00    -0.150 OA
BRANCH   9  16
ATOM     12  C   UNL     1       4.412  -7.070  -3.242  0.00  0.00    +0.044 C 
ATOM     13  C   UNL     1       3.294  -6.471  -2.429  0.00  0.00    -0.047 A 
ATOM     14  C   UNL     1       2.636  -7.239  -1.486  0.00  0.00    +0.009 A 
ATOM     15  C   UNL     1       1.611  -6.690  -0.740  0.00  0.00    -0.024 A 
ATOM     16  C   UNL     1       1.243  -5.371  -0.936  0.00  0.00    +0.112 A 
ATOM     17  C   UNL     1       1.901  -4.603  -1.877  0.00  0.00    +0.032 A 
ATOM     18  C   UNL     1       2.930  -5.152  -2.621  0.00  0.00    -0.046 A 
ATOM     19  C   UNL     1       3.652  -4.312  -3.643  0.00  0.00    +0.044 C 
ATOM     20  C   UNL     1       0.892  -7.527   0.286  0.00  0.00    +0.046 C 
ENDBRANCH   9  16
ENDBRANCH   7   9
ENDBRANCH   1   7
BRANCH   4  21
ATOM     21  C   UNL     1      -3.358  -5.345  -5.730  0.00  0.00    +0.130 C 
BRANCH  21  22
ATOM     22  C   UNL     1      -2.206  -5.546  -6.680  0.00  0.00    +0.218 C 
ATOM     23  O   UNL     1      -1.084  -5.704  -6.248  0.00  0.00    -0.275 OA
ATOM     24  N   UNL     1      -2.423  -5.552  -8.010  0.00  0.00    -0.308 N 
ATOM     25  H   UNL     1      -3.320  -5.426  -8.356  0.00  0.00    +0.149 HD
BRANCH  24  26
ATOM     26  C   UNL     1      -1.303  -5.748  -8.934  0.00  0.00    +0.052 C 
ATOM     27  C   UNL     1      -0.274  -4.634  -8.732  0.00  0.00    +0.033 C 
ATOM     28  C   UNL     1      -0.648  -7.103  -8.661  0.00  0.00    +0.033 C 
BRANCH  26  29
ATOM     29  C   UNL     1      -1.818  -5.711 -10.375  0.00  0.00    +0.181 C 
BRANCH  29  30
ATOM     30  O   UNL     1      -0.725  -5.902 -11.276  0.00  0.00    -0.393 OA
ATOM     31  H   UNL     1      -0.979  -5.891 -12.209  0.00  0.00    +0.209 HD
ENDBRANCH  29  30
ENDBRANCH  26  29
ENDBRANCH  24  26
ENDBRANCH  21  22
ENDBRANCH   4  21
TORSDOF 8
