REMARK  Name = ZINC41584732
REMARK  7 active torsions:
REMARK  status: ('A' for Active; 'I' for Inactive)
REMARK    1  A    between atoms: C_1  and  C_2
REMARK    2  A    between atoms: C_4  and  O_38
REMARK    3  A    between atoms: C_5  and  C_21
REMARK    4  A    between atoms: C_11  and  C_12
REMARK    5  A    between atoms: C_15  and  O_18
REMARK    6  A    between atoms: O_18  and  C_19
REMARK    7  A    between atoms: C_21  and  N_22
REMARK                            x       y       z     vdW  Elec       q    Type
REMARK                         _______ _______ _______ _____ _____    ______ ____
ROOT
ATOM      1  C   UNL     1       0.368   1.463  -0.008  0.00  0.00    +0.045 C 
ATOM      2  C   UNL     1       0.060  -0.012  -0.001  0.00  0.00    -0.033 A 
ATOM      3  C   UNL     1      -0.160  -0.670  -1.178  0.00  0.00    +0.050 A 
ATOM      4  C   UNL     1      -0.445  -2.033  -1.175  0.00  0.00    +0.122 A 
ATOM      5  C   UNL     1      -0.508  -2.737   0.017  0.00  0.00    +0.020 A 
ATOM      6  C   UNL     1      -0.286  -2.083   1.222  0.00  0.00    +0.145 A 
ATOM      7  C   UNL     1       0.005  -0.709   1.206  0.00  0.00    +0.071 A 
ATOM      8  C   UNL     1       0.195  -0.308   2.612  0.00  0.00    +0.232 C 
ATOM      9  O   UNL     1       0.459   0.802   3.042  0.00  0.00    -0.283 OA
ATOM     10  C   UNL     1      -0.005  -1.546   3.379  0.00  0.00    +0.176 C 
ATOM     11  C   UNL     1       0.069  -1.674   4.728  0.00  0.00    +0.058 C 
ATOM     12  O   UNL     1      -0.290  -2.532   2.496  0.00  0.00    -0.451 OA
ENDROOT
BRANCH  11  13
ATOM     13  C   UNL     1      -0.017  -3.003   5.345  0.00  0.00    -0.021 A 
ATOM     14  C   UNL     1      -0.114  -3.127   6.737  0.00  0.00    +0.011 A 
ATOM     15  C   UNL     1      -0.195  -4.376   7.310  0.00  0.00    +0.046 A 
ATOM     16  C   UNL     1      -0.180  -5.513   6.510  0.00  0.00    +0.120 A 
ATOM     17  C   UNL     1      -0.084  -5.396   5.128  0.00  0.00    +0.046 A 
ATOM     18  C   UNL     1      -0.009  -4.152   4.544  0.00  0.00    +0.011 A 
BRANCH  16  19
ATOM     19  O   UNL     1      -0.260  -6.742   7.081  0.00  0.00    -0.495 OA
ATOM     20  C   UNL     1      -0.239  -7.868   6.201  0.00  0.00    +0.277 C 
ENDBRANCH  16  19
ENDBRANCH  11  13
BRANCH   4  21
ATOM     21  O   UNL     1      -0.662  -2.678  -2.349  0.00  0.00    -0.506 OA
ATOM     22  H   UNL     1       0.137  -3.045  -2.751  0.00  0.00    +0.292 HD
ENDBRANCH   4  21
BRANCH   5  23
ATOM     23  C   UNL     1      -0.817  -4.212   0.005  0.00  0.00    -0.036 C 
BRANCH  23  24
ATOM     24  N   UNL     1       0.434  -4.974  -0.094  0.00  0.00    +0.383 N 
ATOM     25  C   UNL     1       0.143  -6.406   0.024  0.00  0.00    -0.073 C 
ATOM     26  C   UNL     1       1.415  -7.235  -0.076  0.00  0.00    -0.007 C 
ATOM     27  C   UNL     1       2.156  -6.934  -1.382  0.00  0.00    +0.011 C 
ATOM     28  C   UNL     1       2.427  -5.426  -1.419  0.00  0.00    +0.020 C 
ATOM     29  C   UNL     1       1.072  -4.700  -1.390  0.00  0.00    -0.069 C 
ATOM     30  C   UNL     1       3.194  -5.031  -0.176  0.00  0.00    +0.023 A 
ATOM     31  C   UNL     1       4.024  -3.958  -0.265  0.00  0.00    +0.022 A 
ATOM     32  C   UNL     1       4.715  -3.500   0.863  0.00  0.00    +0.007 A 
ATOM     33  C   UNL     1       4.521  -4.132   2.056  0.00  0.00    +0.070 A 
ATOM     34  C   UNL     1       3.656  -5.233   2.113  0.00  0.00    +0.251 A 
ATOM     35  O   UNL     1       3.428  -5.767   3.187  0.00  0.00    -0.268 OA
ATOM     36  N   UNL     1       3.069  -5.710   0.988  0.00  0.00    -0.312 N 
ATOM     37  C   UNL     1       2.351  -6.977   1.093  0.00  0.00    +0.126 C 
ATOM     38  H   UNL     1       1.056  -4.697   0.651  0.00  0.00    -0.081 HD
ENDBRANCH  23  24
ENDBRANCH   5  23
TORSDOF 5
