REMARK  Name = ZINC32810579
REMARK  10 active torsions:
REMARK  status: ('A' for Active; 'I' for Inactive)
REMARK    1  A    between atoms: C_1  and  C_2
REMARK    2  A    between atoms: C_2  and  C_4
REMARK    3  A    between atoms: C_2  and  N_11
REMARK    4  A    between atoms: N_11  and  C_12
REMARK    5  A    between atoms: C_12  and  C_14
REMARK    6  A    between atoms: C_12  and  C_15
REMARK    7  A    between atoms: C_15  and  C_17
REMARK    8  A    between atoms: C_18  and  N_27
REMARK    9  A    between atoms: N_19  and  C_26
REMARK   10  A    between atoms: N_22  and  C_25
REMARK                            x       y       z     vdW  Elec       q    Type
REMARK                         _______ _______ _______ _____ _____    ______ ____
ROOT
ATOM      1  C   UNL     1       2.781  -0.457  -2.446  0.00  0.00    +0.158 C 
ATOM      2  O   UNL     1       2.238  -1.227  -3.212  0.00  0.00    -0.294 OA
ENDROOT
BRANCH   1   3
ATOM      3  C   UNL     1       4.033   0.104  -2.778  0.00  0.00    +0.118 A 
ATOM      4  C   UNL     1       4.729  -0.306  -3.929  0.00  0.00    +0.116 A 
ATOM      5  N   UNL     1       5.937   0.266  -4.209  0.00  0.00    -0.284 N 
ATOM      6  C   UNL     1       6.466   1.206  -3.409  0.00  0.00    +0.333 A 
ATOM      7  O   UNL     1       7.545   1.684  -3.703  0.00  0.00    -0.246 OA
ATOM      8  N   UNL     1       5.848   1.637  -2.298  0.00  0.00    -0.263 N 
ATOM      9  C   UNL     1       4.648   1.139  -1.936  0.00  0.00    +0.269 A 
ATOM     10  O   UNL     1       4.088   1.536  -0.931  0.00  0.00    -0.267 OA
ATOM     11  C   UNL     1       6.483   2.665  -1.470  0.00  0.00    +0.157 C 
ATOM     12  C   UNL     1       6.670  -0.154  -5.405  0.00  0.00    +0.155 C 
BRANCH   4  13
ATOM     13  N   UNL     1       4.208  -1.257  -4.750  0.00  0.00    -0.344 N 
ATOM     14  H   UNL     1       3.317  -1.604  -4.586  0.00  0.00    +0.144 HD
ATOM     15  H   UNL     1       4.727  -1.590  -5.498  0.00  0.00    +0.144 HD
ENDBRANCH   4  13
ENDBRANCH   1   3
BRANCH   1  16
ATOM     16  C   UNL     1       2.119  -0.100  -1.140  0.00  0.00    -0.001 C 
ATOM     17  C   UNL     1       2.826  -0.826   0.006  0.00  0.00    -0.006 C 
BRANCH  16  18
ATOM     18  N   UNL     1       0.707  -0.505  -1.180  0.00  0.00    +0.390 N 
ATOM     19  H   UNL     1       0.648  -1.510  -1.244  0.00  0.00    -0.084 HD
ATOM     20  H   UNL     1       0.261  -0.090  -1.985  0.00  0.00    -0.084 HD
BRANCH  18  22
ATOM     21  C   UNL     1       0.013   1.479   0.077  0.00  0.00    -0.009 C 
ATOM     22  C   UNL     1       0.032  -0.051   0.043  0.00  0.00    -0.043 C 
BRANCH  22  23
ATOM     23  C   UNL     1      -1.382  -0.571   0.059  0.00  0.00    -0.062 A 
ATOM     24  C   UNL     1      -2.123  -0.594  -1.108  0.00  0.00    +0.003 A 
ATOM     25  C   UNL     1      -3.420  -1.071  -1.094  0.00  0.00    +0.020 A 
ATOM     26  C   UNL     1      -3.977  -1.526   0.088  0.00  0.00    +0.041 A 
ATOM     27  C   UNL     1      -3.235  -1.503   1.256  0.00  0.00    +0.020 A 
ATOM     28  C   UNL     1      -1.936  -1.030   1.239  0.00  0.00    +0.003 A 
ATOM     29 CL   UNL     1      -5.606  -2.125   0.107  0.00  0.00    -0.084 Cl
ENDBRANCH  22  23
ENDBRANCH  18  22
ENDBRANCH  16  18
ENDBRANCH   1  16
TORSDOF 6
