REMARK  Name = ZINC48546167
REMARK  5 active torsions:
REMARK  status: ('A' for Active; 'I' for Inactive)
REMARK    1  A    between atoms: C_1  and  C_2
REMARK    2  A    between atoms: C_2  and  C_4
REMARK    3  A    between atoms: C_2  and  N_9
REMARK    4  A    between atoms: N_9  and  C_10
REMARK    5  A    between atoms: C_15  and  N_16
REMARK                            x       y       z     vdW  Elec       q    Type
REMARK                         _______ _______ _______ _____ _____    ______ ____
ROOT
ATOM      1  C   UNL     1      -2.205  -0.423  -1.165  0.00  0.00    +0.058 A 
ATOM      2  C   UNL     1      -1.638   0.013  -2.356  0.00  0.00    +0.026 A 
ATOM      3  C   UNL     1      -2.207  -0.347  -3.562  0.00  0.00    +0.016 A 
ATOM      4  C   UNL     1      -3.340  -1.141  -3.584  0.00  0.00    +0.016 A 
ATOM      5  C   UNL     1      -3.907  -1.576  -2.400  0.00  0.00    +0.049 A 
ATOM      6  C   UNL     1      -3.339  -1.224  -1.191  0.00  0.00    +0.148 A 
ATOM      7  I   UNL     1      -4.200  -1.684  -5.416  0.00  0.00    -0.044 I 
ENDROOT
BRANCH   6   8
ATOM      8  N   UNL     1      -3.942  -1.696   0.076  0.00  0.00    +0.058 N 
ATOM      9  O   UNL     1      -3.233  -2.011   1.002  0.00  0.00    -0.126 OA
ATOM     10  O   UNL     1      -5.144  -1.766   0.183  0.00  0.00    -0.126 OA
ENDBRANCH   6   8
BRANCH   1  11
ATOM     11  N   UNL     1      -1.632  -0.061   0.056  0.00  0.00    -0.333 N 
ATOM     12  H   UNL     1      -2.075  -0.292   0.888  0.00  0.00    +0.147 HD
BRANCH  11  14
ATOM     13  C   UNL     1      -0.632   2.168  -0.069  0.00  0.00    +0.036 C 
ATOM     14  C   UNL     1      -0.362   0.669   0.082  0.00  0.00    +0.133 C 
BRANCH  14  15
ATOM     15  C   UNL     1       0.338   0.414   1.392  0.00  0.00    +0.125 A 
ATOM     16  C   UNL     1       1.660   0.224   1.553  0.00  0.00    +0.046 A 
ATOM     17  C   UNL     1       1.879   0.022   2.936  0.00  0.00    +0.041 A 
ATOM     18  C   UNL     1       0.677   0.101   3.536  0.00  0.00    +0.195 A 
ATOM     19  O   UNL     1      -0.251   0.345   2.597  0.00  0.00    -0.466 OA
ENDBRANCH  14  15
ENDBRANCH  11  14
ENDBRANCH   1  11
TORSDOF 4
