REMARK  Name = ZINC09516898
REMARK  8 active torsions:
REMARK  status: ('A' for Active; 'I' for Inactive)
REMARK    1  A    between atoms: C_1  and  C_2
REMARK    2  A    between atoms: C_9  and  C_14
REMARK    3  A    between atoms: C_14  and  N_57
REMARK    4  A    between atoms: C_19  and  O_32
REMARK    5  A    between atoms: C_20  and  O_30
REMARK    6  A    between atoms: C_23  and  C_25
REMARK    7  A    between atoms: O_30  and  C_31
REMARK    8  A    between atoms: O_32  and  C_33
REMARK                            x       y       z     vdW  Elec       q    Type
REMARK                         _______ _______ _______ _____ _____    ______ ____
ROOT
ATOM      1  C   UNL     1      -0.072  -2.767   0.394  0.00  0.00    -0.072 C 
ATOM      2  C   UNL     1       1.274  -2.180  -0.029  0.00  0.00    +0.017 C 
ATOM      3  C   UNL     1       1.207  -0.674  -0.014  0.00  0.00    -0.043 A 
ATOM      4  C   UNL     1       2.397   0.040  -0.019  0.00  0.00    +0.053 A 
ATOM      5  C   UNL     1       2.383   1.423  -0.012  0.00  0.00    +0.162 A 
ATOM      6  C   UNL     1       1.166   2.100   0.002  0.00  0.00    +0.162 A 
ATOM      7  C   UNL     1      -0.017   1.384   0.010  0.00  0.00    +0.052 A 
ATOM      8  C   UNL     1       0.002  -0.004   0.002  0.00  0.00    -0.049 A 
ATOM      9  C   UNL     1      -1.314  -0.737   0.015  0.00  0.00    +0.001 C 
ATOM     10  N   UNL     1      -1.121  -2.128  -0.427  0.00  0.00    +0.392 N 
ATOM     11  H   UNL     1      -0.825  -2.129  -1.410  0.00  0.00    -0.080 HD
ENDROOT
BRANCH   9  12
ATOM     12  C   UNL     1      -2.272  -0.055  -0.928  0.00  0.00    -0.019 A 
ATOM     13  C   UNL     1      -3.277   0.810  -0.646  0.00  0.00    +0.010 A 
ATOM     14  C   UNL     1      -4.034   1.319  -1.684  0.00  0.00    +0.008 A 
ATOM     15  C   UNL     1      -3.756   0.929  -2.953  0.00  0.00    +0.045 A 
ATOM     16  S   UNL     1      -2.383  -0.184  -2.705  0.00  0.00    -0.103 S 
ENDBRANCH   9  12
BRANCH   6  17
ATOM     17  O   UNL     1       1.141   3.460   0.008  0.00  0.00    -0.491 OA
ATOM     18  C   UNL     1      -0.143   4.085   0.022  0.00  0.00    +0.277 C 
ENDBRANCH   6  17
BRANCH   5  19
ATOM     19  O   UNL     1       3.551   2.118  -0.018  0.00  0.00    -0.491 OA
ATOM     20  C   UNL     1       4.760   1.355  -0.032  0.00  0.00    +0.277 C 
ENDBRANCH   5  19
BRANCH  10  21
ATOM     21  C   UNL     1      -2.390  -2.879  -0.305  0.00  0.00    -0.002 C 
BRANCH  21  30
ATOM     22  C   UNL     1       1.505  -5.021  -2.636  0.00  0.00    +0.046 C 
ATOM     23  C   UNL     1       0.372  -6.014  -2.688  0.00  0.00    -0.024 A 
ATOM     24  C   UNL     1       0.550  -7.234  -3.303  0.00  0.00    +0.005 A 
ATOM     25  C   UNL     1      -0.484  -8.159  -3.360  0.00  0.00    +0.001 A 
ATOM     26  C   UNL     1      -1.711  -7.874  -2.801  0.00  0.00    +0.015 A 
ATOM     27  C   UNL     1      -1.912  -6.646  -2.176  0.00  0.00    +0.065 A 
ATOM     28  C   UNL     1      -0.862  -5.702  -2.116  0.00  0.00    +0.081 A 
ATOM     29  N   UNL     1      -1.082  -4.511  -1.506  0.00  0.00    -0.235 NA
ATOM     30  C   UNL     1      -2.229  -4.223  -0.969  0.00  0.00    +0.094 A 
ATOM     31  N   UNL     1      -3.293  -5.068  -0.980  0.00  0.00    -0.312 N 
ATOM     32  H   UNL     1      -4.127  -4.796  -0.566  0.00  0.00    +0.170 HD
ATOM     33  C   UNL     1      -3.199  -6.286  -1.563  0.00  0.00    +0.259 A 
ATOM     34  O   UNL     1      -4.144  -7.053  -1.580  0.00  0.00    -0.267 OA
ENDBRANCH  21  30
ENDBRANCH  10  21
TORSDOF 5
