REMARK  Name = ZINC62818674
REMARK  2 active torsions:
REMARK  status: ('A' for Active; 'I' for Inactive)
REMARK    1  A    between atoms: N_11  and  S_12
REMARK    2  A    between atoms: S_12  and  C_15
REMARK                            x       y       z     vdW  Elec       q    Type
REMARK                         _______ _______ _______ _____ _____    ______ ____
ROOT
ATOM      1  C   UNL     1      -0.017   1.380   0.010  0.00  0.00    +0.000 A 
ATOM      2  C   UNL     1       1.169   2.092   0.002  0.00  0.00    +0.002 A 
ATOM      3  C   UNL     1       2.380   1.426  -0.027  0.00  0.00    +0.025 A 
ATOM      4  C   UNL     1       2.400   0.038  -0.042  0.00  0.00    +0.056 A 
ATOM      5  C   UNL     1       1.209  -0.671  -0.010  0.00  0.00    -0.011 A 
ATOM      6  C   UNL     1       0.002  -0.004   0.002  0.00  0.00    +0.007 A 
ATOM      7  C   UNL     1       1.244  -2.187   0.051  0.00  0.00    +0.118 C 
ATOM      8  N   UNL     1       1.752  -2.708  -1.219  0.00  0.00    -0.310 NA
ATOM      9  C   UNL     1       3.212  -2.780  -1.261  0.00  0.00    +0.102 C 
ATOM     10  C   UNL     1       3.885  -1.431  -1.334  0.00  0.00    +0.146 C 
ATOM     11  N   UNL     1       3.610  -0.657  -0.112  0.00  0.00    -0.201 N 
ATOM     12  H   UNL     1       1.340  -3.603  -1.433  0.00  0.00    +0.122 HD
ENDROOT
BRANCH  11  13
ATOM     13  S   UNL     1       4.697  -0.611   1.137  0.00  0.00    +0.075 S 
ATOM     14  O   UNL     1       5.971  -0.903   0.577  0.00  0.00    -0.150 OA
ATOM     15  O   UNL     1       4.438   0.586   1.857  0.00  0.00    -0.150 OA
BRANCH  13  16
ATOM     16  C   UNL     1       4.305  -1.945   2.219  0.00  0.00    +0.109 A 
ATOM     17  C   UNL     1       3.410  -1.754   3.255  0.00  0.00    +0.030 A 
ATOM     18  C   UNL     1       3.103  -2.800   4.104  0.00  0.00    +0.022 A 
ATOM     19  C   UNL     1       3.690  -4.039   3.917  0.00  0.00    +0.041 A 
ATOM     20  C   UNL     1       4.585  -4.229   2.879  0.00  0.00    +0.022 A 
ATOM     21  C   UNL     1       4.888  -3.184   2.027  0.00  0.00    +0.030 A 
ATOM     22 CL   UNL     1       3.304  -5.353   4.983  0.00  0.00    -0.084 Cl
ENDBRANCH  13  16
ENDBRANCH  11  13
TORSDOF 2
