REMARK  Name = ZINC39719888
REMARK  3 active torsions:
REMARK  status: ('A' for Active; 'I' for Inactive)
REMARK    1  A    between atoms: C_1  and  C_2
REMARK    2  A    between atoms: C_2  and  C_19
REMARK    3  A    between atoms: N_3  and  N_4
REMARK                            x       y       z     vdW  Elec       q    Type
REMARK                         _______ _______ _______ _____ _____    ______ ____
ROOT
ATOM      1  N   UNL     1       0.024   0.035   2.340  0.00  0.00    -0.205 N 
ATOM      2  C   UNL     1       0.044  -0.662   3.532  0.00  0.00    +0.227 C 
ATOM      3  N   UNL     1       0.067  -1.972   3.481  0.00  0.00    -0.220 NA
ATOM      4  C   UNL     1       0.010  -2.702   4.745  0.00  0.00    +0.253 C 
ATOM      5  C   UNL     1       0.634  -1.793   5.794  0.00  0.00    +0.115 C 
ATOM      6  C   UNL     1       1.534  -2.568   6.461  0.00  0.00    +0.025 A 
ATOM      7  C   UNL     1       2.339  -2.325   7.601  0.00  0.00    +0.012 A 
ATOM      8  C   UNL     1       3.160  -3.327   8.013  0.00  0.00    +0.001 A 
ATOM      9  C   UNL     1       3.256  -4.573   7.385  0.00  0.00    +0.002 A 
ATOM     10  C   UNL     1       2.528  -4.918   6.290  0.00  0.00    +0.026 A 
ATOM     11  C   UNL     1       1.603  -3.895   5.775  0.00  0.00    +0.046 A 
ATOM     12  N   UNL     1       0.777  -3.939   4.774  0.00  0.00    -0.358 N 
ATOM     13  N   UNL     1       0.364  -0.484   5.825  0.00  0.00    -0.171 NA
ATOM     14  N   UNL     1       0.046   0.048   4.686  0.00  0.00    -0.247 N 
ATOM     15  H   UNL     1       0.011   1.005   2.345  0.00  0.00    +0.177 HD
ATOM     16  H   UNL     1      -0.203   0.985   4.661  0.00  0.00    +0.192 HD
ATOM     17  H   UNL     1       0.685  -4.676   4.150  0.00  0.00    +0.162 HD
ENDROOT
BRANCH   1  20
ATOM     18  C   UNL     1      -0.018   1.503   0.010  0.00  0.00    +0.068 C 
ATOM     19  C   UNL     1       0.002  -0.004   0.002  0.00  0.00    +0.063 C 
ATOM     20  N   UNL     1       0.022  -0.659   1.123  0.00  0.00    -0.184 NA
BRANCH  19  21
ATOM     21  C   UNL     1      -0.000  -0.734  -1.279  0.00  0.00    -0.002 A 
ATOM     22  C   UNL     1      -0.015  -0.032  -2.487  0.00  0.00    +0.011 A 
ATOM     23  C   UNL     1      -0.017  -0.722  -3.681  0.00  0.00    +0.016 A 
ATOM     24  C   UNL     1      -0.003  -2.106  -3.685  0.00  0.00    +0.018 A 
ATOM     25  C   UNL     1       0.011  -2.808  -2.492  0.00  0.00    +0.016 A 
ATOM     26  C   UNL     1       0.019  -2.131  -1.290  0.00  0.00    +0.011 A 
ATOM     27 BR   UNL     1      -0.005  -3.043  -5.328  0.00  0.00    -0.050 Br
ENDBRANCH  19  21
ENDBRANCH   1  20
TORSDOF 2
