REMARK  Name = ZINC32748222
REMARK  10 active torsions:
REMARK  status: ('A' for Active; 'I' for Inactive)
REMARK    1  A    between atoms: C_1  and  C_2
REMARK    2  A    between atoms: C_2  and  C_3
REMARK    3  A    between atoms: C_3  and  C_4
REMARK    4  A    between atoms: C_3  and  C_5
REMARK    5  A    between atoms: C_3  and  C_6
REMARK    6  A    between atoms: C_9  and  N_12
REMARK    7  A    between atoms: C_13  and  C_15
REMARK    8  A    between atoms: C_15  and  C_17
REMARK    9  A    between atoms: C_15  and  N_24
REMARK   10  A    between atoms: C_17  and  C_18
REMARK                            x       y       z     vdW  Elec       q    Type
REMARK                         _______ _______ _______ _____ _____    ______ ____
ROOT
ATOM      1  N   UNL     1       1.362   1.593  -0.002  0.00  0.00    -0.311 N 
ATOM      2  C   UNL     1       2.331   0.926   0.654  0.00  0.00    +0.234 C 
ATOM      3  O   UNL     1       2.066  -0.095   1.254  0.00  0.00    -0.274 OA
ATOM      4  H   UNL     1       1.602   2.518  -0.546  0.00  0.00    +0.149 HD
ENDROOT
BRANCH   1   8
ATOM      5  C   UNL     1      -1.490   3.616   0.036  0.00  0.00    -0.005 C 
ATOM      6  C   UNL     1      -0.773   3.123  -1.223  0.00  0.00    +0.006 C 
ATOM      7  C   UNL     1      -0.753   1.593  -1.232  0.00  0.00    +0.022 C 
ATOM      8  C   UNL     1      -0.013   1.086   0.008  0.00  0.00    +0.073 C 
ATOM      9  C   UNL     1      -0.729   1.579   1.267  0.00  0.00    +0.022 C 
ATOM     10  C   UNL     1      -0.750   3.109   1.275  0.00  0.00    +0.006 C 
BRANCH   5  11
ATOM     11  C   UNL     1      -1.510   5.146   0.044  0.00  0.00    -0.032 C 
ATOM     12  C   UNL     1      -0.075   5.675   0.033  0.00  0.00    +0.011 C 
ATOM     13  C   UNL     1      -2.250   5.653  -1.195  0.00  0.00    +0.011 C 
BRANCH  11  15
ATOM     14  C   UNL     1      -2.247   7.169   1.311  0.00  0.00    +0.004 C 
ATOM     15  C   UNL     1      -2.227   5.639   1.303  0.00  0.00    +0.003 C 
ENDBRANCH  11  15
ENDBRANCH   5  11
ENDBRANCH   1   8
BRANCH   2  16
ATOM     16  C   UNL     1       3.745   1.447   0.644  0.00  0.00    +0.165 C 
BRANCH  16  17
ATOM     17  N   UNL     1       4.668   0.363   0.987  0.00  0.00    -0.288 N 
ATOM     18  C   UNL     1       4.561  -0.263   2.175  0.00  0.00    +0.298 C 
ATOM     19  O   UNL     1       3.698   0.073   2.963  0.00  0.00    -0.253 OA
ATOM     20  N   UNL     1       5.410  -1.261   2.491  0.00  0.00    -0.313 N 
ATOM     21  H   UNL     1       5.449   0.059   0.274  0.00  0.00    +0.151 HD
ATOM     22  H   UNL     1       5.323  -1.772   3.461  0.00  0.00    +0.146 HD
ATOM     23  H   UNL     1       6.191  -1.564   1.778  0.00  0.00    +0.146 HD
ENDBRANCH  16  17
BRANCH  16  24
ATOM     24  C   UNL     1       3.880   2.575   1.668  0.00  0.00    +0.067 C 
BRANCH  24  25
ATOM     25  C   UNL     1       5.258   3.179   1.572  0.00  0.00    -0.045 A 
ATOM     26  C   UNL     1       6.288   2.675   2.343  0.00  0.00    +0.004 A 
ATOM     27  C   UNL     1       7.553   3.225   2.251  0.00  0.00    +0.000 A 
ATOM     28  C   UNL     1       7.785   4.287   1.396  0.00  0.00    +0.000 A 
ATOM     29  C   UNL     1       6.752   4.794   0.629  0.00  0.00    +0.000 A 
ATOM     30  C   UNL     1       5.489   4.240   0.717  0.00  0.00    +0.004 A 
ENDBRANCH  24  25
ENDBRANCH  16  24
ENDBRANCH   2  16
TORSDOF 7
