REMARK  Name = ZINC57553273
REMARK  8 active torsions:
REMARK  status: ('A' for Active; 'I' for Inactive)
REMARK    1  A    between atoms: C_1  and  C_2
REMARK    2  A    between atoms: C_2  and  C_4
REMARK    3  A    between atoms: C_2  and  N_15
REMARK    4  A    between atoms: N_6  and  C_7
REMARK    5  A    between atoms: C_7  and  C_13
REMARK    6  A    between atoms: N_15  and  C_16
REMARK    7  A    between atoms: C_16  and  C_17
REMARK    8  A    between atoms: C_17  and  N_23
REMARK                            x       y       z     vdW  Elec       q    Type
REMARK                         _______ _______ _______ _____ _____    ______ ____
ROOT
ATOM      1  N   UNL     1      -1.421  -0.914  -0.013  0.00  0.00    +0.388 N 
ATOM      2  H   UNL     1      -1.791  -0.452  -0.831  0.00  0.00    -0.085 HD
ATOM      3  H   UNL     1      -1.665  -1.893  -0.041  0.00  0.00    -0.085 HD
ENDROOT
BRANCH   1   5
ATOM      4  C   UNL     1       0.413   0.707  -0.076  0.00  0.00    -0.004 C 
ATOM      5  C   UNL     1       0.041  -0.774   0.008  0.00  0.00    +0.013 C 
BRANCH   5   6
ATOM      6  C   UNL     1       0.634  -1.508  -1.167  0.00  0.00    +0.200 C 
ATOM      7  O   UNL     1      -0.091  -2.091  -1.946  0.00  0.00    -0.278 OA
ATOM      8  N   UNL     1       1.969  -1.518  -1.352  0.00  0.00    -0.299 N 
ATOM      9  H   UNL     1       2.548  -1.052  -0.729  0.00  0.00    +0.150 HD
BRANCH   8  10
ATOM     10  C   UNL     1       2.545  -2.231  -2.495  0.00  0.00    +0.121 C 
ATOM     11  C   UNL     1       2.173  -3.713  -2.411  0.00  0.00    +0.041 C 
ATOM     12  C   UNL     1       2.774  -4.458  -3.604  0.00  0.00    +0.003 C 
ATOM     13  C   UNL     1       4.297  -4.312  -3.582  0.00  0.00    +0.000 C 
ATOM     14  C   UNL     1       4.669  -2.831  -3.666  0.00  0.00    +0.003 C 
ATOM     15  C   UNL     1       4.067  -2.086  -2.472  0.00  0.00    +0.041 C 
BRANCH  10  16
ATOM     16  C   UNL     1       2.016  -1.663  -3.746  0.00  0.00    +0.088 C 
ATOM     17  N   UNL     1       1.608  -1.224  -4.711  0.00  0.00    -0.194 NA
ENDBRANCH  10  16
ENDBRANCH   8  10
ENDBRANCH   5   6
ENDBRANCH   1   5
BRANCH   1  18
ATOM     18  C   UNL     1      -1.989  -0.302   1.195  0.00  0.00    -0.059 C 
BRANCH  18  19
ATOM     19  C   UNL     1      -3.497  -0.559   1.236  0.00  0.00    +0.007 C 
ATOM     20  C   UNL     1      -4.108   0.181   2.427  0.00  0.00    +0.020 C 
ATOM     21  C   UNL     1      -3.469  -0.322   3.723  0.00  0.00    +0.002 C 
ATOM     22  C   UNL     1      -3.726  -1.823   3.869  0.00  0.00    +0.000 C 
ATOM     23  C   UNL     1      -3.115  -2.564   2.679  0.00  0.00    +0.002 C 
ATOM     24  C   UNL     1      -3.754  -2.061   1.383  0.00  0.00    +0.020 C 
BRANCH  19  25
ATOM     25  N   UNL     1      -4.110  -0.077  -0.008  0.00  0.00    -0.294 NA
ATOM     26  C   UNL     1      -3.857   1.359  -0.198  0.00  0.00    +0.113 C 
ATOM     27  C   UNL     1      -4.461   1.806  -1.531  0.00  0.00    +0.175 C 
ATOM     28  O   UNL     1      -5.857   1.496  -1.545  0.00  0.00    -0.377 OA
ATOM     29  C   UNL     1      -6.140   0.106  -1.363  0.00  0.00    +0.175 C 
ATOM     30  C   UNL     1      -5.553  -0.358  -0.028  0.00  0.00    +0.113 C 
ENDBRANCH  19  25
ENDBRANCH  18  19
ENDBRANCH   1  18
TORSDOF 7
