REMARK  Name = ZINC56611728
REMARK  6 active torsions:
REMARK  status: ('A' for Active; 'I' for Inactive)
REMARK    1  A    between atoms: C_1  and  C_2
REMARK    2  A    between atoms: C_3  and  C_26
REMARK    3  A    between atoms: C_7  and  N_8
REMARK    4  A    between atoms: N_11  and  C_12
REMARK    5  A    between atoms: N_21  and  C_23
REMARK    6  A    between atoms: N_28  and  C_29
REMARK                            x       y       z     vdW  Elec       q    Type
REMARK                         _______ _______ _______ _____ _____    ______ ____
ROOT
ATOM      1  N   UNL     1       0.105   0.113   2.422  0.00  0.00    -0.269 N 
ATOM      2  C   UNL     1       0.303  -0.538   3.585  0.00  0.00    +0.304 C 
ATOM      3  O   UNL     1       0.356  -1.752   3.601  0.00  0.00    -0.253 OA
ATOM      4  N   UNL     1       0.443   0.158   4.731  0.00  0.00    -0.296 N 
ATOM      5  H   UNL     1      -0.007   1.076   2.418  0.00  0.00    +0.156 HD
ATOM      6  H   UNL     1       0.401   1.127   4.719  0.00  0.00    +0.151 HD
ENDROOT
BRANCH   4   7
ATOM      7  C   UNL     1       0.658  -0.548   5.994  0.00  0.00    +0.077 C 
ATOM      8  C   UNL     1       2.149  -0.822   6.203  0.00  0.00    -0.007 C 
ATOM      9  C   UNL     1       2.336  -1.657   7.465  0.00  0.00    +0.003 C 
ATOM     10  C   UNL     1       1.720  -1.009   8.695  0.00  0.00    +0.001 C 
ATOM     11  C   UNL     1       0.310  -0.493   8.461  0.00  0.00    +0.003 C 
ATOM     12  C   UNL     1       0.181   0.308   7.169  0.00  0.00    -0.007 C 
ATOM     13  C   UNL     1       0.973   1.605   7.232  0.00  0.00    -0.073 C 
ATOM     14  N   UNL     1       2.416   1.400   7.296  0.00  0.00    +0.382 N 
ATOM     15  C   UNL     1       2.920   0.487   6.276  0.00  0.00    -0.073 C 
ATOM     16  H   UNL     1       2.684   1.082   8.214  0.00  0.00    -0.081 HD
BRANCH  14  17
ATOM     17  C   UNL     1       3.069   2.702   7.103  0.00  0.00    -0.069 C 
ATOM     18  C   UNL     1       4.119   3.124   8.133  0.00  0.00    -0.017 C 
ATOM     19  C   UNL     1       2.750   3.808   8.112  0.00  0.00    -0.017 C 
ENDBRANCH  14  17
ENDBRANCH   4   7
BRANCH   1  26
ATOM     20  C   UNL     1      -1.154   1.331   0.182  0.00  0.00    +0.046 C 
ATOM     21  C   UNL     1      -0.542  -0.044   0.103  0.00  0.00    -0.017 A 
ATOM     22  C   UNL     1      -0.576  -0.758  -1.095  0.00  0.00    +0.041 A 
ATOM     23  C   UNL     1      -0.007  -2.030  -1.161  0.00  0.00    +0.013 A 
ATOM     24  C   UNL     1       0.587  -2.579  -0.042  0.00  0.00    +0.003 A 
ATOM     25  C   UNL     1       0.622  -1.872   1.145  0.00  0.00    +0.023 A 
ATOM     26  C   UNL     1       0.063  -0.602   1.219  0.00  0.00    +0.038 A 
BRANCH  22  27
ATOM     27  C   UNL     1      -1.214  -0.168  -2.291  0.00  0.00    +0.244 C 
ATOM     28  O   UNL     1      -1.591   0.988  -2.272  0.00  0.00    -0.270 OA
ATOM     29  N   UNL     1      -1.379  -0.911  -3.403  0.00  0.00    -0.314 N 
ATOM     30  C   UNL     1      -2.010  -0.327  -4.589  0.00  0.00    +0.128 C 
ATOM     31  H   UNL     1      -1.078  -1.834  -3.419  0.00  0.00    +0.149 HD
ENDBRANCH  22  27
ENDBRANCH   1  26
TORSDOF 4
