REMARK  Name = ZINC24581406
REMARK  8 active torsions:
REMARK  status: ('A' for Active; 'I' for Inactive)
REMARK    1  A    between atoms: C_6  and  N_7
REMARK    2  A    between atoms: C_8  and  C_14
REMARK    3  A    between atoms: N_16  and  N_17
REMARK    4  A    between atoms: C_18  and  C_20
REMARK    5  A    between atoms: C_20  and  C_21
REMARK    6  A    between atoms: C_21  and  C_22
REMARK    7  A    between atoms: C_22  and  O_23
REMARK    8  A    between atoms: O_23  and  C_24
REMARK                            x       y       z     vdW  Elec       q    Type
REMARK                         _______ _______ _______ _____ _____    ______ ____
ROOT
ATOM      1  C   UNL     1       6.839  -6.174   0.343  0.00  0.00    +0.278 C 
ATOM      2  O   UNL     1       5.882  -6.925   0.395  0.00  0.00    -0.267 OA
ATOM      3  N   UNL     1       6.685  -4.865   0.626  0.00  0.00    -0.229 N 
ATOM      4  H   UNL     1       7.563  -4.203   0.661  0.00  0.00    +0.173 HD
ENDROOT
BRANCH   1   6
ATOM      5  N   UNL     1       9.318  -5.939  -0.242  0.00  0.00    -0.284 N 
ATOM      6  C   UNL     1       8.159  -6.694  -0.029  0.00  0.00    +0.128 A 
ATOM      7  C   UNL     1       8.484  -7.991  -0.225  0.00  0.00    +0.116 A 
ATOM      8  N   UNL     1       9.810  -8.046  -0.560  0.00  0.00    -0.339 N 
ATOM      9  H   UNL     1      10.285  -9.016  -0.772  0.00  0.00    +0.167 HD
ATOM     10  C   UNL     1      10.307  -6.795  -0.564  0.00  0.00    +0.163 A 
ATOM     11  S   UNL     1      11.925  -6.364  -0.920  0.00  0.00    -0.013 S 
BRANCH   5  17
ATOM     12  C   UNL     1       8.827  -3.729  -1.086  0.00  0.00    +0.029 A 
ATOM     13  C   UNL     1       8.933  -2.356  -0.979  0.00  0.00    +0.040 A 
ATOM     14  C   UNL     1       9.649  -1.795   0.065  0.00  0.00    +0.124 A 
ATOM     15  C   UNL     1      10.255  -2.609   1.008  0.00  0.00    +0.040 A 
ATOM     16  C   UNL     1      10.146  -3.982   0.908  0.00  0.00    +0.029 A 
ATOM     17  C   UNL     1       9.429  -4.547  -0.139  0.00  0.00    +0.049 A 
ATOM     18  F   UNL     1       9.757  -0.452   0.164  0.00  0.00    -0.205 F 
ENDBRANCH   5  17
ENDBRANCH   1   6
BRANCH   3  19
ATOM     19  N   UNL     1       5.407  -4.348   0.877  0.00  0.00    -0.234 N 
ATOM     20  C   UNL     1       5.254  -3.040   1.161  0.00  0.00    +0.229 C 
ATOM     21  O   UNL     1       6.221  -2.310   1.199  0.00  0.00    -0.274 OA
ATOM     22  H   UNL     1       4.530  -5.011   0.843  0.00  0.00    +0.173 HD
BRANCH  20  23
ATOM     23  C   UNL     1       3.879  -2.484   1.431  0.00  0.00    +0.100 C 
BRANCH  23  24
ATOM     24  C   UNL     1       3.984  -0.986   1.724  0.00  0.00    +0.050 C 
BRANCH  24  25
ATOM     25  C   UNL     1       2.588  -0.421   1.998  0.00  0.00    +0.229 C 
BRANCH  25  26
ATOM     26  O   UNL     1       2.686   0.978   2.271  0.00  0.00    -0.490 OA
BRANCH  26  27
ATOM     27  C   UNL     1       1.527   1.637   2.537  0.00  0.00    +0.139 A 
ATOM     28  C   UNL     1       0.322   0.951   2.535  0.00  0.00    +0.048 A 
ATOM     29  C   UNL     1      -0.856   1.623   2.800  0.00  0.00    +0.023 A 
ATOM     30  C   UNL     1      -0.832   2.979   3.079  0.00  0.00    +0.043 A 
ATOM     31  C   UNL     1       0.368   3.666   3.081  0.00  0.00    +0.043 A 
ATOM     32  C   UNL     1       1.548   2.998   2.811  0.00  0.00    +0.084 A 
ATOM     33 CL   UNL     1       3.055   3.860   2.813  0.00  0.00    -0.080 Cl
ATOM     34 CL   UNL     1      -2.313   3.820   3.417  0.00  0.00    -0.083 Cl
ENDBRANCH  26  27
ENDBRANCH  25  26
ENDBRANCH  24  25
ENDBRANCH  23  24
ENDBRANCH  20  23
ENDBRANCH   3  19
TORSDOF 8
