REMARK  Name = ZINC00709001
REMARK  9 active torsions:
REMARK  status: ('A' for Active; 'I' for Inactive)
REMARK    1  A    between atoms: C_1  and  C_2
REMARK    2  A    between atoms: C_2  and  O_3
REMARK    3  A    between atoms: O_3  and  C_4
REMARK    4  A    between atoms: C_6  and  C_11
REMARK    5  A    between atoms: C_9  and  O_10
REMARK    6  A    between atoms: C_13  and  C_20
REMARK    7  A    between atoms: C_14  and  C_19
REMARK    8  A    between atoms: N_22  and  C_23
REMARK    9  A    between atoms: C_28  and  C_29
REMARK                            x       y       z     vdW  Elec       q    Type
REMARK                         _______ _______ _______ _____ _____    ______ ____
ROOT
ATOM      1  C   UNL     1      -0.675  -0.262  -0.388  0.00  0.00    +0.139 C 
ATOM      2  C   UNL     1      -0.377   1.151   0.070  0.00  0.00    +0.056 C 
ATOM      3  C   UNL     1       0.877   1.424   0.490  0.00  0.00    +0.017 C 
ATOM      4  N   UNL     1       1.843   0.459   0.500  0.00  0.00    -0.300 N 
ATOM      5  C   UNL     1       1.635  -0.804   0.107  0.00  0.00    +0.135 C 
ATOM      6  S   UNL     1       2.936  -1.916   0.170  0.00  0.00    -0.019 S 
ATOM      7  N   UNL     1       0.436  -1.228  -0.338  0.00  0.00    -0.315 N 
ATOM      8  C   UNL     1       1.216   2.817   0.955  0.00  0.00    +0.061 C 
ATOM      9  H   UNL     1       2.729   0.702   0.810  0.00  0.00    +0.154 HD
ATOM     10  H   UNL     1       0.307  -2.148  -0.619  0.00  0.00    +0.149 HD
ENDROOT
BRANCH   1  13
ATOM     11  C   UNL     1      -2.964  -0.325  -3.393  0.00  0.00    +0.162 A 
ATOM     12  C   UNL     1      -2.508  -0.392  -2.086  0.00  0.00    +0.055 A 
ATOM     13  C   UNL     1      -1.168  -0.195  -1.811  0.00  0.00    -0.019 A 
ATOM     14  C   UNL     1      -0.278   0.058  -2.838  0.00  0.00    +0.009 A 
ATOM     15  C   UNL     1      -0.725   0.120  -4.144  0.00  0.00    +0.049 A 
ATOM     16  C   UNL     1      -2.068  -0.071  -4.427  0.00  0.00    +0.158 A 
BRANCH  16  17
ATOM     17  O   UNL     1      -2.510  -0.011  -5.712  0.00  0.00    -0.503 OA
ATOM     18  H   UNL     1      -2.495  -0.861  -6.173  0.00  0.00    +0.292 HD
ENDBRANCH  16  17
BRANCH  11  19
ATOM     19  O   UNL     1      -4.283  -0.513  -3.665  0.00  0.00    -0.489 OA
BRANCH  19  21
ATOM     20  C   UNL     1      -6.605  -0.758  -3.042  0.00  0.00    +0.048 C 
ATOM     21  C   UNL     1      -5.161  -0.665  -2.547  0.00  0.00    +0.226 C 
ENDBRANCH  19  21
ENDBRANCH  11  19
ENDBRANCH   1  13
BRANCH   2  22
ATOM     22  C   UNL     1      -1.378   2.152   0.054  0.00  0.00    +0.248 C 
ATOM     23  O   UNL     1      -2.195   2.211   0.954  0.00  0.00    -0.270 OA
ATOM     24  N   UNL     1      -1.425   3.041  -0.959  0.00  0.00    -0.281 N 
ATOM     25  H   UNL     1      -0.827   2.945  -1.716  0.00  0.00    +0.155 HD
BRANCH  24  26
ATOM     26  C   UNL     1      -2.337   4.100  -0.917  0.00  0.00    +0.037 A 
ATOM     27  C   UNL     1      -2.889   4.496   0.295  0.00  0.00    +0.023 A 
ATOM     28  C   UNL     1      -3.784   5.546   0.334  0.00  0.00    +0.002 A 
ATOM     29  C   UNL     1      -4.141   6.197  -0.834  0.00  0.00    +0.000 A 
ATOM     30  C   UNL     1      -3.598   5.802  -2.042  0.00  0.00    +0.005 A 
ATOM     31  C   UNL     1      -2.697   4.755  -2.087  0.00  0.00    -0.029 A 
ATOM     32  C   UNL     1      -2.105   4.325  -3.405  0.00  0.00    +0.045 C 
ENDBRANCH  24  26
ENDBRANCH   2  22
TORSDOF 6
