REMARK  Name = ZINC59227726
REMARK  9 active torsions:
REMARK  status: ('A' for Active; 'I' for Inactive)
REMARK    1  A    between atoms: C_1  and  C_2
REMARK    2  A    between atoms: C_5  and  C_8
REMARK    3  A    between atoms: C_8  and  O_9
REMARK    4  A    between atoms: O_9  and  C_10
REMARK    5  A    between atoms: C_13  and  C_16
REMARK    6  A    between atoms: C_18  and  C_25
REMARK    7  A    between atoms: C_19  and  C_24
REMARK    8  A    between atoms: N_27  and  C_28
REMARK    9  A    between atoms: C_28  and  C_29
REMARK                            x       y       z     vdW  Elec       q    Type
REMARK                         _______ _______ _______ _____ _____    ______ ____
ROOT
ATOM      1  C   UNL     1       2.356 -10.055  -0.259  0.00  0.00    +0.139 C 
ATOM      2  C   UNL     1       2.431 -10.776  -1.589  0.00  0.00    +0.055 C 
ATOM      3  C   UNL     1       3.482 -11.596  -1.801  0.00  0.00    +0.017 C 
ATOM      4  N   UNL     1       4.445 -11.769  -0.849  0.00  0.00    -0.300 N 
ATOM      5  C   UNL     1       4.429 -11.157   0.343  0.00  0.00    +0.135 C 
ATOM      6  S   UNL     1       5.701 -11.463   1.447  0.00  0.00    -0.019 S 
ATOM      7  N   UNL     1       3.445 -10.310   0.700  0.00  0.00    -0.315 N 
ATOM      8  C   UNL     1       3.595 -12.332  -3.111  0.00  0.00    +0.061 C 
ATOM      9  H   UNL     1       5.182 -12.368  -1.046  0.00  0.00    +0.154 HD
ATOM     10  H   UNL     1       3.454  -9.877   1.568  0.00  0.00    +0.149 HD
ENDROOT
BRANCH   1  14
ATOM     11  C   UNL     1       2.246  -5.855  -1.040  0.00  0.00    +0.121 A 
ATOM     12  C   UNL     1       1.065  -6.559  -0.855  0.00  0.00    +0.046 A 
ATOM     13  C   UNL     1       1.103  -7.917  -0.603  0.00  0.00    +0.009 A 
ATOM     14  C   UNL     1       2.317  -8.574  -0.534  0.00  0.00    -0.022 A 
ATOM     15  C   UNL     1       3.496  -7.875  -0.717  0.00  0.00    +0.009 A 
ATOM     16  C   UNL     1       3.463  -6.518  -0.976  0.00  0.00    +0.046 A 
BRANCH  11  17
ATOM     17  O   UNL     1       2.211  -4.519  -1.288  0.00  0.00    -0.487 OA
BRANCH  17  18
ATOM     18  C   UNL     1       0.922  -3.903  -1.340  0.00  0.00    +0.264 C 
BRANCH  18  23
ATOM     19  C   UNL     1       1.527   1.740  -2.428  0.00  0.00    +0.044 C 
ATOM     20  C   UNL     1       1.369   0.269  -2.144  0.00  0.00    -0.050 A 
ATOM     21  C   UNL     1       1.240  -0.627  -3.189  0.00  0.00    +0.004 A 
ATOM     22  C   UNL     1       1.095  -1.977  -2.929  0.00  0.00    +0.007 A 
ATOM     23  C   UNL     1       1.081  -2.431  -1.624  0.00  0.00    -0.010 A 
ATOM     24  C   UNL     1       1.211  -1.536  -0.579  0.00  0.00    +0.007 A 
ATOM     25  C   UNL     1       1.360  -0.187  -0.839  0.00  0.00    +0.004 A 
ENDBRANCH  18  23
ENDBRANCH  17  18
ENDBRANCH  11  17
ENDBRANCH   1  14
BRANCH   2  26
ATOM     26  C   UNL     1       1.431 -10.596  -2.577  0.00  0.00    +0.244 C 
ATOM     27  O   UNL     1       0.371 -11.187  -2.483  0.00  0.00    -0.270 OA
ATOM     28  N   UNL     1       1.655  -9.772  -3.619  0.00  0.00    -0.307 N 
ATOM     29  H   UNL     1       2.469  -9.247  -3.656  0.00  0.00    +0.149 HD
BRANCH  28  30
ATOM     30  C   UNL     1       0.667  -9.669  -4.696  0.00  0.00    +0.139 C 
BRANCH  30  31
ATOM     31  C   UNL     1       1.153  -8.688  -5.732  0.00  0.00    -0.030 A 
ATOM     32  C   UNL     1       0.834  -7.348  -5.617  0.00  0.00    +0.005 A 
ATOM     33  C   UNL     1       1.280  -6.447  -6.567  0.00  0.00    +0.000 A 
ATOM     34  C   UNL     1       2.045  -6.888  -7.631  0.00  0.00    +0.000 A 
ATOM     35  C   UNL     1       2.365  -8.228  -7.745  0.00  0.00    +0.000 A 
ATOM     36  C   UNL     1       1.922  -9.127  -6.793  0.00  0.00    +0.005 A 
ENDBRANCH  30  31
ENDBRANCH  28  30
ENDBRANCH   2  26
TORSDOF 7
