REMARK  Name = ZINC12654285
REMARK  15 active torsions:
REMARK  status: ('A' for Active; 'I' for Inactive)
REMARK    1  A    between atoms: C_1  and  C_2
REMARK    2  A    between atoms: C_19  and  C_21
REMARK    3  A    between atoms: C_21  and  N_67
REMARK    4  A    between atoms: C_22  and  N_67
REMARK    5  A    between atoms: C_23  and  C_24
REMARK    6  A    between atoms: C_23  and  N_67
REMARK    7  A    between atoms: C_24  and  C_26
REMARK    8  A    between atoms: C_24  and  O_37
REMARK    9  A    between atoms: C_26  and  C_28
REMARK   10  A    between atoms: C_26  and  O_36
REMARK   11  A    between atoms: C_28  and  C_30
REMARK   12  A    between atoms: C_28  and  O_35
REMARK   13  A    between atoms: C_30  and  C_32
REMARK   14  A    between atoms: C_30  and  O_34
REMARK   15  A    between atoms: C_32  and  O_33
REMARK                            x       y       z     vdW  Elec       q    Type
REMARK                         _______ _______ _______ _____ _____    ______ ____
ROOT
ATOM      1  C   UNL     1      -3.400   4.947  -6.797  0.00  0.00    -0.096 C 
ATOM      2  N   UNL     1      -2.657   3.718  -7.143  0.00  0.00    +0.380 N 
ATOM      3  H   UNL     1      -3.292   2.914  -7.076  0.00  0.00    -0.082 HD
ENDROOT
BRANCH   2   4
ATOM      4  C   UNL     1      -1.535   3.523  -6.200  0.00  0.00    -0.064 C 
BRANCH   4  20
ATOM      5  C   UNL     1      -2.212   1.143  -1.179  0.00  0.00    +0.012 C 
ATOM      6  C   UNL     1      -0.750   1.591  -1.231  0.00  0.00    -0.022 C 
ATOM      7  C   UNL     1      -0.013   1.086   0.008  0.00  0.00    +0.007 C 
ATOM      8  C   UNL     1      -0.727   1.578   1.268  0.00  0.00    +0.005 C 
ATOM      9  C   UNL     1      -0.677   3.108   1.323  0.00  0.00    +0.030 C 
ATOM     10  C   UNL     1      -1.237   3.659   0.029  0.00  0.00    -0.073 C 
ATOM     11  C   UNL     1      -2.177   4.571   0.036  0.00  0.00    +0.008 C 
ATOM     12  C   UNL     1      -0.680   3.125  -1.270  0.00  0.00    +0.021 C 
ATOM     13  C   UNL     1      -1.529   3.608  -2.442  0.00  0.00    +0.016 C 
ATOM     14  C   UNL     1      -0.957   3.098  -3.766  0.00  0.00    +0.042 C 
ATOM     15  C   UNL     1      -0.775   1.568  -3.738  0.00  0.00    +0.181 C 
ATOM     16  C   UNL     1      -0.080   1.061  -2.498  0.00  0.00    +0.052 C 
ATOM     17  O   UNL     1      -2.132   1.061  -3.885  0.00  0.00    -0.461 OA
ATOM     18  C   UNL     1      -2.749   1.835  -4.805  0.00  0.00    +0.309 C 
ATOM     19  O   UNL     1      -3.669   1.489  -5.508  0.00  0.00    -0.251 OA
ATOM     20  C   UNL     1      -2.104   3.208  -4.815  0.00  0.00    +0.088 C 
ENDBRANCH   4  20
ENDBRANCH   2   4
BRANCH   2  21
ATOM     21  C   UNL     1      -2.144   3.810  -8.526  0.00  0.00    -0.045 C 
BRANCH  21  22
ATOM     22  C   UNL     1      -3.328   3.785  -9.494  0.00  0.00    +0.129 C 
BRANCH  22  23
ATOM     23  O   UNL     1      -4.066   2.575  -9.313  0.00  0.00    -0.391 OA
ATOM     24  H   UNL     1      -3.551   1.772  -9.473  0.00  0.00    +0.210 HD
ENDBRANCH  22  23
BRANCH  22  25
ATOM     25  C   UNL     1      -2.812   3.858 -10.933  0.00  0.00    +0.172 C 
BRANCH  25  26
ATOM     26  O   UNL     1      -1.872   2.804 -11.155  0.00  0.00    -0.387 OA
ATOM     27  H   UNL     1      -2.237   1.918 -11.027  0.00  0.00    +0.210 HD
ENDBRANCH  25  26
BRANCH  25  28
ATOM     28  C   UNL     1      -3.985   3.708 -11.903  0.00  0.00    +0.176 C 
BRANCH  28  29
ATOM     29  O   UNL     1      -4.925   4.761 -11.681  0.00  0.00    -0.387 OA
ATOM     30  H   UNL     1      -4.560   5.647 -11.809  0.00  0.00    +0.210 HD
ENDBRANCH  28  29
BRANCH  28  31
ATOM     31  C   UNL     1      -3.469   3.780 -13.342  0.00  0.00    +0.171 C 
BRANCH  31  32
ATOM     32  O   UNL     1      -2.529   2.727 -13.565  0.00  0.00    -0.387 OA
ATOM     33  H   UNL     1      -2.894   1.841 -13.437  0.00  0.00    +0.210 HD
ENDBRANCH  31  32
BRANCH  31  34
ATOM     34  C   UNL     1      -4.642   3.631 -14.313  0.00  0.00    +0.189 C 
BRANCH  34  35
ATOM     35  O   UNL     1      -4.179   3.814 -15.652  0.00  0.00    -0.392 OA
ATOM     36  H   UNL     1      -4.871   3.733 -16.322  0.00  0.00    +0.210 HD
ENDBRANCH  34  35
ENDBRANCH  31  34
ENDBRANCH  28  31
ENDBRANCH  25  28
ENDBRANCH  22  25
ENDBRANCH  21  22
ENDBRANCH   2  21
TORSDOF 13
