REMARK  Name = ZINC44400084
REMARK  11 active torsions:
REMARK  status: ('A' for Active; 'I' for Inactive)
REMARK    1  A    between atoms: C_1  and  C_2
REMARK    2  A    between atoms: C_2  and  C_3
REMARK    3  A    between atoms: C_3  and  C_5
REMARK    4  A    between atoms: C_3  and  N_30
REMARK    5  A    between atoms: C_5  and  C_6
REMARK    6  A    between atoms: C_7  and  O_29
REMARK    7  A    between atoms: C_9  and  C_28
REMARK    8  A    between atoms: C_14  and  C_25
REMARK    9  A    between atoms: C_16  and  O_23
REMARK   10  A    between atoms: C_17  and  C_22
REMARK   11  A    between atoms: O_23  and  C_24
REMARK                            x       y       z     vdW  Elec       q    Type
REMARK                         _______ _______ _______ _____ _____    ______ ____
ROOT
ATOM      1  C   UNL     1       1.150  -2.559  -2.506  0.00  0.00    +0.036 A 
ATOM      2  C   UNL     1       0.417  -2.677  -3.680  0.00  0.00    +0.124 A 
ATOM      3  C   UNL     1       1.019  -3.146  -4.843  0.00  0.00    +0.050 A 
ATOM      4  C   UNL     1       2.342  -3.532  -4.835  0.00  0.00    -0.029 A 
ATOM      5  C   UNL     1       3.077  -3.438  -3.654  0.00  0.00    +0.105 A 
ATOM      6  C   UNL     1       2.487  -2.901  -2.498  0.00  0.00    +0.149 A 
ATOM      7  O   UNL     1       3.277  -2.675  -1.429  0.00  0.00    -0.450 OA
ATOM      8  C   UNL     1       3.909  -3.662  -0.759  0.00  0.00    +0.185 A 
ATOM      9  C   UNL     1       3.804  -3.615   0.649  0.00  0.00    +0.112 A 
ATOM     10  C   UNL     1       4.431  -4.579   1.439  0.00  0.00    +0.065 A 
ATOM     11  C   UNL     1       5.162  -5.584   0.837  0.00  0.00    +0.127 A 
ATOM     12  C   UNL     1       5.261  -5.632  -0.544  0.00  0.00    +0.037 A 
ATOM     13  C   UNL     1       4.632  -4.681  -1.348  0.00  0.00    +0.181 A 
ATOM     14  O   UNL     1       4.773  -4.861  -2.687  0.00  0.00    -0.418 OA
ATOM     15  C   UNL     1       4.468  -3.911  -3.571  0.00  0.00    +0.348 C 
ATOM     16  O   UNL     1       5.329  -3.439  -4.288  0.00  0.00    -0.244 OA
ATOM     17  C   UNL     1       6.063  -6.732  -1.190  0.00  0.00    +0.051 C 
ATOM     18  C   UNL     1       2.990  -4.051  -6.093  0.00  0.00    +0.045 C 
ENDROOT
BRANCH   9  19
ATOM     19  C   UNL     1       3.025  -2.542   1.287  0.00  0.00    +0.390 C 
ATOM     20  O   UNL     1       2.820  -2.569   2.493  0.00  0.00    -0.240 OA
ATOM     21  O   UNL     1       2.584  -1.622   0.612  0.00  0.00    -0.240 OA
ENDBRANCH   9  19
BRANCH  11  22
ATOM     22  O   UNL     1       5.783  -6.525   1.597  0.00  0.00    -0.495 OA
ATOM     23  C   UNL     1       5.637  -6.413   3.015  0.00  0.00    +0.277 C 
ENDBRANCH  11  22
BRANCH   2  24
ATOM     24  O   UNL     1      -0.896  -2.332  -3.693  0.00  0.00    -0.506 OA
ATOM     25  H   UNL     1      -1.057  -1.405  -3.916  0.00  0.00    +0.292 HD
ENDBRANCH   2  24
BRANCH   1  26
ATOM     26  C   UNL     1       0.490  -2.055  -1.248  0.00  0.00    +0.026 C 
BRANCH  26  27
ATOM     27  C   UNL     1       0.050  -3.244  -0.391  0.00  0.00    -0.071 C 
BRANCH  27  28
ATOM     28  N   UNL     1      -0.969  -4.018  -1.114  0.00  0.00    +0.380 N 
ATOM     29  H   UNL     1      -1.730  -3.409  -1.377  0.00  0.00    -0.090 HD
ATOM     30  H   UNL     1      -0.559  -4.421  -1.943  0.00  0.00    -0.090 HD
ATOM     31  H   UNL     1      -1.317  -4.754  -0.518  0.00  0.00    -0.090 HD
ENDBRANCH  27  28
BRANCH  27  33
ATOM     32  C   UNL     1      -0.863  -3.921   1.834  0.00  0.00    +0.002 C 
ATOM     33  C   UNL     1      -0.537  -2.733   0.926  0.00  0.00    -0.019 C 
ENDBRANCH  27  33
ENDBRANCH  26  27
ENDBRANCH   1  26
TORSDOF 7
