REMARK  Name = ZINC09518044
REMARK  8 active torsions:
REMARK  status: ('A' for Active; 'I' for Inactive)
REMARK    1  A    between atoms: C_4  and  C_7
REMARK    2  A    between atoms: C_7  and  C_8
REMARK    3  A    between atoms: C_14  and  C_16
REMARK    4  A    between atoms: C_16  and  S_17
REMARK    5  A    between atoms: S_17  and  C_18
REMARK    6  A    between atoms: C_23  and  N_27
REMARK    7  A    between atoms: C_24  and  N_26
REMARK    8  A    between atoms: C_28  and  C_30
REMARK                            x       y       z     vdW  Elec       q    Type
REMARK                         _______ _______ _______ _____ _____    ______ ____
ROOT
ATOM      1  C   UNL     1       1.190  -0.673  -0.006  0.00  0.00    +0.171 A 
ATOM      2  N   UNL     1       0.014  -0.004  -0.167  0.00  0.00    -0.300 N 
ATOM      3  H   UNL     1      -0.812  -0.499  -0.282  0.00  0.00    +0.171 HD
ATOM      4  C   UNL     1      -0.004   1.345  -0.167  0.00  0.00    +0.275 A 
ATOM      5  O   UNL     1      -1.053   1.953  -0.316  0.00  0.00    -0.266 OA
ATOM      6  C   UNL     1       1.204   2.038   0.002  0.00  0.00    +0.139 A 
ATOM      7  C   UNL     1       2.376   1.306   0.162  0.00  0.00    +0.146 A 
ATOM      8  N   UNL     1       2.329  -0.031   0.153  0.00  0.00    -0.207 NA
ENDROOT
BRANCH   6   9
ATOM      9  N   UNL     1       1.230   3.446   0.008  0.00  0.00    -0.274 N 
ATOM     10  C   UNL     1       0.501   4.129   0.913  0.00  0.00    +0.248 C 
ATOM     11  O   UNL     1      -0.107   3.532   1.780  0.00  0.00    -0.270 OA
ATOM     12  H   UNL     1       1.772   3.924  -0.638  0.00  0.00    +0.155 HD
BRANCH  10  13
ATOM     13  C   UNL     1       0.441   5.604   0.851  0.00  0.00    +0.037 A 
ATOM     14  C   UNL     1       1.143   6.293  -0.140  0.00  0.00    +0.016 A 
ATOM     15  C   UNL     1       1.079   7.669  -0.197  0.00  0.00    +0.039 A 
ATOM     16  C   UNL     1       0.329   8.369   0.736  0.00  0.00    +0.123 A 
ATOM     17  C   UNL     1      -0.365   7.690   1.726  0.00  0.00    +0.039 A 
ATOM     18  C   UNL     1      -0.313   6.314   1.788  0.00  0.00    +0.016 A 
ATOM     19  F   UNL     1       0.274   9.718   0.679  0.00  0.00    -0.205 F 
ENDBRANCH  10  13
ENDBRANCH   6   9
BRANCH   7  20
ATOM     20  N   UNL     1       3.584   1.957   0.332  0.00  0.00    -0.341 N 
ATOM     21  H   UNL     1       4.400   1.445   0.444  0.00  0.00    +0.144 HD
ATOM     22  H   UNL     1       3.616   2.927   0.338  0.00  0.00    +0.144 HD
ENDBRANCH   7  20
BRANCH   1  23
ATOM     23  S   UNL     1       1.187  -2.434  -0.010  0.00  0.00    -0.078 S 
BRANCH  23  24
ATOM     24  C   UNL     1       2.952  -2.752   0.233  0.00  0.00    +0.173 C 
BRANCH  24  31
ATOM     25  C   UNL     1       6.726  -5.640   1.829  0.00  0.00    -0.004 C 
ATOM     26  C   UNL     1       5.463  -6.500   1.750  0.00  0.00    +0.023 C 
ATOM     27  C   UNL     1       4.697  -6.162   0.467  0.00  0.00    +0.108 C 
ATOM     28  N   UNL     1       4.445  -4.715   0.435  0.00  0.00    -0.301 N 
ATOM     29  C   UNL     1       5.581  -3.796   0.588  0.00  0.00    +0.108 C 
ATOM     30  C   UNL     1       6.335  -4.161   1.875  0.00  0.00    +0.023 C 
ATOM     31  C   UNL     1       3.195  -4.239   0.264  0.00  0.00    +0.226 C 
ATOM     32  O   UNL     1       2.267  -5.008   0.134  0.00  0.00    -0.275 OA
BRANCH  25  33
ATOM     33  C   UNL     1       7.510  -6.000   3.092  0.00  0.00    +0.038 C 
BRANCH  33  37
ATOM     34  C   UNL     1      11.203  -3.853   3.136  0.00  0.00    +0.000 A 
ATOM     35  C   UNL     1      10.075  -3.300   3.714  0.00  0.00    +0.000 A 
ATOM     36  C   UNL     1       8.880  -3.995   3.700  0.00  0.00    +0.003 A 
ATOM     37  C   UNL     1       8.813  -5.242   3.107  0.00  0.00    -0.047 A 
ATOM     38  C   UNL     1       9.942  -5.797   2.534  0.00  0.00    +0.003 A 
ATOM     39  C   UNL     1      11.136  -5.100   2.544  0.00  0.00    +0.000 A 
ENDBRANCH  33  37
ENDBRANCH  25  33
ENDBRANCH  24  31
ENDBRANCH  23  24
ENDBRANCH   1  23
TORSDOF 8
