REMARK  Name = ZINC09229460
REMARK  8 active torsions:
REMARK  status: ('A' for Active; 'I' for Inactive)
REMARK    1  A    between atoms: C_1  and  C_2
REMARK    2  A    between atoms: C_2  and  C_4
REMARK    3  A    between atoms: C_2  and  O_21
REMARK    4  A    between atoms: N_6  and  N_7
REMARK    5  A    between atoms: C_8  and  C_10
REMARK    6  A    between atoms: C_11  and  C_12
REMARK    7  A    between atoms: C_15  and  N_18
REMARK    8  A    between atoms: O_21  and  C_22
REMARK                            x       y       z     vdW  Elec       q    Type
REMARK                         _______ _______ _______ _____ _____    ______ ____
ROOT
ATOM      1  C   UNL     1       2.373  -3.931  -0.959  0.00  0.00    +0.270 C 
ATOM      2  O   UNL     1       1.287  -4.260  -1.386  0.00  0.00    -0.270 OA
ATOM      3  N   UNL     1       3.455  -4.694  -1.209  0.00  0.00    -0.231 N 
ATOM      4  H   UNL     1       4.324  -4.430  -0.867  0.00  0.00    +0.173 HD
ENDROOT
BRANCH   3   5
ATOM      5  N   UNL     1       3.325  -5.868  -1.962  0.00  0.00    -0.231 N 
ATOM      6  C   UNL     1       4.408  -6.631  -2.213  0.00  0.00    +0.253 C 
ATOM      7  O   UNL     1       5.498  -6.300  -1.784  0.00  0.00    -0.269 OA
ATOM      8  H   UNL     1       2.457  -6.131  -2.304  0.00  0.00    +0.173 HD
BRANCH   6   9
ATOM      9  C   UNL     1       4.272  -7.858  -3.000  0.00  0.00    +0.069 C 
ATOM     10  C   UNL     1       5.355  -8.621  -3.251  0.00  0.00    +0.013 C 
BRANCH  10  11
ATOM     11  C   UNL     1       5.219  -9.854  -4.043  0.00  0.00    -0.025 A 
ATOM     12  C   UNL     1       3.967 -10.241  -4.532  0.00  0.00    +0.010 A 
ATOM     13  C   UNL     1       3.849 -11.394  -5.279  0.00  0.00    +0.033 A 
ATOM     14  C   UNL     1       4.962 -12.175  -5.533  0.00  0.00    +0.126 A 
ATOM     15  C   UNL     1       6.204 -11.803  -5.047  0.00  0.00    +0.033 A 
ATOM     16  C   UNL     1       6.339 -10.649  -4.304  0.00  0.00    +0.010 A 
BRANCH  14  17
ATOM     17  N   UNL     1       4.825 -13.415  -6.330  0.00  0.00    +0.056 N 
ATOM     18  O   UNL     1       5.803 -14.105  -6.555  0.00  0.00    -0.126 OA
ATOM     19  O   UNL     1       3.735 -13.746  -6.759  0.00  0.00    -0.126 OA
ENDBRANCH  14  17
ENDBRANCH  10  11
ENDBRANCH   6   9
ENDBRANCH   3   5
BRANCH   1  21
ATOM     20  C   UNL     1       3.052  -3.011   1.242  0.00  0.00    +0.062 C 
ATOM     21  C   UNL     1       2.512  -2.668  -0.148  0.00  0.00    +0.257 C 
BRANCH  21  22
ATOM     22  O   UNL     1       1.235  -2.040  -0.021  0.00  0.00    -0.478 OA
BRANCH  22  23
ATOM     23  C   UNL     1       1.226  -0.698   0.200  0.00  0.00    +0.140 A 
ATOM     24  C   UNL     1       2.419  -0.021   0.405  0.00  0.00    +0.048 A 
ATOM     25  C   UNL     1       2.408   1.343   0.629  0.00  0.00    +0.023 A 
ATOM     26  C   UNL     1       1.209   2.033   0.650  0.00  0.00    +0.043 A 
ATOM     27  C   UNL     1       0.018   1.359   0.446  0.00  0.00    +0.043 A 
ATOM     28  C   UNL     1       0.024  -0.005   0.221  0.00  0.00    +0.084 A 
ATOM     29 CL   UNL     1      -1.470  -0.850  -0.036  0.00  0.00    -0.080 Cl
ATOM     30 CL   UNL     1       1.199   3.745   0.931  0.00  0.00    -0.083 Cl
ENDBRANCH  22  23
ENDBRANCH  21  22
ENDBRANCH   1  21
TORSDOF 7
