REMARK  Name = ZINC39553695
REMARK  7 active torsions:
REMARK  status: ('A' for Active; 'I' for Inactive)
REMARK    1  A    between atoms: C_1  and  C_2
REMARK    2  A    between atoms: C_4  and  C_33
REMARK    3  A    between atoms: C_6  and  C_30
REMARK    4  A    between atoms: C_10  and  C_11
REMARK    5  A    between atoms: C_11  and  N_13
REMARK    6  A    between atoms: N_20  and  C_23
REMARK    7  A    between atoms: C_23  and  C_24
REMARK                            x       y       z     vdW  Elec       q    Type
REMARK                         _______ _______ _______ _____ _____    ______ ____
ROOT
ATOM      1  N   UNL     1       3.855  -1.147   2.013  0.00  0.00    -0.152 NA
ATOM      2  C   UNL     1       4.737  -0.699   2.903  0.00  0.00    +0.164 A 
ATOM      3  N   UNL     1       5.115   0.585   3.147  0.00  0.00    -0.339 N 
ATOM      4  C   UNL     1       6.047   0.842   4.115  0.00  0.00    +0.024 A 
ATOM      5  C   UNL     1       6.521  -0.239   4.756  0.00  0.00    -0.004 A 
ATOM      6  S   UNL     1       5.651  -1.585   4.006  0.00  0.00    -0.059 S 
ATOM      7  C   UNL     1       7.542  -0.257   5.846  0.00  0.00    -0.033 C 
ATOM      8  N   UNL     1       8.228   1.049   5.861  0.00  0.00    +0.386 N 
ATOM      9  C   UNL     1       7.229   2.126   5.865  0.00  0.00    -0.072 C 
ATOM     10  C   UNL     1       6.555   2.228   4.493  0.00  0.00    +0.035 C 
ATOM     11  H   UNL     1       4.726   1.314   2.639  0.00  0.00    +0.167 HD
ATOM     12  H   UNL     1       8.810   1.132   5.041  0.00  0.00    -0.081 HD
ENDROOT
BRANCH   1  13
ATOM     13  C   UNL     1       3.218  -0.286   1.212  0.00  0.00    +0.276 C 
ATOM     14  O   UNL     1       3.446   0.910   1.298  0.00  0.00    -0.267 OA
BRANCH  13  24
ATOM     15  C   UNL     1       1.632   1.431  -0.723  0.00  0.00    +0.046 C 
ATOM     16  C   UNL     1       1.503  -0.069  -0.664  0.00  0.00    -0.020 A 
ATOM     17  C   UNL     1       0.622  -0.734  -1.533  0.00  0.00    +0.032 A 
ATOM     18  C   UNL     1      -0.231  -0.199  -2.530  0.00  0.00    +0.050 A 
ATOM     19  N   UNL     1      -0.983  -1.012  -3.239  0.00  0.00    -0.236 NA
ATOM     20  C   UNL     1      -0.977  -2.321  -3.059  0.00  0.00    +0.134 A 
ATOM     21  N   UNL     1      -0.207  -2.885  -2.147  0.00  0.00    -0.225 NA
ATOM     22  C   UNL     1       0.577  -2.146  -1.394  0.00  0.00    +0.113 A 
ATOM     23  S   UNL     1       1.738  -2.464  -0.091  0.00  0.00    -0.064 S 
ATOM     24  C   UNL     1       2.241  -0.781   0.226  0.00  0.00    +0.081 A 
ATOM     25  C   UNL     1      -0.275   1.287  -2.776  0.00  0.00    +0.066 C 
BRANCH  20  26
ATOM     26  C   UNL     1      -1.867  -3.188  -3.911  0.00  0.00    +0.057 C 
ATOM     27  C   UNL     1      -1.981  -4.667  -3.537  0.00  0.00    +0.012 C 
ATOM     28  C   UNL     1      -1.195  -4.252  -4.782  0.00  0.00    +0.012 C 
ENDBRANCH  20  26
ENDBRANCH  13  24
ENDBRANCH   1  13
BRANCH   8  29
ATOM     29  C   UNL     1       9.062   1.150   7.066  0.00  0.00    -0.043 C 
BRANCH  29  30
ATOM     30  C   UNL     1      10.162   0.122   7.003  0.00  0.00    -0.064 A 
ATOM     31  C   UNL     1       9.958  -1.142   7.525  0.00  0.00    +0.002 A 
ATOM     32  C   UNL     1      10.967  -2.085   7.467  0.00  0.00    +0.000 A 
ATOM     33  C   UNL     1      12.180  -1.764   6.887  0.00  0.00    +0.000 A 
ATOM     34  C   UNL     1      12.384  -0.500   6.365  0.00  0.00    +0.000 A 
ATOM     35  C   UNL     1      11.373   0.441   6.419  0.00  0.00    +0.002 A 
ENDBRANCH  29  30
ENDBRANCH   8  29
TORSDOF 5
