REMARK  Name = ZINC39435876
REMARK  3 active torsions:
REMARK  status: ('A' for Active; 'I' for Inactive)
REMARK    1  A    between atoms: C_3  and  O_25
REMARK    2  A    between atoms: C_6  and  N_7
REMARK    3  A    between atoms: N_17  and  C_18
REMARK                            x       y       z     vdW  Elec       q    Type
REMARK                         _______ _______ _______ _____ _____    ______ ____
ROOT
ATOM      1  N   UNL     1      -1.184  -0.751   0.026  0.00  0.00    -0.297 N 
ATOM      2  C   UNL     1      -1.183  -2.101  -0.263  0.00  0.00    +0.166 A 
ATOM      3  C   UNL     1      -2.457  -2.821  -0.379  0.00  0.00    +0.166 A 
ATOM      4  N   UNL     1      -2.475  -4.105  -0.653  0.00  0.00    -0.203 NA
ATOM      5  C   UNL     1      -1.315  -4.772  -0.831  0.00  0.00    +0.244 A 
ATOM      6  C   UNL     1      -0.036  -4.049  -0.715  0.00  0.00    +0.244 A 
ATOM      7  N   UNL     1      -0.042  -2.728  -0.437  0.00  0.00    -0.203 NA
ATOM      8  N   UNL     1       0.937  -4.905  -0.927  0.00  0.00    -0.027 NA
ATOM      9  O   UNL     1       0.357  -6.173  -1.180  0.00  0.00    -0.238 OA
ATOM     10  N   UNL     1      -1.050  -6.029  -1.107  0.00  0.00    -0.027 NA
ATOM     11  N   UNL     1      -3.646  -2.142  -0.198  0.00  0.00    -0.297 N 
ATOM     12  H   UNL     1      -2.018  -0.298   0.226  0.00  0.00    +0.154 HD
ATOM     13  H   UNL     1      -3.641  -1.180  -0.073  0.00  0.00    +0.154 HD
ENDROOT
BRANCH  11  14
ATOM     14  C   UNL     1      -4.856  -2.841  -0.195  0.00  0.00    +0.033 A 
ATOM     15  C   UNL     1      -4.912  -4.134   0.311  0.00  0.00    +0.024 A 
ATOM     16  C   UNL     1      -6.109  -4.822   0.314  0.00  0.00    +0.016 A 
ATOM     17  C   UNL     1      -7.252  -4.225  -0.187  0.00  0.00    +0.013 A 
ATOM     18  C   UNL     1      -7.200  -2.938  -0.692  0.00  0.00    +0.016 A 
ATOM     19  C   UNL     1      -6.007  -2.243  -0.692  0.00  0.00    +0.024 A 
ATOM     20  I   UNL     1      -9.066  -5.273  -0.182  0.00  0.00    -0.044 I 
ENDBRANCH  11  14
BRANCH   1  26
ATOM     21  C   UNL     1       1.036  -0.379  -0.849  0.00  0.00    +0.027 A 
ATOM     22  C   UNL     1       2.222   0.327  -0.843  0.00  0.00    +0.047 A 
ATOM     23  C   UNL     1       2.398   1.381   0.043  0.00  0.00    +0.117 A 
ATOM     24  C   UNL     1       1.383   1.725   0.923  0.00  0.00    +0.047 A 
ATOM     25  C   UNL     1       0.196   1.019   0.918  0.00  0.00    +0.027 A 
ATOM     26  C   UNL     1       0.019  -0.035   0.032  0.00  0.00    +0.033 A 
BRANCH  23  27
ATOM     27  O   UNL     1       3.567   2.076   0.048  0.00  0.00    -0.507 OA
ATOM     28  H   UNL     1       3.575   2.836  -0.550  0.00  0.00    +0.292 HD
ENDBRANCH  23  27
ENDBRANCH   1  26
TORSDOF 3
