REMARK  Name = ZINC56814184
REMARK  8 active torsions:
REMARK  status: ('A' for Active; 'I' for Inactive)
REMARK    1  A    between atoms: C_6  and  O_7
REMARK    2  A    between atoms: O_7  and  C_8
REMARK    3  A    between atoms: C_8  and  C_9
REMARK    4  A    between atoms: C_9  and  C_11
REMARK    5  A    between atoms: C_9  and  O_30
REMARK    6  A    between atoms: C_11  and  N_12
REMARK    7  A    between atoms: N_15  and  C_16
REMARK    8  A    between atoms: N_25  and  C_27
REMARK                            x       y       z     vdW  Elec       q    Type
REMARK                         _______ _______ _______ _____ _____    ______ ____
ROOT
ATOM      1  N   UNL     1      -3.724  -4.820  -0.233  0.00  0.00    -0.297 N 
ATOM      2  C   UNL     1      -3.884  -6.152  -0.361  0.00  0.00    +0.300 C 
ATOM      3  O   UNL     1      -2.912  -6.882  -0.386  0.00  0.00    -0.253 OA
ATOM      4  N   UNL     1      -5.122  -6.675  -0.462  0.00  0.00    -0.296 N 
ATOM      5  H   UNL     1      -4.499  -4.238  -0.213  0.00  0.00    +0.150 HD
ATOM      6  H   UNL     1      -5.898  -6.093  -0.442  0.00  0.00    +0.151 HD
ENDROOT
BRANCH   4   7
ATOM      7  C   UNL     1      -5.296  -8.119  -0.602  0.00  0.00    +0.077 C 
ATOM      8  C   UNL     1      -5.210  -8.529  -2.074  0.00  0.00    -0.007 C 
ATOM      9  C   UNL     1      -6.256  -7.782  -2.888  0.00  0.00    +0.003 C 
ATOM     10  C   UNL     1      -7.667  -7.966  -2.353  0.00  0.00    +0.001 C 
ATOM     11  C   UNL     1      -7.766  -7.798  -0.846  0.00  0.00    +0.003 C 
ATOM     12  C   UNL     1      -6.675  -8.544  -0.091  0.00  0.00    -0.007 C 
ATOM     13  C   UNL     1      -6.826 -10.053  -0.229  0.00  0.00    -0.073 C 
ATOM     14  N   UNL     1      -6.615 -10.527  -1.594  0.00  0.00    +0.382 N 
ATOM     15  C   UNL     1      -5.377 -10.039  -2.193  0.00  0.00    -0.073 C 
ATOM     16  H   UNL     1      -7.403 -10.286  -2.174  0.00  0.00    -0.081 HD
BRANCH  14  17
ATOM     17  C   UNL     1      -6.556 -11.994  -1.562  0.00  0.00    -0.069 C 
ATOM     18  C   UNL     1      -7.459 -12.758  -2.533  0.00  0.00    -0.017 C 
ATOM     19  C   UNL     1      -7.786 -12.739  -1.038  0.00  0.00    -0.017 C 
ENDBRANCH  14  17
ENDBRANCH   4   7
BRANCH   1  20
ATOM     20  C   UNL     1      -2.378  -4.252  -0.123  0.00  0.00    +0.140 C 
BRANCH  20  21
ATOM     21  C   UNL     1      -2.476  -2.731   0.012  0.00  0.00    +0.169 C 
BRANCH  21  22
ATOM     22  O   UNL     1      -3.126  -2.403   1.241  0.00  0.00    -0.387 OA
ATOM     23  H   UNL     1      -2.669  -2.730   2.028  0.00  0.00    +0.210 HD
ENDBRANCH  21  22
BRANCH  21  24
ATOM     24  C   UNL     1      -1.071  -2.126   0.001  0.00  0.00    +0.261 C 
BRANCH  24  25
ATOM     25  O   UNL     1      -1.165  -0.700   0.010  0.00  0.00    -0.489 OA
BRANCH  25  31
ATOM     26  C   UNL     1      -0.017   1.383   0.010  0.00  0.00    +0.048 A 
ATOM     27  C   UNL     1       1.171   2.089   0.002  0.00  0.00    +0.042 A 
ATOM     28  C   UNL     1       2.379   1.413  -0.013  0.00  0.00    +0.124 A 
ATOM     29  C   UNL     1       2.399   0.029  -0.021  0.00  0.00    +0.042 A 
ATOM     30  C   UNL     1       1.213  -0.680  -0.014  0.00  0.00    +0.048 A 
ATOM     31  C   UNL     1       0.002  -0.004   0.002  0.00  0.00    +0.121 A 
ATOM     32  F   UNL     1       3.539   2.105  -0.020  0.00  0.00    -0.205 F 
ENDBRANCH  25  31
ENDBRANCH  24  25
ENDBRANCH  21  24
ENDBRANCH  20  21
ENDBRANCH   1  20
TORSDOF 8
