REMARK  Name = ZINC04245281
REMARK  6 active torsions:
REMARK  status: ('A' for Active; 'I' for Inactive)
REMARK    1  A    between atoms: C_1  and  C_2
REMARK    2  A    between atoms: C_3  and  C_17
REMARK    3  A    between atoms: C_4  and  C_16
REMARK    4  A    between atoms: C_5  and  C_10
REMARK    5  A    between atoms: C_6  and  C_9
REMARK    6  A    between atoms: C_7  and  C_8
REMARK                            x       y       z     vdW  Elec       q    Type
REMARK                         _______ _______ _______ _____ _____    ______ ____
ROOT
ATOM      1  C   UNL     1       0.114   1.047   0.101  0.00  0.00    +0.044 C 
ATOM      2  C   UNL     1      -0.657   1.553   1.292  0.00  0.00    -0.044 A 
ATOM      3  C   UNL     1      -2.033   1.413   1.333  0.00  0.00    -0.044 A 
ATOM      4  C   UNL     1      -2.744   1.869   2.424  0.00  0.00    -0.038 A 
ATOM      5  C   UNL     1      -2.075   2.484   3.481  0.00  0.00    +0.007 A 
ATOM      6  C   UNL     1      -0.689   2.627   3.432  0.00  0.00    -0.038 A 
ATOM      7  C   UNL     1       0.012   2.162   2.339  0.00  0.00    -0.044 A 
ATOM      8  C   UNL     1       1.510   2.316   2.284  0.00  0.00    +0.044 C 
ATOM      9  C   UNL     1       0.042   3.291   4.571  0.00  0.00    +0.045 C 
ATOM     10  C   UNL     1      -4.242   1.711   2.469  0.00  0.00    +0.045 C 
ATOM     11  C   UNL     1      -2.756   0.755   0.186  0.00  0.00    +0.044 C 
ENDROOT
BRANCH   5  12
ATOM     12  C   UNL     1      -2.834   2.982   4.654  0.00  0.00    +0.081 A 
ATOM     13  C   UNL     1      -3.853   3.876   4.487  0.00  0.00    +0.076 A 
ATOM     14  S   UNL     1      -4.377   4.104   6.181  0.00  0.00    -0.060 S 
ATOM     15  C   UNL     1      -3.196   2.994   6.934  0.00  0.00    +0.156 A 
ATOM     16  N   UNL     1      -2.534   2.558   5.879  0.00  0.00    -0.225 NA
ATOM     17  N   UNL     1      -3.025   2.673   8.271  0.00  0.00    -0.338 N 
ATOM     18  H   UNL     1      -3.597   3.075   8.943  0.00  0.00    +0.144 HD
ATOM     19  H   UNL     1      -2.333   2.047   8.534  0.00  0.00    +0.144 HD
ENDBRANCH   5  12
TORSDOF 1
