REMARK  Name = ZINC39711272
REMARK  15 active torsions:
REMARK  status: ('A' for Active; 'I' for Inactive)
REMARK    1  A    between atoms: C_1  and  C_2
REMARK    2  A    between atoms: C_6  and  C_15
REMARK    3  A    between atoms: C_13  and  C_14
REMARK    4  A    between atoms: C_15  and  C_17
REMARK    5  A    between atoms: C_15  and  N_27
REMARK    6  A    between atoms: N_22  and  C_23
REMARK    7  A    between atoms: C_23  and  C_24
REMARK    8  A    between atoms: C_23  and  C_25
REMARK    9  A    between atoms: C_23  and  C_26
REMARK   10  A    between atoms: N_27  and  C_28
REMARK   11  A    between atoms: N_27  and  C_37
REMARK   12  A    between atoms: C_28  and  C_29
REMARK   13  A    between atoms: C_32  and  O_35
REMARK   14  A    between atoms: O_35  and  C_36
REMARK   15  A    between atoms: C_37  and  C_38
REMARK                            x       y       z     vdW  Elec       q    Type
REMARK                         _______ _______ _______ _____ _____    ______ ____
ROOT
ATOM      1  C   UNL     1       1.387  -4.948  -3.016  0.00  0.00    -0.009 C 
ENDROOT
BRANCH   1   7
ATOM      2  C   UNL     1      -3.154  -7.825   1.687  0.00  0.00    +0.044 C 
ATOM      3  C   UNL     1      -2.816  -7.135   0.390  0.00  0.00    -0.047 A 
ATOM      4  C   UNL     1      -1.655  -6.439   0.289  0.00  0.00    +0.013 A 
ATOM      5  C   UNL     1      -1.338  -5.775  -0.976  0.00  0.00    -0.007 A 
ATOM      6  C   UNL     1      -0.183  -5.066  -1.123  0.00  0.00    -0.006 C 
ATOM      7  C   UNL     1       0.064  -4.410  -2.468  0.00  0.00    +0.088 C 
ATOM      8  C   UNL     1      -0.990  -4.597  -3.536  0.00  0.00    +0.223 C 
ATOM      9  O   UNL     1      -0.843  -4.093  -4.633  0.00  0.00    -0.275 OA
ATOM     10  N   UNL     1      -2.072  -5.310  -3.272  0.00  0.00    -0.285 N 
ATOM     11  C   UNL     1      -2.293  -5.887  -2.091  0.00  0.00    +0.041 A 
ATOM     12  C   UNL     1      -3.469  -6.633  -1.882  0.00  0.00    +0.027 A 
ATOM     13  C   UNL     1      -3.702  -7.231  -0.684  0.00  0.00    -0.046 A 
ATOM     14  C   UNL     1      -4.971  -8.024  -0.507  0.00  0.00    +0.044 C 
ATOM     15  H   UNL     1      -2.737  -5.417  -3.970  0.00  0.00    +0.155 HD
ENDBRANCH   1   7
BRANCH   1  16
ATOM     16  C   UNL     1       1.508  -4.590  -4.499  0.00  0.00    +0.205 C 
ATOM     17  N   UNL     1       2.834  -4.961  -5.010  0.00  0.00    -0.152 NA
ATOM     18  N   UNL     1       3.409  -3.944  -5.404  0.00  0.00    -0.070 NA
ATOM     19  N   UNL     1       2.640  -2.791  -5.245  0.00  0.00    -0.179 N 
ATOM     20  N   UNL     1       1.433  -3.126  -4.684  0.00  0.00    -0.183 NA
ATOM     21  H   UNL     1       2.915  -1.894  -5.493  0.00  0.00    +0.191 HD
BRANCH  20  22
ATOM     22  C   UNL     1       1.242  -2.442  -3.397  0.00  0.00    +0.035 C 
ATOM     23  C   UNL     1       1.911  -3.252  -2.285  0.00  0.00    +0.029 C 
ATOM     24  C   UNL     1       1.871  -1.049  -3.462  0.00  0.00    +0.029 C 
ATOM     25  C   UNL     1      -0.254  -2.313  -3.105  0.00  0.00    +0.029 C 
ENDBRANCH  20  22
ENDBRANCH   1  16
BRANCH   1  26
ATOM     26  N   UNL     1       1.424  -6.409  -2.861  0.00  0.00    +0.389 N 
ATOM     27  H   UNL     1       1.180  -6.652  -1.913  0.00  0.00    -0.081 HD
BRANCH  26  28
ATOM     28  C   UNL     1       0.464  -7.024  -3.787  0.00  0.00    -0.042 C 
BRANCH  28  29
ATOM     29  C   UNL     1       0.329  -8.491  -3.469  0.00  0.00    -0.064 A 
ATOM     30  C   UNL     1       1.163  -9.409  -4.080  0.00  0.00    +0.005 A 
ATOM     31  C   UNL     1       1.041 -10.754  -3.791  0.00  0.00    +0.046 A 
ATOM     32  C   UNL     1       0.081 -11.184  -2.886  0.00  0.00    +0.120 A 
ATOM     33  C   UNL     1      -0.754 -10.260  -2.274  0.00  0.00    +0.046 A 
ATOM     34  C   UNL     1      -0.625  -8.916  -2.562  0.00  0.00    +0.005 A 
BRANCH  32  35
ATOM     35  O   UNL     1      -0.041 -12.507  -2.600  0.00  0.00    -0.495 OA
ATOM     36  C   UNL     1      -1.051 -12.876  -1.659  0.00  0.00    +0.277 C 
ENDBRANCH  32  35
ENDBRANCH  28  29
ENDBRANCH  26  28
BRANCH  26  37
ATOM     37  C   UNL     1       2.776  -6.899  -3.160  0.00  0.00    -0.046 C 
BRANCH  37  38
ATOM     38  C   UNL     1       3.737  -6.451  -2.057  0.00  0.00    +0.102 C 
ATOM     39  C   UNL     1       5.192  -6.754  -2.475  0.00  0.00    +0.032 C 
ATOM     40  C   UNL     1       5.825  -7.234  -1.141  0.00  0.00    +0.030 C 
ATOM     41  C   UNL     1       4.622  -7.961  -0.489  0.00  0.00    +0.160 C 
ATOM     42  O   UNL     1       3.469  -7.182  -0.854  0.00  0.00    -0.378 OA
ENDBRANCH  37  38
ENDBRANCH  26  37
ENDBRANCH   1  26
TORSDOF 9
