REMARK  Name = ZINC63175615
REMARK  6 active torsions:
REMARK  status: ('A' for Active; 'I' for Inactive)
REMARK    1  A    between atoms: C_1  and  O_2
REMARK    2  A    between atoms: O_2  and  C_3
REMARK    3  A    between atoms: C_4  and  S_11
REMARK    4  A    between atoms: S_11  and  N_14
REMARK    5  A    between atoms: N_14  and  C_15
REMARK    6  A    between atoms: C_20  and  N_22
REMARK                            x       y       z     vdW  Elec       q    Type
REMARK                         _______ _______ _______ _____ _____    ______ ____
ROOT
ATOM      1  S   UNL     1      -1.951  -0.465  -2.254  0.00  0.00    +0.062 S 
ATOM      2  O   UNL     1      -2.290   0.826  -1.768  0.00  0.00    -0.153 OA
ATOM      3  O   UNL     1      -2.292  -0.901  -3.563  0.00  0.00    -0.153 OA
ENDROOT
BRANCH   1   5
ATOM      4  C   UNL     1       0.435  -1.767  -2.544  0.00  0.00    +0.160 A 
ATOM      5  C   UNL     1      -0.201  -0.612  -2.115  0.00  0.00    +0.149 A 
ATOM      6  C   UNL     1       0.539   0.425  -1.579  0.00  0.00    +0.052 A 
ATOM      7  C   UNL     1       1.914   0.311  -1.470  0.00  0.00    +0.044 A 
ATOM      8  C   UNL     1       2.551  -0.840  -1.897  0.00  0.00    +0.039 A 
ATOM      9  C   UNL     1       1.813  -1.882  -2.429  0.00  0.00    +0.063 A 
ATOM     10 BR   UNL     1       2.683  -3.459  -3.006  0.00  0.00    -0.046 Br
ATOM     11 CL   UNL     1       2.841   1.615  -0.797  0.00  0.00    -0.083 Cl
BRANCH   4  13
ATOM     12  C   UNL     1      -0.777  -3.777  -2.161  0.00  0.00    +0.277 C 
ATOM     13  O   UNL     1      -0.291  -2.788  -3.071  0.00  0.00    -0.492 OA
ENDBRANCH   4  13
ENDBRANCH   1   5
BRANCH   1  14
ATOM     14  N   UNL     1      -2.619  -1.557  -1.203  0.00  0.00    -0.188 NA
ATOM     15  H   UNL     1      -3.131  -2.307  -1.543  0.00  0.00    +0.148 HD
BRANCH  14  16
ATOM     16  C   UNL     1      -2.436  -1.389   0.241  0.00  0.00    +0.062 C 
ATOM     17  C   UNL     1      -3.666  -0.684   0.851  0.00  0.00    +0.019 C 
ATOM     18  C   UNL     1      -4.550  -1.845   1.371  0.00  0.00    -0.000 C 
ATOM     19  C   UNL     1      -3.507  -2.848   1.923  0.00  0.00    -0.015 C 
ATOM     20  C   UNL     1      -2.334  -2.765   0.923  0.00  0.00    -0.056 C 
BRANCH  20  21
ATOM     21  N   UNL     1      -1.055  -2.880   1.636  0.00  0.00    +0.381 N 
ATOM     22  H   UNL     1      -0.995  -2.157   2.337  0.00  0.00    -0.090 HD
ATOM     23  H   UNL     1      -0.997  -3.784   2.079  0.00  0.00    -0.090 HD
ATOM     24  H   UNL     1      -0.295  -2.777   0.980  0.00  0.00    -0.090 HD
ENDBRANCH  20  21
ENDBRANCH  14  16
ENDBRANCH   1  14
TORSDOF 5
