REMARK  Name = ZINC04065070
REMARK  5 active torsions:
REMARK  status: ('A' for Active; 'I' for Inactive)
REMARK    1  A    between atoms: C_1  and  C_2
REMARK    2  A    between atoms: C_4  and  N_15
REMARK    3  A    between atoms: C_6  and  C_8
REMARK    4  A    between atoms: C_13  and  O_14
REMARK    5  A    between atoms: N_15  and  N_16
REMARK                            x       y       z     vdW  Elec       q    Type
REMARK                         _______ _______ _______ _____ _____    ______ ____
ROOT
ATOM      1  C   UNL     1      -2.576   4.135   0.047  0.00  0.00    +0.066 C 
ATOM      2  C   UNL     1      -1.243   3.431   0.032  0.00  0.00    +0.044 A 
ATOM      3  C   UNL     1      -0.069   4.160   0.024  0.00  0.00    +0.068 A 
ATOM      4  C   UNL     1       1.145   3.469   0.009  0.00  0.00    +0.142 A 
ATOM      5  N   UNL     1       1.131   2.140   0.003  0.00  0.00    -0.211 NA
ATOM      6  C   UNL     1      -0.018   1.477   0.010  0.00  0.00    +0.166 A 
ATOM      7  N   UNL     1      -1.185   2.109   0.019  0.00  0.00    -0.232 NA
ENDROOT
BRANCH   6   8
ATOM      8  C   UNL     1       0.002  -0.004   0.002  0.00  0.00    +0.061 A 
ATOM      9  C   UNL     1      -1.194  -0.721   0.010  0.00  0.00    +0.015 A 
ATOM     10  C   UNL     1      -1.169  -2.100   0.002  0.00  0.00    +0.001 A 
ATOM     11  C   UNL     1       0.039  -2.776  -0.014  0.00  0.00    +0.004 A 
ATOM     12  C   UNL     1       1.230  -2.077  -0.022  0.00  0.00    +0.046 A 
ATOM     13  C   UNL     1       1.221  -0.690  -0.019  0.00  0.00    +0.128 A 
BRANCH  13  14
ATOM     14  O   UNL     1       2.391  -0.001  -0.032  0.00  0.00    -0.506 OA
ATOM     15  H   UNL     1       2.742   0.194   0.847  0.00  0.00    +0.292 HD
ENDBRANCH  13  14
ENDBRANCH   6   8
BRANCH   4  16
ATOM     16  N   UNL     1       2.347   4.158   0.002  0.00  0.00    -0.221 N 
ATOM     17  H   UNL     1       2.350   5.128   0.007  0.00  0.00    +0.176 HD
BRANCH  16  18
ATOM     18  N   UNL     1       3.559   3.455  -0.012  0.00  0.00    -0.185 NA
ATOM     19  C   UNL     1       4.684   4.101  -0.019  0.00  0.00    +0.067 C 
ATOM     20  C   UNL     1       4.845   5.602  -0.019  0.00  0.00    +0.062 C 
ATOM     21  C   UNL     1       6.360   5.847  -0.025  0.00  0.00    +0.042 C 
ATOM     22  C   UNL     1       7.012   4.485  -0.039  0.00  0.00    -0.038 A 
ATOM     23  C   UNL     1       6.030   3.497  -0.035  0.00  0.00    +0.001 A 
ATOM     24  C   UNL     1       6.413   2.148  -0.046  0.00  0.00    +0.010 A 
ATOM     25  C   UNL     1       7.748   1.809  -0.060  0.00  0.00    +0.001 A 
ATOM     26  C   UNL     1       8.716   2.797  -0.064  0.00  0.00    +0.000 A 
ATOM     27  C   UNL     1       8.348   4.130  -0.054  0.00  0.00    +0.004 A 
ENDBRANCH  16  18
ENDBRANCH   4  16
TORSDOF 4
