REMARK  Name = ZINC04043958
REMARK  5 active torsions:
REMARK  status: ('A' for Active; 'I' for Inactive)
REMARK    1  A    between atoms: C_1  and  C_2
REMARK    2  A    between atoms: C_5  and  N_8
REMARK    3  A    between atoms: C_27  and  C_29
REMARK    4  A    between atoms: C_29  and  C_31
REMARK    5  A    between atoms: C_29  and  O_32
REMARK                            x       y       z     vdW  Elec       q    Type
REMARK                         _______ _______ _______ _____ _____    ______ ____
ROOT
ATOM      1  N   UNL     1       1.299  -0.379  -0.205  0.00  0.00    -0.210 N 
ATOM      2  C   UNL     1       2.187   0.608  -0.373  0.00  0.00    +0.228 C 
ATOM      3  O   UNL     1       3.366   0.457  -0.608  0.00  0.00    -0.275 OA
ATOM      4  C   UNL     1       1.491   1.941  -0.224  0.00  0.00    +0.076 C 
ATOM      5  C   UNL     1       0.018   1.546   0.075  0.00  0.00    +0.088 C 
ATOM      6  C   UNL     1       0.052   0.034   0.050  0.00  0.00    +0.229 C 
ATOM      7  O   UNL     1      -0.902  -0.691   0.231  0.00  0.00    -0.275 OA
ATOM      8  C   UNL     1      -0.227   2.031   1.510  0.00  0.00    +0.050 C 
ATOM      9  C   UNL     1      -1.139   1.102   2.259  0.00  0.00    -0.028 A 
ATOM     10  C   UNL     1      -1.072  -0.234   2.587  0.00  0.00    +0.004 A 
ATOM     11  C   UNL     1      -2.098  -0.824   3.304  0.00  0.00    +0.000 A 
ATOM     12  C   UNL     1      -3.190  -0.068   3.691  0.00  0.00    +0.002 A 
ATOM     13  C   UNL     1      -3.262   1.270   3.364  0.00  0.00    +0.023 A 
ATOM     14  C   UNL     1      -2.234   1.871   2.642  0.00  0.00    +0.036 A 
ATOM     15  N   UNL     1      -2.080   3.186   2.198  0.00  0.00    -0.286 N 
ATOM     16  C   UNL     1      -0.925   3.364   1.526  0.00  0.00    +0.211 C 
ATOM     17  O   UNL     1      -0.527   4.396   1.030  0.00  0.00    -0.277 OA
ATOM     18  C   UNL     1       1.985   2.635   1.063  0.00  0.00    -0.028 C 
ATOM     19  H   UNL     1      -2.728   3.891   2.356  0.00  0.00    +0.155 HD
ATOM     20  N   UNL     1       1.094   2.122   2.106  0.00  0.00    +0.396 N 
ATOM     21  H   UNL     1       1.407   1.194   2.416  0.00  0.00    -0.083 HD
ATOM     22  H   UNL     1       1.079   2.763   2.907  0.00  0.00    -0.083 HD
ENDROOT
BRANCH   1  27
ATOM     23  C   UNL     1       2.707  -5.866  -0.546  0.00  0.00    +0.044 C 
ATOM     24  C   UNL     1       2.333  -4.409  -0.455  0.00  0.00    -0.050 A 
ATOM     25  C   UNL     1       1.506  -3.849  -1.411  0.00  0.00    +0.005 A 
ATOM     26  C   UNL     1       1.161  -2.513  -1.331  0.00  0.00    +0.024 A 
ATOM     27  C   UNL     1       1.647  -1.734  -0.289  0.00  0.00    +0.044 A 
ATOM     28  C   UNL     1       2.482  -2.298   0.665  0.00  0.00    +0.024 A 
ATOM     29  C   UNL     1       2.818  -3.635   0.583  0.00  0.00    +0.005 A 
ENDBRANCH   1  27
BRANCH  18  30
ATOM     30  C   UNL     1       3.443   2.263   1.341  0.00  0.00    +0.098 C 
ATOM     31  C   UNL     1       4.337   2.853   0.249  0.00  0.00    +0.036 C 
BRANCH  30  32
ATOM     32  O   UNL     1       3.834   2.788   2.612  0.00  0.00    -0.394 OA
ATOM     33  H   UNL     1       3.767   3.751   2.677  0.00  0.00    +0.210 HD
ENDBRANCH  30  32
ENDBRANCH  18  30
TORSDOF 3
