REMARK  Name = ZINC22737796
REMARK  7 active torsions:
REMARK  status: ('A' for Active; 'I' for Inactive)
REMARK    1  A    between atoms: C_1  and  C_2
REMARK    2  A    between atoms: C_2  and  C_4
REMARK    3  A    between atoms: C_2  and  N_14
REMARK    4  A    between atoms: C_15  and  C_17
REMARK    5  A    between atoms: C_17  and  N_18
REMARK    6  A    between atoms: C_21  and  C_26
REMARK    7  A    between atoms: C_26  and  C_27
REMARK                            x       y       z     vdW  Elec       q    Type
REMARK                         _______ _______ _______ _____ _____    ______ ____
ROOT
ATOM      1  N   UNL     1      -6.399   0.573   2.872  0.00  0.00    -0.216 N 
ATOM      2  C   UNL     1      -6.243  -0.166   3.988  0.00  0.00    +0.244 C 
ATOM      3  O   UNL     1      -5.308  -0.140   4.759  0.00  0.00    -0.273 OA
ATOM      4  C   UNL     1      -7.480  -1.038   4.079  0.00  0.00    +0.165 C 
ATOM      5  N   UNL     1      -8.263  -0.652   2.892  0.00  0.00    -0.287 N 
ATOM      6  C   UNL     1      -7.553   0.296   2.255  0.00  0.00    +0.310 C 
ATOM      7  O   UNL     1      -7.918   0.838   1.230  0.00  0.00    -0.252 OA
ATOM      8  H   UNL     1      -9.231  -1.135   2.692  0.00  0.00    +0.151 HD
ENDROOT
BRANCH   1   9
ATOM      9  C   UNL     1      -5.428   1.562   2.398  0.00  0.00    +0.213 C 
BRANCH   9  11
ATOM     10  N   UNL     1      -3.449   1.615   0.915  0.00  0.00    -0.307 N 
ATOM     11  C   UNL     1      -4.441   0.894   1.476  0.00  0.00    +0.231 C 
ATOM     12  O   UNL     1      -4.538  -0.291   1.239  0.00  0.00    -0.274 OA
ATOM     13  H   UNL     1      -3.361   2.690   1.130  0.00  0.00    +0.149 HD
BRANCH  10  15
ATOM     14  C   UNL     1      -3.062   0.924  -1.399  0.00  0.00    +0.033 C 
ATOM     15  C   UNL     1      -2.489   0.965   0.019  0.00  0.00    +0.100 C 
BRANCH  15  16
ATOM     16  C   UNL     1      -1.198   1.744   0.017  0.00  0.00    -0.027 A 
ATOM     17  C   UNL     1      -1.237   3.137   0.030  0.00  0.00    +0.006 A 
ATOM     18  C   UNL     1      -0.090   3.870   0.023  0.00  0.00    +0.009 A 
ATOM     19  C   UNL     1       1.153   3.215   0.008  0.00  0.00    -0.018 A 
ATOM     20  C   UNL     1       2.358   3.938  -0.000  0.00  0.00    +0.008 A 
ATOM     21  C   UNL     1       3.544   3.271  -0.015  0.00  0.00    +0.001 A 
ATOM     22  C   UNL     1       3.583   1.877  -0.022  0.00  0.00    +0.001 A 
ATOM     23  C   UNL     1       2.436   1.144  -0.015  0.00  0.00    +0.008 A 
ATOM     24  C   UNL     1       1.193   1.799   0.000  0.00  0.00    -0.018 A 
ATOM     25  C   UNL     1      -0.013   1.076   0.008  0.00  0.00    +0.014 A 
ENDBRANCH  15  16
ENDBRANCH  10  15
ENDBRANCH   9  11
ENDBRANCH   1   9
BRANCH   4  26
ATOM     26  C   UNL     1      -8.259  -0.734   5.360  0.00  0.00    +0.069 C 
BRANCH  26  27
ATOM     27  C   UNL     1      -9.413  -1.696   5.486  0.00  0.00    -0.020 A 
ATOM     28  C   UNL     1     -10.679  -1.480   5.095  0.00  0.00    +0.087 A 
ATOM     29  N   UNL     1     -11.445  -2.580   5.367  0.00  0.00    -0.360 N 
ATOM     30  H   UNL     1     -12.514  -2.584   5.107  0.00  0.00    +0.165 HD
ATOM     31  C   UNL     1     -10.674  -3.553   5.963  0.00  0.00    +0.047 A 
ATOM     32  C   UNL     1      -9.367  -3.041   6.064  0.00  0.00    +0.003 A 
ATOM     33  C   UNL     1      -8.357  -3.818   6.635  0.00  0.00    +0.010 A 
ATOM     34  C   UNL     1      -8.644  -5.072   7.095  0.00  0.00    +0.001 A 
ATOM     35  C   UNL     1      -9.931  -5.581   6.998  0.00  0.00    +0.002 A 
ATOM     36  C   UNL     1     -10.943  -4.832   6.438  0.00  0.00    +0.026 A 
ENDBRANCH  26  27
ENDBRANCH   4  26
TORSDOF 6
