REMARK  Name = ZINC58764844
REMARK  7 active torsions:
REMARK  status: ('A' for Active; 'I' for Inactive)
REMARK    1  A    between atoms: C_1  and  C_2
REMARK    2  A    between atoms: C_2  and  C_3
REMARK    3  A    between atoms: C_2  and  N_11
REMARK    4  A    between atoms: N_11  and  C_12
REMARK    5  A    between atoms: C_12  and  C_13
REMARK    6  A    between atoms: N_15  and  C_16
REMARK    7  A    between atoms: C_17  and  C_21
REMARK                            x       y       z     vdW  Elec       q    Type
REMARK                         _______ _______ _______ _____ _____    ______ ____
ROOT
ATOM      1  C   UNL     1      -3.311  -1.115   1.354  0.00  0.00    +0.231 C 
ATOM      2  O   UNL     1      -3.831  -1.396   0.295  0.00  0.00    -0.274 OA
ATOM      3  N   UNL     1      -3.996  -1.271   2.504  0.00  0.00    -0.278 N 
ATOM      4  H   UNL     1      -3.579  -1.045   3.351  0.00  0.00    +0.155 HD
ENDROOT
BRANCH   3   5
ATOM      5  C   UNL     1      -5.295  -1.753   2.477  0.00  0.00    +0.084 A 
ATOM      6  C   UNL     1      -6.147  -1.971   3.550  0.00  0.00    +0.065 A 
ATOM      7  C   UNL     1      -7.461  -2.485   3.239  0.00  0.00    +0.022 A 
ATOM      8  C   UNL     1      -7.714  -2.696   1.934  0.00  0.00    +0.048 A 
ATOM      9  S   UNL     1      -6.202  -2.201   1.138  0.00  0.00    -0.081 S 
BRANCH   6  10
ATOM     10  C   UNL     1      -5.734  -1.695   4.930  0.00  0.00    +0.244 C 
ATOM     11  O   UNL     1      -4.619  -1.263   5.157  0.00  0.00    -0.270 OA
ATOM     12  N   UNL     1      -6.589  -1.920   5.947  0.00  0.00    -0.325 N 
ATOM     13  H   UNL     1      -7.478  -2.264   5.766  0.00  0.00    +0.145 HD
ATOM     14  H   UNL     1      -6.316  -1.738   6.860  0.00  0.00    +0.145 HD
ENDBRANCH   6  10
ENDBRANCH   3   5
BRANCH   1  15
ATOM     15  C   UNL     1      -1.898  -0.590   1.383  0.00  0.00    +0.178 C 
BRANCH  15  16
ATOM     16  N   UNL     1      -1.376  -0.512   0.012  0.00  0.00    -0.302 NA
ATOM     17  H   UNL     1      -1.974   0.053  -0.571  0.00  0.00    +0.123 HD
BRANCH  16  19
ATOM     18  C   UNL     1      -0.019   1.526   0.010  0.00  0.00    +0.029 C 
ATOM     19  C   UNL     1       0.002  -0.004   0.002  0.00  0.00    +0.083 C 
BRANCH  19  20
ATOM     20  C   UNL     1       0.707  -0.490  -1.238  0.00  0.00    -0.012 A 
ATOM     21  C   UNL     1      -0.023  -0.817  -2.365  0.00  0.00    +0.008 A 
ATOM     22  C   UNL     1       0.623  -1.263  -3.502  0.00  0.00    +0.020 A 
ATOM     23  C   UNL     1       2.002  -1.382  -3.514  0.00  0.00    +0.042 A 
ATOM     24  C   UNL     1       2.733  -1.054  -2.386  0.00  0.00    +0.040 A 
ATOM     25  C   UNL     1       2.086  -0.603  -1.250  0.00  0.00    +0.047 A 
ATOM     26 CL   UNL     1       3.004  -0.186   0.164  0.00  0.00    -0.083 Cl
ATOM     27 CL   UNL     1       2.813  -1.942  -4.942  0.00  0.00    -0.083 Cl
ENDBRANCH  19  20
ENDBRANCH  16  19
ENDBRANCH  15  16
ENDBRANCH   1  15
TORSDOF 6
