REMARK  Name = ZINC11859234
REMARK  8 active torsions:
REMARK  status: ('A' for Active; 'I' for Inactive)
REMARK    1  A    between atoms: C_1  and  C_2
REMARK    2  A    between atoms: C_2  and  O_3
REMARK    3  A    between atoms: O_3  and  C_4
REMARK    4  A    between atoms: C_4  and  C_6
REMARK    5  A    between atoms: C_8  and  C_21
REMARK    6  A    between atoms: N_13  and  C_20
REMARK    7  A    between atoms: C_14  and  C_15
REMARK    8  A    between atoms: C_14  and  O_19
REMARK                            x       y       z     vdW  Elec       q    Type
REMARK                         _______ _______ _______ _____ _____    ______ ____
ROOT
ATOM      1  C   UNL     1       4.309  -0.737   1.380  0.00  0.00    +0.182 C 
ATOM      2  C   UNL     1       4.953  -0.848  -0.005  0.00  0.00    +0.123 C 
ATOM      3  N   UNL     1       6.392  -0.607   0.114  0.00  0.00    -0.291 N 
ATOM      4  C   UNL     1       7.058  -0.902   1.240  0.00  0.00    +0.305 C 
ATOM      5  O   UNL     1       8.255  -0.692   1.283  0.00  0.00    -0.253 OA
ATOM      6  N   UNL     1       6.456  -1.420   2.321  0.00  0.00    -0.252 N 
ATOM      7  C   UNL     1       5.021  -1.707   2.329  0.00  0.00    +0.248 C 
ATOM      8  C   UNL     1       7.251  -1.703   3.519  0.00  0.00    +0.137 C 
ATOM      9  H   UNL     1       6.874  -0.227  -0.637  0.00  0.00    +0.151 HD
ENDROOT
BRANCH   2  10
ATOM     10  C   UNL     1       4.346   0.178  -0.927  0.00  0.00    -0.023 A 
ATOM     11  C   UNL     1       4.766   1.494  -0.869  0.00  0.00    +0.008 A 
ATOM     12  C   UNL     1       4.210   2.436  -1.713  0.00  0.00    +0.041 A 
ATOM     13  C   UNL     1       3.232   2.063  -2.618  0.00  0.00    +0.158 A 
ATOM     14  C   UNL     1       2.811   0.744  -2.677  0.00  0.00    +0.159 A 
ATOM     15  C   UNL     1       3.369  -0.198  -1.830  0.00  0.00    +0.046 A 
ATOM     16  F   UNL     1       1.856   0.377  -3.560  0.00  0.00    -0.202 F 
ATOM     17  F   UNL     1       2.692   2.983  -3.448  0.00  0.00    -0.202 F 
ENDBRANCH   2  10
BRANCH   7  18
ATOM     18  C   UNL     1       4.471  -1.532   3.746  0.00  0.00    +0.437 C 
ATOM     19  F   UNL     1       4.801  -0.258   4.220  0.00  0.00    -0.166 F 
ATOM     20  F   UNL     1       3.080  -1.678   3.728  0.00  0.00    -0.166 F 
ATOM     21  F   UNL     1       5.031  -2.501   4.586  0.00  0.00    -0.166 F 
ENDBRANCH   7  18
BRANCH   1  22
ATOM     22  C   UNL     1       4.454   0.672   1.895  0.00  0.00    +0.317 C 
ATOM     23  O   UNL     1       5.554   1.133   2.091  0.00  0.00    -0.250 OA
BRANCH  22  24
ATOM     24  O   UNL     1       3.363   1.416   2.134  0.00  0.00    -0.465 OA
BRANCH  24  26
ATOM     25  C   UNL     1       2.228   3.452   2.841  0.00  0.00    +0.048 C 
ATOM     26  C   UNL     1       3.579   2.764   2.628  0.00  0.00    +0.229 C 
ENDBRANCH  24  26
ENDBRANCH  22  24
ENDBRANCH   1  22
BRANCH   7  27
ATOM     27  O   UNL     1       4.800  -3.050   1.894  0.00  0.00    -0.364 OA
ATOM     28  H   UNL     1       5.228  -3.718   2.447  0.00  0.00    +0.212 HD
ENDBRANCH   7  27
TORSDOF 6
