REMARK  Name = ZINC65265904
REMARK  4 active torsions:
REMARK  status: ('A' for Active; 'I' for Inactive)
REMARK    1  A    between atoms: C_1  and  O_2
REMARK    2  A    between atoms: O_2  and  C_3
REMARK    3  A    between atoms: C_6  and  C_9
REMARK    4  A    between atoms: N_26  and  C_27
REMARK                            x       y       z     vdW  Elec       q    Type
REMARK                         _______ _______ _______ _____ _____    ______ ____
ROOT
ATOM      1  C   UNL     1       2.581  -2.440   4.288  0.00  0.00    +0.248 C 
ATOM      2  O   UNL     1       2.568  -3.647   4.437  0.00  0.00    -0.270 OA
ATOM      3  N   UNL     1       3.208  -1.657   5.188  0.00  0.00    -0.295 N 
ATOM      4  C   UNL     1       3.193  -0.182   5.204  0.00  0.00    +0.110 C 
ATOM      5  C   UNL     1       3.490   0.206   6.676  0.00  0.00    +0.050 C 
ATOM      6  C   UNL     1       4.490  -0.890   7.086  0.00  0.00    +0.091 C 
ATOM      7  C   UNL     1       4.018  -2.132   6.324  0.00  0.00    +0.137 C 
ATOM      8  C   UNL     1       4.500  -1.110   8.560  0.00  0.00    +0.095 C 
ATOM      9  N   UNL     1       5.391  -0.361   9.289  0.00  0.00    -0.303 N 
ATOM     10  C   UNL     1       6.674  -0.859   9.498  0.00  0.00    +0.037 A 
ATOM     11  C   UNL     1       7.248  -0.795  10.760  0.00  0.00    +0.023 A 
ATOM     12  C   UNL     1       8.526  -1.275  10.966  0.00  0.00    +0.002 A 
ATOM     13  C   UNL     1       9.228  -1.817   9.905  0.00  0.00    +0.000 A 
ATOM     14  C   UNL     1       8.657  -1.884   8.653  0.00  0.00    +0.007 A 
ATOM     15  C   UNL     1       7.367  -1.413   8.428  0.00  0.00    -0.012 A 
ATOM     16  C   UNL     1       6.820  -1.568   7.032  0.00  0.00    +0.119 C 
ATOM     17  N   UNL     1       5.862  -0.512   6.677  0.00  0.00    -0.299 NA
ATOM     18  N   UNL     1       3.707  -1.962   9.125  0.00  0.00    -0.372 N 
ATOM     19  H   UNL     1       5.902  -0.306   5.690  0.00  0.00    +0.123 HD
ATOM     20  H   UNL     1       3.137  -2.528   8.582  0.00  0.00    +0.161 HD
ATOM     21  H   UNL     1       5.132   0.499   9.653  0.00  0.00    +0.153 HD
ENDROOT
BRANCH   1  25
ATOM     22  C   UNL     1       0.623  -0.777   0.963  0.00  0.00    +0.214 A 
ATOM     23  C   UNL     1       1.651  -0.048   1.555  0.00  0.00    +0.068 A 
ATOM     24  C   UNL     1       2.308  -0.574   2.648  0.00  0.00    +0.020 A 
ATOM     25  C   UNL     1       1.910  -1.833   3.122  0.00  0.00    +0.055 A 
ATOM     26  C   UNL     1       0.871  -2.502   2.475  0.00  0.00    +0.127 A 
ATOM     27  N   UNL     1       0.268  -1.961   1.438  0.00  0.00    -0.221 NA
BRANCH  22  29
ATOM     28  C   UNL     1      -1.075  -1.057  -0.672  0.00  0.00    +0.279 C 
ATOM     29  O   UNL     1      -0.026  -0.266  -0.111  0.00  0.00    -0.480 OA
ENDBRANCH  22  29
ENDBRANCH   1  25
BRANCH  18  30
ATOM     30  C   UNL     1       3.672  -2.073  10.585  0.00  0.00    +0.080 C 
ATOM     31  C   UNL     1       4.740  -3.077  11.065  0.00  0.00    +0.024 C 
ATOM     32  C   UNL     1       4.067  -3.810  12.252  0.00  0.00    +0.002 C 
ATOM     33  C   UNL     1       2.599  -3.952  11.778  0.00  0.00    +0.002 C 
ATOM     34  C   UNL     1       2.310  -2.629  11.039  0.00  0.00    +0.024 C 
ENDBRANCH  18  30
TORSDOF 3
