REMARK  Name = ZINC64353701
REMARK  7 active torsions:
REMARK  status: ('A' for Active; 'I' for Inactive)
REMARK    1  A    between atoms: C_4  and  C_7
REMARK    2  A    between atoms: C_7  and  C_9
REMARK    3  A    between atoms: C_7  and  C_25
REMARK    4  A    between atoms: C_9  and  N_10
REMARK    5  A    between atoms: C_11  and  C_13
REMARK    6  A    between atoms: C_13  and  N_14
REMARK    7  A    between atoms: N_17  and  C_20
REMARK                            x       y       z     vdW  Elec       q    Type
REMARK                         _______ _______ _______ _____ _____    ______ ____
ROOT
ATOM      1  C   UNL     1       3.791  -1.579  -1.292  0.00  0.00    +0.116 C 
ENDROOT
BRANCH   1   2
ATOM      2  N   UNL     1       3.810  -0.724  -2.481  0.00  0.00    -0.313 N 
ATOM      3  C   UNL     1       3.878  -1.277  -3.708  0.00  0.00    +0.232 C 
ATOM      4  O   UNL     1       3.923  -2.483  -3.828  0.00  0.00    -0.274 OA
ATOM      5  H   UNL     1       3.773   0.241  -2.385  0.00  0.00    +0.149 HD
BRANCH   3   6
ATOM      6  C   UNL     1       3.897  -0.397  -4.932  0.00  0.00    +0.225 C 
BRANCH   6   7
ATOM      7  N   UNL     1       3.973  -1.232  -6.133  0.00  0.00    -0.196 N 
ATOM      8  C   UNL     1       2.924  -1.711  -6.822  0.00  0.00    +0.340 C 
ATOM      9  O   UNL     1       1.759  -1.512  -6.535  0.00  0.00    -0.249 OA
ATOM     10  N   UNL     1       3.338  -2.440  -7.872  0.00  0.00    -0.166 N 
ATOM     11  N   UNL     1       4.706  -2.450  -7.887  0.00  0.00    -0.150 NA
ATOM     12  N   UNL     1       5.125  -1.649  -6.742  0.00  0.00    -0.154 NA
ATOM     13  H   UNL     1       5.061  -3.392  -7.822  0.00  0.00    +0.166 HD
ATOM     14  H   UNL     1       5.692  -2.193  -6.110  0.00  0.00    +0.166 HD
BRANCH  10  15
ATOM     15  C   UNL     1       2.508  -3.083  -8.795  0.00  0.00    +0.093 A 
ATOM     16  C   UNL     1       2.850  -3.839  -9.875  0.00  0.00    +0.033 A 
ATOM     17  C   UNL     1       1.844  -4.380 -10.655  0.00  0.00    +0.009 A 
ATOM     18  C   UNL     1       0.553  -4.142 -10.323  0.00  0.00    +0.047 A 
ATOM     19  S   UNL     1       0.724  -3.131  -8.862  0.00  0.00    -0.080 S 
ENDBRANCH  10  15
ENDBRANCH   6   7
ENDBRANCH   3   6
ENDBRANCH   1   2
BRANCH   1  20
ATOM     20  C   UNL     1       3.711  -0.707  -0.038  0.00  0.00    +0.064 C 
BRANCH  20  21
ATOM     21  C   UNL     1       3.816  -1.579   1.188  0.00  0.00    -0.033 C 
ATOM     22  C   UNL     1       4.756  -1.509   2.157  0.00  0.00    -0.000 A 
ATOM     23  C   UNL     1       5.920  -0.636   2.352  0.00  0.00    +0.010 A 
ATOM     24  C   UNL     1       6.696  -0.812   3.446  0.00  0.00    +0.001 A 
ATOM     25  C   UNL     1       6.417  -1.805   4.396  0.00  0.00    +0.002 A 
ATOM     26  C   UNL     1       5.366  -2.646   4.285  0.00  0.00    +0.026 A 
ATOM     27  C   UNL     1       4.483  -2.550   3.174  0.00  0.00    +0.043 A 
ATOM     28  N   UNL     1       3.415  -3.236   2.846  0.00  0.00    -0.380 N 
ATOM     29  C   UNL     1       2.886  -2.703   1.585  0.00  0.00    +0.145 C 
ATOM     30  H   UNL     1       3.036  -3.970   3.354  0.00  0.00    +0.160 HD
ENDBRANCH  20  21
BRANCH  20  34
ATOM     31  C   UNL     1      -0.017   1.378   0.010  0.00  0.00    +0.000 A 
ATOM     32  C   UNL     1       1.171   2.086   0.002  0.00  0.00    +0.000 A 
ATOM     33  C   UNL     1       2.377   1.411  -0.013  0.00  0.00    +0.004 A 
ATOM     34  C   UNL     1       2.396   0.029  -0.020  0.00  0.00    -0.039 A 
ATOM     35  C   UNL     1       1.208  -0.679  -0.012  0.00  0.00    +0.004 A 
ATOM     36  C   UNL     1       0.002  -0.004   0.002  0.00  0.00    +0.000 A 
ENDBRANCH  20  34
ENDBRANCH   1  20
TORSDOF 7
