REMARK  Name = ZINC08635768
REMARK  9 active torsions:
REMARK  status: ('A' for Active; 'I' for Inactive)
REMARK    1  A    between atoms: C_1  and  N_71
REMARK    2  A    between atoms: C_2  and  C_3
REMARK    3  A    between atoms: C_2  and  N_71
REMARK    4  A    between atoms: C_9  and  C_10
REMARK    5  A    between atoms: C_9  and  N_71
REMARK    6  A    between atoms: N_12  and  C_15
REMARK    7  A    between atoms: C_15  and  C_16
REMARK    8  A    between atoms: C_24  and  C_26
REMARK    9  A    between atoms: C_31  and  C_34
REMARK                            x       y       z     vdW  Elec       q    Type
REMARK                         _______ _______ _______ _____ _____    ______ ____
ROOT
ATOM      1  C   UNL     1       5.304   0.503   4.102  0.00  0.00    -0.046 C 
ATOM      2  C   UNL     1       6.168  -0.457   4.925  0.00  0.00    -0.010 C 
ATOM      3  C   UNL     1       7.587  -0.469   4.343  0.00  0.00    -0.004 C 
ATOM      4  C   UNL     1       8.148   0.957   4.391  0.00  0.00    -0.015 C 
ATOM      5  C   UNL     1       7.230   1.878   3.583  0.00  0.00    -0.078 C 
ATOM      6  C   UNL     1       6.609   0.058   2.111  0.00  0.00    -0.065 C 
ATOM      7  C   UNL     1       7.510  -0.915   2.877  0.00  0.00    +0.062 C 
ATOM      8  N   UNL     1       6.101   1.112   3.015  0.00  0.00    +0.383 N 
ATOM      9  H   UNL     1       5.501   1.750   2.479  0.00  0.00    -0.081 HD
ENDROOT
BRANCH   7  10
ATOM     10  C   UNL     1       6.933  -2.305   2.799  0.00  0.00    +0.217 C 
ATOM     11  O   UNL     1       6.622  -2.891   3.814  0.00  0.00    -0.275 OA
ATOM     12  N   UNL     1       6.761  -2.897   1.600  0.00  0.00    -0.301 N 
ATOM     13  C   UNL     1       7.127  -2.198   0.361  0.00  0.00    +0.108 C 
ATOM     14  C   UNL     1       5.926  -2.197  -0.583  0.00  0.00    +0.032 C 
ATOM     15  C   UNL     1       5.442  -3.634  -0.791  0.00  0.00    +0.078 C 
ATOM     16  C   UNL     1       5.004  -4.226   0.551  0.00  0.00    +0.032 C 
ATOM     17  C   UNL     1       6.200  -4.252   1.508  0.00  0.00    +0.108 C 
BRANCH  15  18
ATOM     18  C   UNL     1       4.276  -3.638  -1.746  0.00  0.00    +0.214 C 
ATOM     19  O   UNL     1       3.201  -4.071  -1.388  0.00  0.00    -0.276 OA
ATOM     20  N   UNL     1       4.428  -3.160  -2.997  0.00  0.00    -0.329 N 
ATOM     21  H   UNL     1       5.288  -2.814  -3.282  0.00  0.00    +0.145 HD
ATOM     22  H   UNL     1       3.678  -3.163  -3.611  0.00  0.00    +0.145 HD
ENDBRANCH  15  18
ENDBRANCH   7  10
BRANCH   1  23
ATOM     23  C   UNL     1       4.130  -0.263   3.490  0.00  0.00    +0.130 C 
BRANCH  23  26
ATOM     24  C   UNL     1       2.039   1.654   1.290  0.00  0.00    +0.066 A 
ATOM     25  C   UNL     1       2.847   0.590   1.508  0.00  0.00    +0.131 A 
ATOM     26  N   UNL     1       3.241   0.675   2.800  0.00  0.00    -0.253 N 
ATOM     27  N   UNL     1       2.695   1.718   3.321  0.00  0.00    -0.066 NA
ATOM     28  N   UNL     1       1.972   2.323   2.446  0.00  0.00    -0.136 NA
BRANCH  24  29
ATOM     29  C   UNL     1       1.346   2.010   0.000  0.00  0.00    -0.019 C 
BRANCH  29  31
ATOM     30  C   UNL     1       0.002  -0.004   0.002  0.00  0.00    -0.095 C 
ATOM     31  N   UNL     1      -0.030   1.473   0.034  0.00  0.00    +0.384 N 
ATOM     32  H   UNL     1      -0.486   1.778   0.903  0.00  0.00    -0.081 HD
BRANCH  31  33
ATOM     33  C   UNL     1      -0.802   1.987  -1.117  0.00  0.00    -0.043 C 
BRANCH  33  34
ATOM     34  C   UNL     1      -2.249   1.608  -0.941  0.00  0.00    -0.064 A 
ATOM     35  C   UNL     1      -2.723   0.421  -1.469  0.00  0.00    +0.002 A 
ATOM     36  C   UNL     1      -4.050   0.071  -1.303  0.00  0.00    +0.000 A 
ATOM     37  C   UNL     1      -4.906   0.912  -0.618  0.00  0.00    +0.000 A 
ATOM     38  C   UNL     1      -4.434   2.102  -0.094  0.00  0.00    +0.000 A 
ATOM     39  C   UNL     1      -3.106   2.449  -0.256  0.00  0.00    +0.002 A 
ENDBRANCH  33  34
ENDBRANCH  31  33
ENDBRANCH  29  31
ENDBRANCH  24  29
ENDBRANCH  23  26
ENDBRANCH   1  23
TORSDOF 8
