REMARK  Name = ZINC08636524
REMARK  8 active torsions:
REMARK  status: ('A' for Active; 'I' for Inactive)
REMARK    1  A    between atoms: C_1  and  N_2
REMARK    2  A    between atoms: N_2  and  C_3
REMARK    3  A    between atoms: N_2  and  C_4
REMARK    4  A    between atoms: C_7  and  N_10
REMARK    5  A    between atoms: C_13  and  C_27
REMARK    6  A    between atoms: C_16  and  O_26
REMARK    7  A    between atoms: C_18  and  O_25
REMARK    8  A    between atoms: N_29  and  C_30
REMARK                            x       y       z     vdW  Elec       q    Type
REMARK                         _______ _______ _______ _____ _____    ______ ____
ROOT
ATOM      1  N   UNL     1      -0.214  -0.188   0.442  0.00  0.00    -0.277 N 
ATOM      2  C   UNL     1      -1.453  -0.965   0.475  0.00  0.00    +0.115 C 
ATOM      3  C   UNL     1      -2.553  -0.352   1.266  0.00  0.00    +0.100 C 
ATOM      4  C   UNL     1      -2.699  -0.854   2.683  0.00  0.00    +0.048 C 
ATOM      5  C   UNL     1      -2.614  -2.364   2.759  0.00  0.00    +0.146 C 
ATOM      6  C   UNL     1      -1.351  -2.900   2.145  0.00  0.00    +0.165 C 
ATOM      7  C   UNL     1      -1.031  -2.387   0.761  0.00  0.00    +0.124 C 
ATOM      8  N   UNL     1       0.445  -2.332   0.622  0.00  0.00    -0.319 N 
ATOM      9  C   UNL     1       0.817  -1.050   0.493  0.00  0.00    +0.138 C 
ATOM     10  S   UNL     1       2.454  -0.557   0.399  0.00  0.00    -0.018 S 
ATOM     11  H   UNL     1       1.041  -3.096   0.625  0.00  0.00    +0.148 HD
ENDROOT
BRANCH   1  15
ATOM     12  C   UNL     1       0.071   3.968   0.244  0.00  0.00    +0.029 A 
ATOM     13  C   UNL     1       0.565   3.290   1.351  0.00  0.00    +0.025 A 
ATOM     14  C   UNL     1       0.470   1.914   1.417  0.00  0.00    +0.025 A 
ATOM     15  C   UNL     1      -0.118   1.208   0.376  0.00  0.00    +0.036 A 
ATOM     16  C   UNL     1      -0.606   1.885  -0.734  0.00  0.00    +0.025 A 
ATOM     17  C   UNL     1      -0.517   3.262  -0.797  0.00  0.00    +0.025 A 
BRANCH  12  19
ATOM     18  C   UNL     1       0.853   5.997  -0.950  0.00  0.00    +0.129 C 
ATOM     19  N   UNL     1       0.167   5.362   0.178  0.00  0.00    -0.336 N 
ATOM     20  C   UNL     1      -0.419   6.188   1.237  0.00  0.00    +0.129 C 
ENDBRANCH  12  19
ENDBRANCH   1  15
BRANCH   3  21
ATOM     21  C   UNL     1      -2.324   1.137   1.318  0.00  0.00    +0.218 C 
ATOM     22  O   UNL     1      -1.610   1.610   2.177  0.00  0.00    -0.275 OA
ATOM     23  N   UNL     1      -2.911   1.942   0.411  0.00  0.00    -0.312 N 
ATOM     24  H   UNL     1      -3.481   1.563  -0.277  0.00  0.00    +0.149 HD
BRANCH  23  25
ATOM     25  C   UNL     1      -2.690   3.389   0.464  0.00  0.00    +0.073 C 
ATOM     26  C   UNL     1      -3.924   4.293   0.447  0.00  0.00    +0.024 C 
ATOM     27  C   UNL     1      -3.025   4.201  -0.789  0.00  0.00    +0.024 C 
ENDBRANCH  23  25
ENDBRANCH   3  21
BRANCH   6  28
ATOM     28  O   UNL     1      -0.266  -2.562   3.011  0.00  0.00    -0.387 OA
ATOM     29  H   UNL     1      -0.387  -2.854   3.925  0.00  0.00    +0.210 HD
ENDBRANCH   6  28
BRANCH   5  30
ATOM     30  O   UNL     1      -3.731  -2.926   2.067  0.00  0.00    -0.389 OA
ATOM     31  H   UNL     1      -4.589  -2.665   2.429  0.00  0.00    +0.210 HD
ENDBRANCH   5  30
TORSDOF 6
