REMARK  Name = ZINC12418318
REMARK  7 active torsions:
REMARK  status: ('A' for Active; 'I' for Inactive)
REMARK    1  A    between atoms: C_1  and  O_2
REMARK    2  A    between atoms: O_2  and  C_3
REMARK    3  A    between atoms: C_7  and  C_10
REMARK    4  A    between atoms: C_8  and  O_9
REMARK    5  A    between atoms: N_11  and  N_12
REMARK    6  A    between atoms: C_15  and  C_25
REMARK    7  A    between atoms: C_16  and  C_19
REMARK                            x       y       z     vdW  Elec       q    Type
REMARK                         _______ _______ _______ _____ _____    ______ ____
ROOT
ATOM      1  N   UNL     1       0.943  -6.092  -1.319  0.00  0.00    -0.204 N 
ATOM      2  C   UNL     1       0.345  -6.925  -0.390  0.00  0.00    +0.255 A 
ATOM      3  N   UNL     1       0.700  -8.202  -0.334  0.00  0.00    -0.210 NA
ATOM      4  C   UNL     1       0.124  -9.003   0.560  0.00  0.00    +0.102 A 
ATOM      5  C   UNL     1      -0.850  -8.459   1.421  0.00  0.00    +0.119 A 
ATOM      6  N   UNL     1      -1.159  -7.171   1.310  0.00  0.00    -0.144 NA
ATOM      7  N   UNL     1      -0.573  -6.433   0.435  0.00  0.00    -0.111 NA
ATOM      8  H   UNL     1       1.614  -6.444  -1.925  0.00  0.00    +0.177 HD
ENDROOT
BRANCH   5   9
ATOM      9  C   UNL     1      -1.520  -9.309   2.432  0.00  0.00    +0.004 A 
ATOM     10  C   UNL     1      -1.693  -8.844   3.735  0.00  0.00    +0.010 A 
ATOM     11  C   UNL     1      -2.317  -9.640   4.673  0.00  0.00    +0.001 A 
ATOM     12  C   UNL     1      -2.772 -10.899   4.322  0.00  0.00    +0.000 A 
ATOM     13  C   UNL     1      -2.604 -11.367   3.031  0.00  0.00    +0.001 A 
ATOM     14  C   UNL     1      -1.986 -10.577   2.083  0.00  0.00    +0.010 A 
ENDBRANCH   5   9
BRANCH   4  15
ATOM     15  C   UNL     1       0.499 -10.434   0.647  0.00  0.00    +0.003 A 
ATOM     16  C   UNL     1       0.717 -11.025   1.891  0.00  0.00    +0.010 A 
ATOM     17  C   UNL     1       1.066 -12.358   1.966  0.00  0.00    +0.001 A 
ATOM     18  C   UNL     1       1.198 -13.107   0.811  0.00  0.00    +0.000 A 
ATOM     19  C   UNL     1       0.983 -12.526  -0.425  0.00  0.00    +0.001 A 
ATOM     20  C   UNL     1       0.628 -11.196  -0.513  0.00  0.00    +0.010 A 
ENDBRANCH   4  15
BRANCH   1  22
ATOM     21  C   UNL     1       1.142  -3.958  -2.255  0.00  0.00    +0.142 C 
ATOM     22  N   UNL     1       0.581  -4.740  -1.383  0.00  0.00    -0.187 NA
BRANCH  21  27
ATOM     23  C   UNL     1      -0.561  -0.684  -1.523  0.00  0.00    +0.163 A 
ATOM     24  C   UNL     1       0.045   0.143  -2.457  0.00  0.00    +0.064 A 
ATOM     25  C   UNL     1       1.002  -0.361  -3.320  0.00  0.00    +0.022 A 
ATOM     26  C   UNL     1       1.363  -1.692  -3.259  0.00  0.00    +0.028 A 
ATOM     27  C   UNL     1       0.760  -2.536  -2.323  0.00  0.00    +0.041 A 
ATOM     28  C   UNL     1      -0.204  -2.024  -1.446  0.00  0.00    +0.167 A 
ATOM     29 BR   UNL     1       1.819   0.778  -4.589  0.00  0.00    -0.050 Br
BRANCH  23  31
ATOM     30  C   UNL     1      -1.819   1.205  -0.812  0.00  0.00    +0.277 C 
ATOM     31  O   UNL     1      -1.501  -0.181  -0.678  0.00  0.00    -0.491 OA
ENDBRANCH  23  31
BRANCH  28  32
ATOM     32  O   UNL     1      -0.791  -2.836  -0.528  0.00  0.00    -0.503 OA
ATOM     33  H   UNL     1      -1.594  -3.272  -0.845  0.00  0.00    +0.292 HD
ENDBRANCH  28  32
ENDBRANCH  21  27
ENDBRANCH   1  22
TORSDOF 6
