REMARK  Name = ZINC02667115
REMARK  10 active torsions:
REMARK  status: ('A' for Active; 'I' for Inactive)
REMARK    1  A    between atoms: C_1  and  C_2
REMARK    2  A    between atoms: C_2  and  C_3
REMARK    3  A    between atoms: C_3  and  C_4
REMARK    4  A    between atoms: C_9  and  C_23
REMARK    5  A    between atoms: C_10  and  C_19
REMARK    6  A    between atoms: C_13  and  C_16
REMARK    7  A    between atoms: C_14  and  O_15
REMARK    8  A    between atoms: C_16  and  N_53
REMARK    9  A    between atoms: C_17  and  N_53
REMARK   10  A    between atoms: C_18  and  N_53
REMARK                            x       y       z     vdW  Elec       q    Type
REMARK                         _______ _______ _______ _____ _____    ______ ____
ROOT
ATOM      1  C   UNL     1      -0.182   0.264  -0.725  0.00  0.00    -0.005 A 
ATOM      2  C   UNL     1      -0.090   1.501  -0.153  0.00  0.00    +0.022 A 
ATOM      3  C   UNL     1       1.147   2.142  -0.083  0.00  0.00    +0.065 A 
ATOM      4  C   UNL     1       1.284   3.477   0.527  0.00  0.00    +0.203 A 
ATOM      5  O   UNL     1       0.325   4.068   0.991  0.00  0.00    -0.286 OA
ATOM      6  C   UNL     1       2.637   4.062   0.548  0.00  0.00    +0.101 A 
ATOM      7  C   UNL     1       3.666   3.348   0.012  0.00  0.00    +0.221 A 
ATOM      8  O   UNL     1       3.495   2.141  -0.530  0.00  0.00    -0.449 OA
ATOM      9  C   UNL     1       2.300   1.521  -0.598  0.00  0.00    +0.144 A 
ATOM     10  C   UNL     1       2.189   0.264  -1.176  0.00  0.00    +0.021 A 
ATOM     11  C   UNL     1       0.953  -0.359  -1.238  0.00  0.00    +0.125 A 
ENDROOT
BRANCH   6  12
ATOM     12  C   UNL     1       2.873   5.394   1.138  0.00  0.00    +0.117 A 
ATOM     13  N   UNL     1       3.810   5.769   1.982  0.00  0.00    -0.239 NA
ATOM     14  C   UNL     1       3.909   7.033   2.440  0.00  0.00    +0.079 A 
ATOM     15  C   UNL     1       4.864   7.566   3.338  0.00  0.00    +0.029 A 
ATOM     16  C   UNL     1       4.821   8.874   3.707  0.00  0.00    +0.002 A 
ATOM     17  C   UNL     1       3.847   9.736   3.223  0.00  0.00    +0.001 A 
ATOM     18  C   UNL     1       2.894   9.256   2.342  0.00  0.00    +0.017 A 
ATOM     19  C   UNL     1       2.929   7.936   1.964  0.00  0.00    +0.040 A 
ATOM     20  S   UNL     1       1.952   6.907   0.895  0.00  0.00    -0.067 S 
ENDBRANCH   6  12
BRANCH   7  21
ATOM     21  C   UNL     1       5.050   3.943   0.033  0.00  0.00    +0.451 C 
ATOM     22  F   UNL     1       5.492   4.050   1.356  0.00  0.00    -0.163 F 
ATOM     23  F   UNL     1       5.923   3.119  -0.685  0.00  0.00    -0.163 F 
ATOM     24  F   UNL     1       5.020   5.213  -0.553  0.00  0.00    -0.163 F 
ENDBRANCH   7  21
BRANCH  11  25
ATOM     25  O   UNL     1       0.848  -1.588  -1.804  0.00  0.00    -0.506 OA
ATOM     26  H   UNL     1       0.668  -1.570  -2.754  0.00  0.00    +0.292 HD
ENDBRANCH  11  25
BRANCH   1  27
ATOM     27  C   UNL     1      -1.518  -0.429  -0.802  0.00  0.00    +0.038 C 
BRANCH  27  29
ATOM     28  C   UNL     1      -3.029  -2.076   0.316  0.00  0.00    +0.004 C 
ATOM     29  C   UNL     1      -1.673  -1.371   0.393  0.00  0.00    +0.001 C 
ENDBRANCH  27  29
ENDBRANCH   1  27
BRANCH  10  30
ATOM     30  C   UNL     1       3.409  -0.421  -1.734  0.00  0.00    -0.036 C 
BRANCH  30  33
ATOM     31  C   UNL     1       4.872  -0.510  -3.661  0.00  0.00    -0.096 C 
ATOM     32  C   UNL     1       2.470  -0.592  -3.959  0.00  0.00    -0.096 C 
ATOM     33  N   UNL     1       3.571  -0.029  -3.149  0.00  0.00    +0.379 N 
ATOM     34  H   UNL     1       3.545   0.995  -3.216  0.00  0.00    -0.082 HD
ENDBRANCH  30  33
ENDBRANCH  10  30
TORSDOF 7
