REMARK  Name = ZINC27754212
REMARK  6 active torsions:
REMARK  status: ('A' for Active; 'I' for Inactive)
REMARK    1  A    between atoms: C_4  and  C_7
REMARK    2  A    between atoms: C_7  and  O_34
REMARK    3  A    between atoms: C_8  and  C_28
REMARK    4  A    between atoms: C_10  and  C_16
REMARK    5  A    between atoms: C_19  and  C_21
REMARK    6  A    between atoms: C_28  and  C_30
REMARK                            x       y       z     vdW  Elec       q    Type
REMARK                         _______ _______ _______ _____ _____    ______ ____
ROOT
ATOM      1  C   UNL     1       1.418   2.037  -0.001  0.00  0.00    +0.172 C 
ATOM      2  C   UNL     1      -0.018   1.503   0.010  0.00  0.00    +0.147 C 
ATOM      3  C   UNL     1      -0.715   2.001   1.281  0.00  0.00    +0.156 C 
ATOM      4  N   UNL     1       0.073   1.600   2.449  0.00  0.00    -0.289 N 
ATOM      5  C   UNL     1       1.403   1.446   2.373  0.00  0.00    +0.303 C 
ATOM      6  O   UNL     1       2.011   1.121   3.375  0.00  0.00    -0.253 OA
ATOM      7  N   UNL     1       2.089   1.635   1.236  0.00  0.00    -0.267 N 
ATOM      8  H   UNL     1      -0.426   1.420   3.413  0.00  0.00    +0.151 HD
ATOM      9  H   UNL     1       3.179   1.481   1.246  0.00  0.00    +0.153 HD
ENDROOT
BRANCH   1  13
ATOM     10  C   UNL     1       3.516   0.424  -3.354  0.00  0.00    +0.000 A 
ATOM     11  C   UNL     1       2.825   1.615  -3.478  0.00  0.00    +0.000 A 
ATOM     12  C   UNL     1       2.146   2.137  -2.393  0.00  0.00    +0.008 A 
ATOM     13  C   UNL     1       2.158   1.468  -1.183  0.00  0.00    +0.003 A 
ATOM     14  C   UNL     1       2.853   0.280  -1.058  0.00  0.00    +0.008 A 
ATOM     15  C   UNL     1       3.528  -0.245  -2.144  0.00  0.00    +0.000 A 
ENDBRANCH   1  13
BRANCH   3  16
ATOM     16  C   UNL     1      -0.825   3.503   1.239  0.00  0.00    +0.127 A 
ATOM     17  C   UNL     1      -1.925   4.201   0.896  0.00  0.00    +0.047 A 
ATOM     18  C   UNL     1      -1.593   5.568   0.992  0.00  0.00    +0.050 A 
ATOM     19  C   UNL     1      -0.296   5.629   1.393  0.00  0.00    +0.135 A 
ATOM     20  O   UNL     1       0.156   4.369   1.544  0.00  0.00    -0.458 OA
BRANCH  19  21
ATOM     21  C   UNL     1       0.482   6.863   1.628  0.00  0.00    +0.019 A 
ATOM     22  C   UNL     1       1.814   6.785   2.040  0.00  0.00    +0.011 A 
ATOM     23  C   UNL     1       2.535   7.941   2.258  0.00  0.00    +0.002 A 
ATOM     24  C   UNL     1       1.941   9.176   2.068  0.00  0.00    +0.020 A 
ATOM     25  C   UNL     1       0.622   9.262   1.659  0.00  0.00    +0.042 A 
ATOM     26  C   UNL     1      -0.110   8.112   1.433  0.00  0.00    +0.031 A 
ATOM     27 CL   UNL     1      -0.114  10.816   1.423  0.00  0.00    -0.084 Cl
ENDBRANCH  19  21
ENDBRANCH   3  16
BRANCH   2  28
ATOM     28  C   UNL     1       0.002  -0.004   0.002  0.00  0.00    +0.245 C 
ATOM     29  O   UNL     1       0.921  -0.598   0.513  0.00  0.00    -0.287 OA
BRANCH  28  30
ATOM     30  C   UNL     1      -1.124  -0.769  -0.644  0.00  0.00    +0.451 C 
ATOM     31  F   UNL     1      -0.883  -2.142  -0.526  0.00  0.00    -0.163 F 
ATOM     32  F   UNL     1      -2.329  -0.451  -0.008  0.00  0.00    -0.163 F 
ATOM     33  F   UNL     1      -1.206  -0.425  -1.997  0.00  0.00    -0.163 F 
ENDBRANCH  28  30
ENDBRANCH   2  28
BRANCH   1  34
ATOM     34  O   UNL     1       1.396   3.463  -0.090  0.00  0.00    -0.367 OA
ATOM     35  H   UNL     1       0.897   4.056   0.691  0.00  0.00    +0.212 HD
ENDBRANCH   1  34
TORSDOF 6
