REMARK  Name = ZINC12582540
REMARK  6 active torsions:
REMARK  status: ('A' for Active; 'I' for Inactive)
REMARK    1  A    between atoms: C_6  and  O_7
REMARK    2  A    between atoms: O_7  and  C_8
REMARK    3  A    between atoms: C_8  and  C_9
REMARK    4  A    between atoms: N_11  and  N_12
REMARK    5  A    between atoms: C_13  and  C_14
REMARK    6  A    between atoms: C_19  and  O_20
REMARK                            x       y       z     vdW  Elec       q    Type
REMARK                         _______ _______ _______ _____ _____    ______ ____
ROOT
ATOM      1  C   UNL     1       2.209   5.601   0.010  0.00  0.00    +0.270 C 
ATOM      2  O   UNL     1       1.083   6.051   0.023  0.00  0.00    -0.270 OA
ATOM      3  N   UNL     1       3.268   6.434   0.004  0.00  0.00    -0.204 N 
ATOM      4  H   UNL     1       4.169   6.074  -0.006  0.00  0.00    +0.177 HD
ENDROOT
BRANCH   3   5
ATOM      5  N   UNL     1       3.068   7.821   0.013  0.00  0.00    -0.188 NA
ATOM      6  C   UNL     1       4.088   8.624   0.008  0.00  0.00    +0.142 C 
BRANCH   6   7
ATOM      7  C   UNL     1       3.877  10.083   0.017  0.00  0.00    +0.039 A 
ATOM      8  C   UNL     1       4.972  10.950   0.011  0.00  0.00    +0.033 A 
ATOM      9  C   UNL     1       4.769  12.315   0.019  0.00  0.00    +0.043 A 
ATOM     10  C   UNL     1       3.482  12.829   0.034  0.00  0.00    +0.043 A 
ATOM     11  C   UNL     1       2.390  11.980   0.039  0.00  0.00    +0.084 A 
ATOM     12  C   UNL     1       2.578  10.607   0.026  0.00  0.00    +0.144 A 
ATOM     13 CL   UNL     1       0.783  12.635   0.057  0.00  0.00    -0.080 Cl
ATOM     14 CL   UNL     1       6.130  13.392   0.013  0.00  0.00    -0.083 Cl
BRANCH  12  15
ATOM     15  O   UNL     1       1.506   9.772   0.027  0.00  0.00    -0.505 OA
ATOM     16  H   UNL     1       1.200   9.525   0.910  0.00  0.00    +0.292 HD
ENDBRANCH  12  15
ENDBRANCH   6   7
ENDBRANCH   3   5
BRANCH   1  17
ATOM     17  C   UNL     1       2.425   4.109   0.001  0.00  0.00    +0.326 C 
BRANCH  17  18
ATOM     18  O   UNL     1       1.159   3.445   0.009  0.00  0.00    -0.483 OA
BRANCH  18  24
ATOM     19  C   UNL     1      -0.017   1.377   0.010  0.00  0.00    +0.047 A 
ATOM     20  C   UNL     1       0.002  -0.004   0.002  0.00  0.00    +0.019 A 
ATOM     21  C   UNL     1       1.209  -0.680  -0.013  0.00  0.00    +0.018 A 
ATOM     22  C   UNL     1       2.399   0.025  -0.020  0.00  0.00    +0.019 A 
ATOM     23  C   UNL     1       2.385   1.406  -0.012  0.00  0.00    +0.047 A 
ATOM     24  C   UNL     1       1.176   2.086   0.002  0.00  0.00    +0.121 A 
ATOM     25 BR   UNL     1       1.232  -2.571  -0.022  0.00  0.00    -0.050 Br
ENDBRANCH  18  24
ENDBRANCH  17  18
ENDBRANCH   1  17
TORSDOF 6
