REMARK  Name = ZINC38740247
REMARK  4 active torsions:
REMARK  status: ('A' for Active; 'I' for Inactive)
REMARK    1  A    between atoms: C_13  and  C_15
REMARK    2  A    between atoms: C_21  and  C_23
REMARK    3  A    between atoms: C_28  and  C_31
REMARK    4  A    between atoms: C_28  and  O_38
REMARK                            x       y       z     vdW  Elec       q    Type
REMARK                         _______ _______ _______ _____ _____    ______ ____
ROOT
ATOM      1  C   UNL     1      -0.027  -6.645   1.148  0.00  0.00    +0.087 C 
ATOM      2  C   UNL     1      -0.798  -6.397  -0.150  0.00  0.00    +0.013 C 
ATOM      3  C   UNL     1      -2.102  -7.196  -0.130  0.00  0.00    +0.001 C 
ATOM      4  C   UNL     1      -1.785  -8.687  -0.002  0.00  0.00    +0.001 C 
ATOM      5  C   UNL     1      -1.014  -8.936   1.296  0.00  0.00    +0.013 C 
ATOM      6  C   UNL     1       0.290  -8.136   1.275  0.00  0.00    +0.087 C 
ENDROOT
BRANCH   1  19
ATOM      7  C   UNL     1       0.019   1.371   2.409  0.00  0.00    +0.005 A 
ATOM      8  C   UNL     1       1.228   2.052   2.378  0.00  0.00    +0.018 A 
ATOM      9  C   UNL     1       2.407   1.336   2.339  0.00  0.00    +0.084 A 
ATOM     10  N   UNL     1       2.397   0.016   2.329  0.00  0.00    -0.350 N 
ATOM     11  C   UNL     1       1.265  -0.670   2.357  0.00  0.00    +0.099 A 
ATOM     12  C   UNL     1       0.040  -0.012   2.398  0.00  0.00    +0.042 A 
ATOM     13  N   UNL     1       1.301  -2.059   2.346  0.00  0.00    -0.314 N 
ATOM     14  C   UNL     1       0.065  -2.841   2.489  0.00  0.00    +0.125 C 
ATOM     15  C   UNL     1      -0.052  -3.797   1.296  0.00  0.00    +0.126 C 
ATOM     16  N   UNL     1       1.223  -4.511   1.139  0.00  0.00    -0.298 N 
ATOM     17  C   UNL     1       2.459  -3.729   0.996  0.00  0.00    +0.126 C 
ATOM     18  C   UNL     1       2.575  -2.773   2.184  0.00  0.00    +0.125 C 
ATOM     19  C   UNL     1       1.258  -5.858   1.128  0.00  0.00    +0.219 C 
ATOM     20  O   UNL     1       2.323  -6.437   1.102  0.00  0.00    -0.275 OA
ATOM     21  H   UNL     1       3.240  -0.463   2.301  0.00  0.00    +0.166 HD
ENDBRANCH   1  19
BRANCH   6  22
ATOM     22  C   UNL     1       1.129  -8.573   0.102  0.00  0.00    +0.219 C 
ATOM     23  O   UNL     1       0.949  -8.078  -0.990  0.00  0.00    -0.275 OA
ATOM     24  N   UNL     1       2.079  -9.515   0.266  0.00  0.00    -0.301 N 
ATOM     25  C   UNL     1       2.224 -10.216   1.549  0.00  0.00    +0.111 C 
ATOM     26  C   UNL     1       3.676 -10.089   2.019  0.00  0.00    +0.058 C 
ATOM     27  C   UNL     1       4.611 -10.594   0.918  0.00  0.00    +0.094 C 
ATOM     28  C   UNL     1       4.433  -9.736  -0.338  0.00  0.00    +0.058 C 
ATOM     29  C   UNL     1       2.986  -9.864  -0.836  0.00  0.00    +0.111 C 
BRANCH  27  30
ATOM     30  C   UNL     1       6.039 -10.501   1.390  0.00  0.00    -0.016 A 
ATOM     31  C   UNL     1       6.406  -9.523   2.295  0.00  0.00    +0.008 A 
ATOM     32  C   UNL     1       7.716  -9.438   2.728  0.00  0.00    +0.020 A 
ATOM     33  C   UNL     1       8.660 -10.332   2.256  0.00  0.00    +0.041 A 
ATOM     34  C   UNL     1       8.292 -11.311   1.351  0.00  0.00    +0.020 A 
ATOM     35  C   UNL     1       6.981 -11.399   0.922  0.00  0.00    +0.008 A 
ATOM     36 CL   UNL     1      10.305 -10.225   2.800  0.00  0.00    -0.084 Cl
ENDBRANCH  27  30
BRANCH  27  37
ATOM     37  O   UNL     1       4.298 -11.954   0.614  0.00  0.00    -0.384 OA
ATOM     38  H   UNL     1       4.852 -12.341  -0.078  0.00  0.00    +0.211 HD
ENDBRANCH  27  37
ENDBRANCH   6  22
TORSDOF 4
