REMARK  Name = ZINC23936948
REMARK  8 active torsions:
REMARK  status: ('A' for Active; 'I' for Inactive)
REMARK    1  A    between atoms: C_3  and  C_6
REMARK    2  A    between atoms: C_9  and  C_27
REMARK    3  A    between atoms: C_12  and  C_14
REMARK    4  A    between atoms: C_14  and  S_15
REMARK    5  A    between atoms: S_15  and  C_16
REMARK    6  A    between atoms: C_17  and  C_25
REMARK    7  A    between atoms: C_19  and  C_23
REMARK    8  A    between atoms: C_20  and  N_22
REMARK                            x       y       z     vdW  Elec       q    Type
REMARK                         _______ _______ _______ _____ _____    ______ ____
ROOT
ATOM      1  C   UNL     1      -3.622  -3.748   0.017  0.00  0.00    +0.173 C 
ATOM      2  C   UNL     1      -5.163  -3.731   0.032  0.00  0.00    +0.090 C 
ATOM      3  C   UNL     1      -5.511  -2.260   0.044  0.00  0.00    +0.075 C 
ATOM      4  N   UNL     1      -4.426  -1.560   0.042  0.00  0.00    -0.180 NA
ATOM      5  N   UNL     1      -3.259  -2.322   0.021  0.00  0.00    -0.181 N 
ATOM      6  C   UNL     1      -2.004  -1.832   0.011  0.00  0.00    +0.246 C 
ATOM      7  O   UNL     1      -1.057  -2.591  -0.002  0.00  0.00    -0.273 OA
ENDROOT
BRANCH   1  10
ATOM      8  C   UNL     1      -2.195  -5.913   2.635  0.00  0.00    +0.041 A 
ATOM      9  C   UNL     1      -2.570  -5.676   1.293  0.00  0.00    +0.046 A 
ATOM     10  C   UNL     1      -3.086  -4.435   1.247  0.00  0.00    +0.128 A 
ATOM     11  O   UNL     1      -3.039  -3.909   2.482  0.00  0.00    -0.466 OA
ATOM     12  C   UNL     1      -2.505  -4.803   3.329  0.00  0.00    +0.195 A 
ENDBRANCH   1  10
BRANCH   3  13
ATOM     13  C   UNL     1      -6.872  -1.712   0.060  0.00  0.00    +0.035 A 
ATOM     14  C   UNL     1      -7.280  -0.390   0.077  0.00  0.00    +0.017 A 
ATOM     15  C   UNL     1      -8.629  -0.122   0.087  0.00  0.00    +0.008 A 
ATOM     16  C   UNL     1      -9.512  -1.155   0.090  0.00  0.00    +0.046 A 
ATOM     17  S   UNL     1      -8.433  -2.577   0.071  0.00  0.00    -0.095 S 
ENDBRANCH   3  13
BRANCH   6  18
ATOM     18  C   UNL     1      -1.776  -0.343   0.017  0.00  0.00    +0.173 C 
BRANCH  18  19
ATOM     19  S   UNL     1       0.002  -0.004   0.002  0.00  0.00    -0.095 S 
BRANCH  19  20
ATOM     20  C   UNL     1      -0.022   1.758   0.012  0.00  0.00    +0.117 A 
ATOM     21  C   UNL     1       1.194   2.471   0.004  0.00  0.00    +0.085 A 
ATOM     22  C   UNL     1       1.163   3.867   0.011  0.00  0.00    +0.043 A 
ATOM     23  C   UNL     1      -0.081   4.502   0.026  0.00  0.00    +0.092 A 
ATOM     24  C   UNL     1      -1.252   3.718   0.033  0.00  0.00    +0.135 A 
ATOM     25  N   UNL     1      -1.182   2.396   0.021  0.00  0.00    -0.224 NA
BRANCH  24  26
ATOM     26  N   UNL     1      -2.486   4.335   0.048  0.00  0.00    -0.342 N 
ATOM     27  H   UNL     1      -3.404   3.729   0.053  0.00  0.00    +0.144 HD
ATOM     28  H   UNL     1      -2.552   5.433   0.054  0.00  0.00    +0.144 HD
ENDBRANCH  24  26
BRANCH  23  29
ATOM     29  C   UNL     1      -0.166   5.932   0.034  0.00  0.00    +0.103 C 
ATOM     30  N   UNL     1      -0.233   7.066   0.040  0.00  0.00    -0.191 NA
ENDBRANCH  23  29
BRANCH  21  31
ATOM     31  C   UNL     1       2.445   1.773  -0.011  0.00  0.00    +0.102 C 
ATOM     32  N   UNL     1       3.436   1.219  -0.022  0.00  0.00    -0.191 NA
ENDBRANCH  21  31
ENDBRANCH  19  20
ENDBRANCH  18  19
ENDBRANCH   6  18
TORSDOF 8
