REMARK  Name = ZINC08477307
REMARK  8 active torsions:
REMARK  status: ('A' for Active; 'I' for Inactive)
REMARK    1  A    between atoms: C_1  and  C_2
REMARK    2  A    between atoms: C_2  and  O_3
REMARK    3  A    between atoms: O_3  and  C_4
REMARK    4  A    between atoms: C_4  and  C_6
REMARK    5  A    between atoms: C_10  and  N_11
REMARK    6  A    between atoms: C_12  and  C_14
REMARK    7  A    between atoms: C_14  and  N_15
REMARK    8  A    between atoms: N_15  and  C_16
REMARK                            x       y       z     vdW  Elec       q    Type
REMARK                         _______ _______ _______ _____ _____    ______ ____
ROOT
ATOM      1  N   UNL     1       1.139   2.192   0.003  0.00  0.00    -0.281 N 
ATOM      2  C   UNL     1      -0.018   1.503   0.010  0.00  0.00    +0.201 C 
ATOM      3  O   UNL     1      -1.077   2.095   0.018  0.00  0.00    -0.278 OA
ATOM      4  H   UNL     1       2.099   1.655  -0.009  0.00  0.00    +0.155 HD
ENDROOT
BRANCH   1   9
ATOM      5  C   UNL     1       2.194   4.454   0.011  0.00  0.00    +0.091 A 
ATOM      6  C   UNL     1       1.899   5.887   0.016  0.00  0.00    -0.021 A 
ATOM      7  C   UNL     1       0.591   6.200   0.030  0.00  0.00    -0.004 A 
ATOM      8  S   UNL     1      -0.249   4.636   0.030  0.00  0.00    -0.077 S 
ATOM      9  C   UNL     1       1.121   3.578   0.011  0.00  0.00    +0.086 A 
ATOM     10  C   UNL     1       0.367   7.688   0.037  0.00  0.00    +0.043 C 
ATOM     11  C   UNL     1       1.719   8.287  -0.411  0.00  0.00    +0.010 C 
ATOM     12  C   UNL     1       2.708   7.184   0.017  0.00  0.00    +0.037 C 
BRANCH   5  13
ATOM     13  C   UNL     1       3.574   3.964   0.001  0.00  0.00    +0.342 C 
ATOM     14  O   UNL     1       4.142   3.766  -1.056  0.00  0.00    -0.245 OA
BRANCH  13  15
ATOM     15  O   UNL     1       4.215   3.730   1.165  0.00  0.00    -0.461 OA
BRANCH  15  17
ATOM     16  C   UNL     1       6.138   3.041   2.490  0.00  0.00    +0.048 C 
ATOM     17  C   UNL     1       5.581   3.245   1.080  0.00  0.00    +0.229 C 
ENDBRANCH  15  17
ENDBRANCH  13  15
ENDBRANCH   5  13
ENDBRANCH   1   9
BRANCH   2  18
ATOM     18  C   UNL     1       0.002  -0.004   0.002  0.00  0.00    +0.016 C 
BRANCH  18  19
ATOM     19  N   UNL     1      -1.376  -0.512   0.012  0.00  0.00    +0.387 N 
ATOM     20  H   UNL     1      -1.891  -0.158   0.917  0.00  0.00    -0.085 HD
ATOM     21  H   UNL     1      -1.908  -0.148  -0.879  0.00  0.00    -0.085 HD
BRANCH  19  22
ATOM     22  C   UNL     1      -1.395  -1.981   0.005  0.00  0.00    -0.071 C 
ATOM     23  C   UNL     1      -1.290  -2.485  -1.436  0.00  0.00    -0.016 C 
ATOM     24  C   UNL     1      -1.310  -4.015  -1.444  0.00  0.00    -0.002 C 
ATOM     25  C   UNL     1      -2.618  -4.511  -0.825  0.00  0.00    -0.000 C 
ATOM     26  C   UNL     1      -2.724  -4.007   0.616  0.00  0.00    -0.002 C 
ATOM     27  C   UNL     1      -2.703  -2.478   0.624  0.00  0.00    -0.016 C 
ENDBRANCH  19  22
ENDBRANCH  18  19
ENDBRANCH   2  18
TORSDOF 7
