REMARK  Name = ZINC36648055
REMARK  11 active torsions:
REMARK  status: ('A' for Active; 'I' for Inactive)
REMARK    1  A    between atoms: C_1  and  C_2
REMARK    2  A    between atoms: C_2  and  N_3
REMARK    3  A    between atoms: N_3  and  C_4
REMARK    4  A    between atoms: N_3  and  C_6
REMARK    5  A    between atoms: C_4  and  C_5
REMARK    6  A    between atoms: C_6  and  C_7
REMARK    7  A    between atoms: C_7  and  N_8
REMARK    8  A    between atoms: C_12  and  C_18
REMARK    9  A    between atoms: C_19  and  C_21
REMARK   10  A    between atoms: N_27  and  S_28
REMARK   11  A    between atoms: S_28  and  C_31
REMARK                            x       y       z     vdW  Elec       q    Type
REMARK                         _______ _______ _______ _____ _____    ______ ____
ROOT
ATOM      1  N   UNL     1       2.596  -3.564  -0.603  0.00  0.00    -0.251 N 
ATOM      2  C   UNL     1       1.839  -4.351  -1.456  0.00  0.00    +0.168 A 
ATOM      3  N   UNL     1       1.931  -5.641  -1.684  0.00  0.00    -0.224 NA
ATOM      4  C   UNL     1       1.119  -6.284  -2.551  0.00  0.00    +0.083 A 
ATOM      5  C   UNL     1       1.112  -7.658  -2.886  0.00  0.00    -0.024 A 
ATOM      6  C   UNL     1       0.213  -8.153  -3.794  0.00  0.00    +0.005 A 
ATOM      7  C   UNL     1      -0.718  -7.331  -4.414  0.00  0.00    +0.001 A 
ATOM      8  C   UNL     1      -0.740  -5.983  -4.110  0.00  0.00    +0.017 A 
ATOM      9  C   UNL     1       0.157  -5.478  -3.202  0.00  0.00    +0.041 A 
ATOM     10  S   UNL     1       0.485  -3.871  -2.518  0.00  0.00    -0.052 S 
ATOM     11  C   UNL     1       2.105  -8.588  -2.238  0.00  0.00    +0.046 C 
ATOM     12  C   UNL     1       3.586  -4.118   0.124  0.00  0.00    +0.240 C 
ATOM     13  O   UNL     1       3.875  -5.285  -0.034  0.00  0.00    -0.273 OA
ENDROOT
BRANCH  12  14
ATOM     14  C   UNL     1       4.335  -3.287   1.135  0.00  0.00    +0.166 C 
ATOM     15  C   UNL     1       5.806  -3.179   0.722  0.00  0.00    +0.030 C 
ATOM     16  C   UNL     1       6.588  -2.454   1.820  0.00  0.00    +0.003 C 
ATOM     17  C   UNL     1       6.508  -3.257   3.120  0.00  0.00    +0.017 C 
ATOM     18  C   UNL     1       5.045  -3.366   3.560  0.00  0.00    +0.110 C 
ATOM     19  N   UNL     1       4.256  -3.928   2.454  0.00  0.00    -0.164 NA
BRANCH  19  20
ATOM     20  S   UNL     1       3.301  -5.260   2.690  0.00  0.00    +0.068 S 
ATOM     21  O   UNL     1       2.975  -5.286   4.073  0.00  0.00    -0.152 OA
ATOM     22  O   UNL     1       2.309  -5.234   1.673  0.00  0.00    -0.152 OA
BRANCH  20  23
ATOM     23  C   UNL     1       4.301  -6.679   2.382  0.00  0.00    +0.143 A 
ATOM     24  C   UNL     1       5.062  -7.391   3.248  0.00  0.00    +0.036 A 
ATOM     25  C   UNL     1       5.770  -8.481   2.778  0.00  0.00    +0.010 A 
ATOM     26  C   UNL     1       5.682  -8.806   1.465  0.00  0.00    +0.047 A 
ATOM     27  S   UNL     1       4.567  -7.555   0.850  0.00  0.00    -0.077 S 
ENDBRANCH  20  23
ENDBRANCH  19  20
ENDBRANCH  12  14
BRANCH   1  28
ATOM     28  C   UNL     1       2.321  -2.130  -0.493  0.00  0.00    +0.097 C 
BRANCH  28  29
ATOM     29  C   UNL     1       1.386  -1.880   0.692  0.00  0.00    -0.059 C 
BRANCH  29  30
ATOM     30  N   UNL     1       1.109  -0.441   0.803  0.00  0.00    +0.380 N 
ATOM     31  H   UNL     1       1.980   0.065   0.864  0.00  0.00    -0.082 HD
BRANCH  30  33
ATOM     32  C   UNL     1       0.199   1.527  -0.334  0.00  0.00    -0.017 C 
ATOM     33  C   UNL     1       0.364   0.007  -0.381  0.00  0.00    -0.082 C 
ENDBRANCH  30  33
BRANCH  30  34
ATOM     34  C   UNL     1       0.311  -0.188   2.010  0.00  0.00    -0.082 C 
ATOM     35  C   UNL     1       1.141  -0.521   3.251  0.00  0.00    -0.017 C 
ENDBRANCH  30  34
ENDBRANCH  29  30
ENDBRANCH  28  29
ENDBRANCH   1  28
TORSDOF 8
