REMARK  Name = ZINC50031416
REMARK  8 active torsions:
REMARK  status: ('A' for Active; 'I' for Inactive)
REMARK    1  A    between atoms: C_1  and  C_2
REMARK    2  A    between atoms: C_2  and  C_3
REMARK    3  A    between atoms: C_2  and  N_4
REMARK    4  A    between atoms: N_4  and  C_5
REMARK    5  A    between atoms: N_4  and  C_11
REMARK    6  A    between atoms: C_5  and  C_6
REMARK    7  A    between atoms: C_13  and  C_19
REMARK    8  A    between atoms: C_14  and  N_18
REMARK                            x       y       z     vdW  Elec       q    Type
REMARK                         _______ _______ _______ _____ _____    ______ ____
ROOT
ATOM      1  C   UNL     1      -2.211  -0.303   1.129  0.00  0.00    +0.067 A 
ATOM      2  C   UNL     1      -2.937   0.861   0.954  0.00  0.00    +0.041 A 
ATOM      3  C   UNL     1      -3.810   1.294   1.957  0.00  0.00    +0.059 A 
ATOM      4  C   UNL     1      -3.944   0.543   3.135  0.00  0.00    +0.040 A 
ATOM      5  C   UNL     1      -3.209  -0.624   3.297  0.00  0.00    +0.063 A 
ATOM      6  C   UNL     1      -2.352  -1.048   2.299  0.00  0.00    +0.146 A 
ATOM      7  F   UNL     1      -1.644  -2.187   2.460  0.00  0.00    -0.203 F 
ENDROOT
BRANCH   3   8
ATOM      8  C   UNL     1      -4.586   2.533   1.777  0.00  0.00    +0.243 C 
ATOM      9  O   UNL     1      -5.424   2.851   2.600  0.00  0.00    -0.270 OA
ATOM     10  N   UNL     1      -4.368   3.315   0.701  0.00  0.00    -0.325 N 
ATOM     11  H   UNL     1      -3.700   3.062   0.045  0.00  0.00    +0.145 HD
ATOM     12  H   UNL     1      -4.879   4.131   0.583  0.00  0.00    +0.145 HD
ENDBRANCH   3   8
BRANCH   4  13
ATOM     13  N   UNL     1      -4.811   0.966   4.138  0.00  0.00    -0.357 N 
ATOM     14  H   UNL     1      -5.382   1.736   3.992  0.00  0.00    +0.142 HD
ATOM     15  H   UNL     1      -4.843   0.491   4.983  0.00  0.00    +0.142 HD
ENDBRANCH   4  13
BRANCH   1  16
ATOM     16  N   UNL     1      -1.336  -0.738   0.124  0.00  0.00    -0.320 N 
BRANCH  16  18
ATOM     17  C   UNL     1       0.125   1.222   0.042  0.00  0.00    +0.027 C 
ATOM     18  C   UNL     1       0.063  -0.304   0.134  0.00  0.00    +0.068 C 
ATOM     19  C   UNL     1       0.731  -0.764   1.431  0.00  0.00    +0.027 C 
ENDBRANCH  16  18
BRANCH  16  20
ATOM     20  C   UNL     1      -1.820  -1.626  -0.935  0.00  0.00    +0.147 C 
BRANCH  20  21
ATOM     21  C   UNL     1      -1.641  -3.061  -0.508  0.00  0.00    +0.007 A 
ATOM     22  C   UNL     1      -2.503  -3.866   0.160  0.00  0.00    +0.013 A 
ATOM     23  C   UNL     1      -2.122  -5.163   0.448  0.00  0.00    +0.008 A 
ATOM     24  C   UNL     1      -0.898  -5.592   0.052  0.00  0.00    +0.045 A 
ATOM     25  S   UNL     1      -0.243  -4.142  -0.759  0.00  0.00    -0.100 S 
ENDBRANCH  20  21
ENDBRANCH  16  20
ENDBRANCH   1  16
TORSDOF 6
