REMARK  Name = ZINC63532970
REMARK  7 active torsions:
REMARK  status: ('A' for Active; 'I' for Inactive)
REMARK    1  A    between atoms: C_1  and  O_2
REMARK    2  A    between atoms: O_2  and  C_3
REMARK    3  A    between atoms: C_6  and  C_9
REMARK    4  A    between atoms: C_12  and  C_16
REMARK    5  A    between atoms: N_18  and  C_19
REMARK    6  A    between atoms: C_19  and  C_20
REMARK    7  A    between atoms: C_20  and  C_21
REMARK                            x       y       z     vdW  Elec       q    Type
REMARK                         _______ _______ _______ _____ _____    ______ ____
ROOT
ATOM      1  C   UNL     1       0.920  -5.287  -6.307  0.00  0.00    +0.244 C 
ATOM      2  O   UNL     1       0.663  -6.302  -5.694  0.00  0.00    -0.273 OA
ATOM      3  N   UNL     1       0.223  -4.975  -7.417  0.00  0.00    -0.313 N 
ATOM      4  H   UNL     1       0.429  -4.163  -7.907  0.00  0.00    +0.149 HD
ENDROOT
BRANCH   1   7
ATOM      5  C   UNL     1       2.505  -2.503  -4.381  0.00  0.00    +0.114 C 
ATOM      6  C   UNL     1       1.445  -3.003  -5.390  0.00  0.00    +0.069 C 
ATOM      7  C   UNL     1       2.020  -4.375  -5.826  0.00  0.00    +0.229 C 
ATOM      8  O   UNL     1       2.609  -4.876  -4.604  0.00  0.00    -0.286 OA
ATOM      9  N   UNL     1       3.225  -3.716  -3.938  0.00  0.00    -0.193 NA
ATOM     10  H   UNL     1       4.208  -3.652  -4.155  0.00  0.00    +0.155 HD
BRANCH   5  14
ATOM     11  C   UNL     1       0.606  -0.607  -1.056  0.00  0.00    +0.120 A 
ATOM     12  C   UNL     1       1.173   0.161  -2.062  0.00  0.00    +0.046 A 
ATOM     13  C   UNL     1       1.786  -0.455  -3.136  0.00  0.00    +0.009 A 
ATOM     14  C   UNL     1       1.835  -1.835  -3.209  0.00  0.00    -0.028 A 
ATOM     15  C   UNL     1       1.270  -2.602  -2.207  0.00  0.00    +0.009 A 
ATOM     16  C   UNL     1       0.661  -1.992  -1.128  0.00  0.00    +0.046 A 
BRANCH  11  18
ATOM     17  C   UNL     1      -0.017   1.425   0.010  0.00  0.00    +0.277 C 
ATOM     18  O   UNL     1       0.002  -0.004   0.002  0.00  0.00    -0.495 OA
ENDBRANCH  11  18
ENDBRANCH   5  14
ENDBRANCH   1   7
BRANCH   3  19
ATOM     19  C   UNL     1      -0.846  -5.861  -7.884  0.00  0.00    +0.108 C 
BRANCH  19  20
ATOM     20  C   UNL     1      -1.472  -5.280  -9.153  0.00  0.00    +0.052 C 
BRANCH  20  21
ATOM     21  C   UNL     1      -2.572  -6.192  -9.633  0.00  0.00    -0.040 C 
ATOM     22  C   UNL     1      -3.894  -6.080  -9.370  0.00  0.00    +0.000 A 
ATOM     23  C   UNL     1      -4.673  -5.114  -8.587  0.00  0.00    +0.030 A 
ATOM     24  C   UNL     1      -6.016  -5.267  -8.504  0.00  0.00    +0.042 A 
ATOM     25  C   UNL     1      -6.678  -6.324  -9.146  0.00  0.00    +0.022 A 
ATOM     26  C   UNL     1      -6.030  -7.250  -9.883  0.00  0.00    +0.027 A 
ATOM     27  C   UNL     1      -4.617  -7.186 -10.038  0.00  0.00    +0.043 A 
ATOM     28  N   UNL     1      -3.775  -7.951 -10.689  0.00  0.00    -0.380 N 
ATOM     29  C   UNL     1      -2.421  -7.413 -10.513  0.00  0.00    +0.144 C 
ATOM     30 CL   UNL     1      -6.941  -4.127  -7.579  0.00  0.00    -0.084 Cl
ATOM     31  H   UNL     1      -4.008  -8.739 -11.205  0.00  0.00    +0.160 HD
ENDBRANCH  20  21
ENDBRANCH  19  20
ENDBRANCH   3  19
TORSDOF 6
