REMARK  Name = ZINC35808793
REMARK  11 active torsions:
REMARK  status: ('A' for Active; 'I' for Inactive)
REMARK    1  A    between atoms: C_1  and  C_2
REMARK    2  A    between atoms: C_12  and  C_22
REMARK    3  A    between atoms: C_15  and  C_18
REMARK    4  A    between atoms: C_18  and  C_19
REMARK    5  A    between atoms: C_19  and  C_20
REMARK    6  A    between atoms: C_19  and  C_21
REMARK    7  A    between atoms: N_24  and  C_25
REMARK    8  A    between atoms: C_27  and  O_33
REMARK    9  A    between atoms: C_30  and  O_31
REMARK   10  A    between atoms: O_31  and  C_32
REMARK   11  A    between atoms: O_33  and  C_34
REMARK                            x       y       z     vdW  Elec       q    Type
REMARK                         _______ _______ _______ _____ _____    ______ ____
ROOT
ATOM      1  C   UNL     1       0.393   1.153  -0.469  0.00  0.00    +0.046 C 
ATOM      2  C   UNL     1       0.437  -0.350  -0.370  0.00  0.00    -0.028 A 
ATOM      3  C   UNL     1       0.587  -1.111  -1.511  0.00  0.00    +0.025 A 
ATOM      4  C   UNL     1       0.628  -2.492  -1.431  0.00  0.00    +0.042 A 
ATOM      5  C   UNL     1       0.520  -3.113  -0.197  0.00  0.00    +0.024 A 
ATOM      6  C   UNL     1       0.371  -2.356   0.943  0.00  0.00    -0.026 A 
ATOM      7  C   UNL     1       0.332  -0.967   0.874  0.00  0.00    +0.039 A 
ATOM      8  N   UNL     1       0.181  -0.425   2.152  0.00  0.00    -0.286 N 
ATOM      9  C   UNL     1       0.120  -1.375   3.104  0.00  0.00    +0.211 C 
ATOM     10  O   UNL     1      -0.009  -1.196   4.296  0.00  0.00    -0.277 OA
ATOM     11  C   UNL     1       0.230  -2.703   2.401  0.00  0.00    +0.049 C 
ATOM     12  C   UNL     1      -1.012  -3.570   2.643  0.00  0.00    +0.076 C 
ATOM     13  C   UNL     1      -0.468  -4.873   3.278  0.00  0.00    -0.004 C 
ATOM     14  C   UNL     1       1.016  -4.884   2.830  0.00  0.00    -0.069 C 
ATOM     15  N   UNL     1       1.402  -3.449   2.885  0.00  0.00    +0.394 N 
ATOM     16 CL   UNL     1       0.815  -3.443  -2.871  0.00  0.00    -0.084 Cl
ATOM     17  H   UNL     1       0.128   0.527   2.333  0.00  0.00    +0.155 HD
ATOM     18  H   UNL     1       2.196  -3.279   2.286  0.00  0.00    -0.083 HD
ATOM     19  H   UNL     1       1.617  -3.183   3.835  0.00  0.00    -0.083 HD
ENDROOT
BRANCH  12  20
ATOM     20  C   UNL     1      -1.958  -2.877   3.591  0.00  0.00    +0.220 C 
ATOM     21  O   UNL     1      -1.917  -3.125   4.777  0.00  0.00    -0.275 OA
ATOM     22  N   UNL     1      -2.849  -1.983   3.119  0.00  0.00    -0.282 N 
ATOM     23  H   UNL     1      -2.926  -1.833   2.164  0.00  0.00    +0.155 HD
BRANCH  22  24
ATOM     24  C   UNL     1      -3.665  -1.271   4.008  0.00  0.00    +0.079 A 
ATOM     25  C   UNL     1      -3.972  -1.808   5.250  0.00  0.00    +0.072 A 
ATOM     26  C   UNL     1      -4.779  -1.101   6.128  0.00  0.00    +0.122 A 
ATOM     27  C   UNL     1      -5.280   0.141   5.765  0.00  0.00    +0.049 A 
ATOM     28  C   UNL     1      -4.975   0.677   4.528  0.00  0.00    +0.051 A 
ATOM     29  C   UNL     1      -4.164  -0.022   3.649  0.00  0.00    +0.141 A 
BRANCH  29  30
ATOM     30  O   UNL     1      -3.860   0.509   2.434  0.00  0.00    -0.493 OA
ATOM     31  C   UNL     1      -4.406   1.795   2.133  0.00  0.00    +0.277 C 
ENDBRANCH  29  30
BRANCH  26  32
ATOM     32  O   UNL     1      -5.082  -1.626   7.345  0.00  0.00    -0.495 OA
ATOM     33  C   UNL     1      -5.919  -0.844   8.199  0.00  0.00    +0.277 C 
ENDBRANCH  26  32
ENDBRANCH  22  24
ENDBRANCH  12  20
BRANCH  14  34
ATOM     34  C   UNL     1       1.865  -5.713   3.796  0.00  0.00    -0.013 C 
BRANCH  34  35
ATOM     35  C   UNL     1       1.433  -7.179   3.725  0.00  0.00    -0.019 C 
ATOM     36  C   UNL     1       1.759  -7.740   2.339  0.00  0.00    +0.007 C 
ATOM     37  C   UNL     1       2.182  -7.983   4.790  0.00  0.00    +0.007 C 
ENDBRANCH  34  35
ENDBRANCH  14  34
TORSDOF 6
