REMARK  Name = ZINC12635579
REMARK  13 active torsions:
REMARK  status: ('A' for Active; 'I' for Inactive)
REMARK    1  A    between atoms: C_1  and  C_2
REMARK    2  A    between atoms: C_2  and  N_70
REMARK    3  A    between atoms: C_6  and  C_8
REMARK    4  A    between atoms: C_8  and  N_9
REMARK    5  A    between atoms: N_9  and  C_10
REMARK    6  A    between atoms: N_9  and  C_25
REMARK    7  A    between atoms: C_10  and  C_11
REMARK    8  A    between atoms: C_16  and  C_24
REMARK    9  A    between atoms: C_17  and  C_23
REMARK   10  A    between atoms: C_25  and  N_27
REMARK   11  A    between atoms: N_27  and  C_28
REMARK   12  A    between atoms: C_30  and  C_35
REMARK   13  A    between atoms: C_33  and  C_34
REMARK                            x       y       z     vdW  Elec       q    Type
REMARK                         _______ _______ _______ _____ _____    ______ ____
ROOT
ATOM      1  N   UNL     1      -3.194   0.348  -1.452  0.00  0.00    -0.309 N 
ENDROOT
BRANCH   1   2
ATOM      2  C   UNL     1      -2.687  -0.736  -2.073  0.00  0.00    +0.137 C 
ATOM      3  S   UNL     1      -2.303  -2.139  -1.169  0.00  0.00    -0.018 S 
BRANCH   2   4
ATOM      4  N   UNL     1      -2.481  -0.715  -3.405  0.00  0.00    -0.297 N 
ATOM      5  H   UNL     1      -2.625   0.103  -3.905  0.00  0.00    +0.154 HD
BRANCH   4   6
ATOM      6  C   UNL     1      -2.061  -1.874  -4.065  0.00  0.00    +0.036 A 
ATOM      7  C   UNL     1      -1.070  -2.673  -3.508  0.00  0.00    +0.027 A 
ATOM      8  C   UNL     1      -0.657  -3.816  -4.163  0.00  0.00    -0.049 A 
ATOM      9  C   UNL     1      -1.229  -4.167  -5.373  0.00  0.00    +0.004 A 
ATOM     10  C   UNL     1      -2.215  -3.374  -5.930  0.00  0.00    +0.005 A 
ATOM     11  C   UNL     1      -2.637  -2.232  -5.277  0.00  0.00    -0.029 A 
ATOM     12  C   UNL     1      -3.716  -1.372  -5.883  0.00  0.00    +0.045 C 
ATOM     13  C   UNL     1       0.417  -4.684  -3.559  0.00  0.00    +0.044 C 
ENDBRANCH   4   6
ENDBRANCH   2   4
ENDBRANCH   1   2
BRANCH   1  14
ATOM     14  C   UNL     1      -3.620   1.509  -2.237  0.00  0.00    +0.092 C 
BRANCH  14  18
ATOM     15  C   UNL     1      -1.235   4.146  -1.387  0.00  0.00    -0.078 C 
ATOM     16  C   UNL     1      -1.674   4.673  -2.769  0.00  0.00    -0.020 C 
ATOM     17  C   UNL     1      -2.866   3.749  -3.133  0.00  0.00    -0.016 C 
ATOM     18  C   UNL     1      -2.409   2.397  -2.532  0.00  0.00    -0.051 C 
ATOM     19  N   UNL     1      -1.734   2.766  -1.272  0.00  0.00    +0.382 N 
ATOM     20  H   UNL     1      -2.405   2.710  -0.497  0.00  0.00    -0.081 HD
BRANCH  19  22
ATOM     21  C   UNL     1       0.139   2.290   0.252  0.00  0.00    -0.017 C 
ATOM     22  C   UNL     1      -0.606   1.835  -1.004  0.00  0.00    -0.082 C 
ENDBRANCH  19  22
ENDBRANCH  14  18
ENDBRANCH   1  14
BRANCH   1  23
ATOM     23  C   UNL     1      -3.320   0.364   0.007  0.00  0.00    +0.147 C 
BRANCH  23  24
ATOM     24  C   UNL     1      -4.681  -0.150   0.400  0.00  0.00    +0.035 A 
ATOM     25  C   UNL     1      -4.843  -1.459   0.717  0.00  0.00    +0.020 A 
ATOM     26  C   UNL     1      -6.179  -1.928   1.088  0.00  0.00    -0.001 A 
ATOM     27  C   UNL     1      -6.410  -3.268   1.418  0.00  0.00    +0.010 A 
ATOM     28  C   UNL     1      -7.668  -3.673   1.761  0.00  0.00    +0.004 A 
ATOM     29  C   UNL     1      -8.721  -2.768   1.784  0.00  0.00    -0.046 A 
ATOM     30  C   UNL     1      -8.517  -1.444   1.462  0.00  0.00    -0.024 A 
ATOM     31  C   UNL     1      -7.244  -1.007   1.110  0.00  0.00    +0.052 A 
ATOM     32  N   UNL     1      -7.011   0.312   0.783  0.00  0.00    -0.322 N 
ATOM     33  H   UNL     1      -7.746   0.945   0.800  0.00  0.00    +0.169 HD
ATOM     34  C   UNL     1      -5.780   0.733   0.443  0.00  0.00    +0.254 A 
ATOM     35  O   UNL     1      -5.612   1.907   0.160  0.00  0.00    -0.268 OA
ATOM     36  C   UNL     1      -9.668  -0.472   1.492  0.00  0.00    +0.046 C 
ATOM     37  C   UNL     1     -10.101  -3.239   2.165  0.00  0.00    +0.044 C 
ENDBRANCH  23  24
ENDBRANCH   1  23
TORSDOF 8
