REMARK  Name = ZINC40824414
REMARK  8 active torsions:
REMARK  status: ('A' for Active; 'I' for Inactive)
REMARK    1  A    between atoms: C_1  and  C_2
REMARK    2  A    between atoms: C_6  and  C_7
REMARK    3  A    between atoms: N_9  and  C_10
REMARK    4  A    between atoms: C_12  and  C_18
REMARK    5  A    between atoms: C_12  and  C_19
REMARK    6  A    between atoms: C_14  and  C_16
REMARK    7  A    between atoms: C_14  and  C_17
REMARK    8  A    between atoms: N_24  and  N_25
REMARK                            x       y       z     vdW  Elec       q    Type
REMARK                         _______ _______ _______ _____ _____    ______ ____
ROOT
ATOM      1  C   UNL     1       0.029   2.035   0.693  0.00  0.00    +0.048 C 
ATOM      2  C   UNL     1       0.098   0.535   0.571  0.00  0.00    +0.009 A 
ATOM      3  C   UNL     1       0.175  -0.210  -0.612  0.00  0.00    +0.042 A 
ATOM      4  C   UNL     1       0.218  -1.538  -0.262  0.00  0.00    +0.115 A 
ATOM      5  O   UNL     1       0.173  -1.615   1.066  0.00  0.00    -0.454 OA
ATOM      6  C   UNL     1       0.104  -0.372   1.594  0.00  0.00    +0.193 A 
ATOM      7  C   UNL     1       0.298  -2.651  -1.276  0.00  0.00    +0.075 C 
ATOM      8  C   UNL     1      -0.185  -2.138  -2.635  0.00  0.00    +0.014 C 
ATOM      9  C   UNL     1       0.566  -0.862  -3.029  0.00  0.00    +0.058 C 
ATOM     10  C   UNL     1       0.214   0.227  -2.026  0.00  0.00    +0.070 C 
ATOM     11  N   UNL     1      -0.035   1.448  -2.385  0.00  0.00    -0.183 NA
ENDROOT
BRANCH  11  12
ATOM     12  N   UNL     1       0.015   1.805  -3.738  0.00  0.00    -0.191 N 
ATOM     13  C   UNL     1      -0.243   3.075  -4.111  0.00  0.00    +0.317 C 
ATOM     14  O   UNL     1      -0.199   3.385  -5.286  0.00  0.00    -0.251 OA
ATOM     15  N   UNL     1      -0.551   4.000  -3.180  0.00  0.00    -0.312 N 
ATOM     16  H   UNL     1       0.237   1.139  -4.408  0.00  0.00    +0.179 HD
ATOM     17  H   UNL     1      -0.586   3.753  -2.243  0.00  0.00    +0.147 HD
ATOM     18  H   UNL     1      -0.737   4.914  -3.448  0.00  0.00    +0.147 HD
ENDBRANCH  11  12
BRANCH   6  19
ATOM     19  C   UNL     1       0.044  -0.051   3.024  0.00  0.00    +0.280 C 
ATOM     20  O   UNL     1      -0.018   1.110   3.385  0.00  0.00    -0.267 OA
ATOM     21  N   UNL     1       0.057  -1.041   3.939  0.00  0.00    -0.306 N 
ATOM     22  H   UNL     1       0.107  -1.966   3.651  0.00  0.00    +0.149 HD
BRANCH  21  23
ATOM     23  C   UNL     1      -0.003  -0.719   5.370  0.00  0.00    +0.071 C 
ATOM     24  C   UNL     1      -1.467  -0.592   5.795  0.00  0.00    +0.009 C 
ATOM     25  C   UNL     1      -1.547  -0.269   7.286  0.00  0.00    -0.072 C 
ATOM     26  N   UNL     1      -0.813  -1.230   8.096  0.00  0.00    +0.386 N 
ATOM     27  C   UNL     1       0.529  -1.588   7.667  0.00  0.00    -0.072 C 
ATOM     28  C   UNL     1       0.631  -1.857   6.169  0.00  0.00    +0.009 C 
ATOM     29  C   UNL     1       0.915  -2.898   8.395  0.00  0.00    -0.010 C 
ATOM     30  C   UNL     1       1.556  -0.530   8.079  0.00  0.00    -0.010 C 
ATOM     31  C   UNL     1      -3.036  -0.355   7.695  0.00  0.00    -0.010 C 
ATOM     32  C   UNL     1      -1.090   1.167   7.542  0.00  0.00    -0.010 C 
ATOM     33  H   UNL     1      -0.761  -0.871   9.052  0.00  0.00    -0.084 HD
ATOM     34  H   UNL     1      -1.370  -2.086   8.160  0.00  0.00    -0.084 HD
ENDBRANCH  21  23
ENDBRANCH   6  19
TORSDOF 3
