REMARK  Name = ZINC39964766
REMARK  8 active torsions:
REMARK  status: ('A' for Active; 'I' for Inactive)
REMARK    1  A    between atoms: C_1  and  C_2
REMARK    2  A    between atoms: C_7  and  C_12
REMARK    3  A    between atoms: C_12  and  C_33
REMARK    4  A    between atoms: C_13  and  C_14
REMARK    5  A    between atoms: C_17  and  O_21
REMARK    6  A    between atoms: O_21  and  C_22
REMARK    7  A    between atoms: C_22  and  C_23
REMARK    8  A    between atoms: C_26  and  C_29
REMARK                            x       y       z     vdW  Elec       q    Type
REMARK                         _______ _______ _______ _____ _____    ______ ____
ROOT
ATOM      1  C   UNL     1       0.296  -6.906   2.829  0.00  0.00    -0.021 A 
ATOM      2  C   UNL     1       1.427  -6.102   2.645  0.00  0.00    +0.031 A 
ATOM      3  C   UNL     1       2.680  -6.606   2.920  0.00  0.00    +0.085 A 
ATOM      4  C   UNL     1       2.822  -7.910   3.381  0.00  0.00    +0.157 A 
ATOM      5  C   UNL     1       1.702  -8.712   3.566  0.00  0.00    +0.085 A 
ATOM      6  C   UNL     1       0.444  -8.216   3.298  0.00  0.00    +0.031 A 
ATOM      7 CL   UNL     1       1.887 -10.340   4.140  0.00  0.00    -0.080 Cl
ATOM      8 CL   UNL     1       4.083  -5.609   2.691  0.00  0.00    -0.080 Cl
ENDROOT
BRANCH   1  10
ATOM      9  C   UNL     1      -1.229  -5.558   1.478  0.00  0.00    +0.072 C 
ATOM     10  C   UNL     1      -1.043  -6.374   2.537  0.00  0.00    +0.026 C 
BRANCH   9  17
ATOM     11  C   UNL     1       0.335  -0.465  -3.044  0.00  0.00    +0.044 C 
ATOM     12  C   UNL     1       0.077  -1.842  -2.489  0.00  0.00    -0.048 A 
ATOM     13  C   UNL     1      -0.475  -2.819  -3.337  0.00  0.00    +0.005 A 
ATOM     14  C   UNL     1      -0.738  -4.075  -2.923  0.00  0.00    +0.027 A 
ATOM     15  C   UNL     1      -0.443  -4.458  -1.536  0.00  0.00    +0.060 A 
ATOM     16  N   UNL     1      -0.589  -5.570  -0.875  0.00  0.00    -0.359 N 
ATOM     17  C   UNL     1      -0.110  -5.335   0.493  0.00  0.00    +0.216 C 
ATOM     18  N   UNL     1       0.335  -3.937   0.542  0.00  0.00    -0.359 N 
ATOM     19  C   UNL     1       0.142  -3.424  -0.639  0.00  0.00    +0.061 A 
ATOM     20  C   UNL     1       0.390  -2.090  -1.202  0.00  0.00    +0.030 A 
ATOM     21  H   UNL     1      -0.949  -6.401  -1.222  0.00  0.00    +0.162 HD
ATOM     22  H   UNL     1       0.705  -3.479   1.313  0.00  0.00    +0.162 HD
ENDBRANCH   9  17
BRANCH   9  23
ATOM     23  C   UNL     1      -2.489  -4.904   1.291  0.00  0.00    +0.099 C 
ATOM     24  N   UNL     1      -3.488  -4.385   1.142  0.00  0.00    -0.191 NA
ENDBRANCH   9  23
ENDBRANCH   1  10
BRANCH   4  25
ATOM     25  O   UNL     1       4.059  -8.401   3.650  0.00  0.00    -0.484 OA
BRANCH  25  26
ATOM     26  C   UNL     1       4.552  -8.223   4.980  0.00  0.00    +0.264 C 
BRANCH  26  27
ATOM     27  C   UNL     1       5.928  -8.828   5.090  0.00  0.00    -0.010 A 
ATOM     28  C   UNL     1       6.069 -10.155   5.457  0.00  0.00    +0.008 A 
ATOM     29  C   UNL     1       7.325 -10.715   5.560  0.00  0.00    +0.015 A 
ATOM     30  C   UNL     1       8.457  -9.940   5.294  0.00  0.00    +0.063 A 
ATOM     31  C   UNL     1       8.306  -8.601   4.924  0.00  0.00    +0.015 A 
ATOM     32  C   UNL     1       7.044  -8.055   4.819  0.00  0.00    +0.008 A 
BRANCH  30  33
ATOM     33  C   UNL     1       9.804 -10.531   5.403  0.00  0.00    +0.387 C 
ATOM     34  O   UNL     1       9.932 -11.704   5.727  0.00  0.00    -0.241 OA
ATOM     35  O   UNL     1      10.792  -9.850   5.169  0.00  0.00    -0.241 OA
ENDBRANCH  30  33
ENDBRANCH  26  27
ENDBRANCH  25  26
ENDBRANCH   4  25
TORSDOF 7
