REMARK  Name = ZINC35665262
REMARK  13 active torsions:
REMARK  status: ('A' for Active; 'I' for Inactive)
REMARK    1  A    between atoms: C_1  and  C_2
REMARK    2  A    between atoms: C_2  and  O_3
REMARK    3  A    between atoms: O_3  and  C_4
REMARK    4  A    between atoms: C_4  and  C_6
REMARK    5  A    between atoms: C_7  and  C_25
REMARK    6  A    between atoms: N_8  and  C_22
REMARK    7  A    between atoms: C_12  and  C_14
REMARK    8  A    between atoms: C_17  and  O_20
REMARK    9  A    between atoms: O_20  and  C_21
REMARK   10  A    between atoms: C_22  and  C_23
REMARK   11  A    between atoms: C_25  and  N_26
REMARK   12  A    between atoms: C_32  and  C_34
REMARK   13  A    between atoms: C_37  and  C_40
REMARK                            x       y       z     vdW  Elec       q    Type
REMARK                         _______ _______ _______ _____ _____    ______ ____
ROOT
ATOM      1  C   UNL     1      -1.920  -2.117   0.031  0.00  0.00    +0.080 C 
ATOM      2  C   UNL     1      -2.259  -3.397  -0.231  0.00  0.00    +0.041 C 
ATOM      3  N   UNL     1      -3.560  -3.753  -0.442  0.00  0.00    -0.254 N 
ATOM      4  C   UNL     1      -4.581  -2.888  -0.407  0.00  0.00    +0.307 C 
ATOM      5  O   UNL     1      -5.707  -3.299  -0.607  0.00  0.00    -0.252 OA
ATOM      6  N   UNL     1      -4.401  -1.576  -0.157  0.00  0.00    -0.288 N 
ATOM      7  C   UNL     1      -3.033  -1.091   0.090  0.00  0.00    +0.144 C 
ATOM      8  H   UNL     1      -5.155  -0.966  -0.137  0.00  0.00    +0.151 HD
ENDROOT
BRANCH   7   9
ATOM      9  C   UNL     1      -3.001  -0.449   1.453  0.00  0.00    -0.022 A 
ATOM     10  C   UNL     1      -3.559  -1.101   2.537  0.00  0.00    +0.009 A 
ATOM     11  C   UNL     1      -3.532  -0.515   3.787  0.00  0.00    +0.046 A 
ATOM     12  C   UNL     1      -2.944   0.730   3.955  0.00  0.00    +0.120 A 
ATOM     13  C   UNL     1      -2.385   1.383   2.866  0.00  0.00    +0.046 A 
ATOM     14  C   UNL     1      -2.410   0.790   1.619  0.00  0.00    +0.009 A 
BRANCH  12  15
ATOM     15  O   UNL     1      -2.916   1.310   5.184  0.00  0.00    -0.495 OA
ATOM     16  C   UNL     1      -2.295   2.593   5.283  0.00  0.00    +0.277 C 
ENDBRANCH  12  15
ENDBRANCH   7   9
BRANCH   1  17
ATOM     17  C   UNL     1      -0.572  -1.747   0.250  0.00  0.00    +0.339 C 
ATOM     18  O   UNL     1      -0.180  -1.516   1.378  0.00  0.00    -0.245 OA
BRANCH  17  19
ATOM     19  O   UNL     1       0.279  -1.651  -0.793  0.00  0.00    -0.462 OA
BRANCH  19  21
ATOM     20  C   UNL     1       2.434  -1.217  -1.797  0.00  0.00    +0.048 C 
ATOM     21  C   UNL     1       1.625  -1.273  -0.499  0.00  0.00    +0.229 C 
ENDBRANCH  19  21
ENDBRANCH  17  19
ENDBRANCH   1  17
BRANCH   3  22
ATOM     22  C   UNL     1      -3.856  -5.160  -0.721  0.00  0.00    +0.141 C 
BRANCH  22  23
ATOM     23  C   UNL     1      -4.115  -5.886   0.574  0.00  0.00    -0.015 C 
ATOM     24  C   UNL     1      -5.232  -6.551   0.740  0.00  0.00    +0.005 C 
ENDBRANCH  22  23
ENDBRANCH   3  22
BRANCH   2  25
ATOM     25  C   UNL     1      -1.183  -4.451  -0.293  0.00  0.00    +0.136 C 
BRANCH  25  26
ATOM     26  N   UNL     1      -1.345  -5.383   0.830  0.00  0.00    -0.294 NA
ATOM     27  C   UNL     1      -1.109  -4.708   2.113  0.00  0.00    +0.104 C 
ATOM     28  C   UNL     1      -1.463  -5.661   3.260  0.00  0.00    +0.123 C 
ATOM     29  N   UNL     1      -0.719  -6.916   3.072  0.00  0.00    -0.295 N 
ATOM     30  C   UNL     1      -0.797  -7.581   1.762  0.00  0.00    +0.123 C 
ATOM     31  C   UNL     1      -0.470  -6.553   0.674  0.00  0.00    +0.104 C 
ATOM     32  C   UNL     1       0.013  -7.442   4.073  0.00  0.00    +0.247 C 
ATOM     33  O   UNL     1       0.698  -8.427   3.872  0.00  0.00    -0.270 OA
BRANCH  32  34
ATOM     34  C   UNL     1      -0.015  -6.823   5.415  0.00  0.00    +0.037 A 
ATOM     35  C   UNL     1      -1.181  -6.214   5.881  0.00  0.00    +0.013 A 
ATOM     36  C   UNL     1      -1.201  -5.638   7.135  0.00  0.00    +0.004 A 
ATOM     37  C   UNL     1      -0.068  -5.663   7.929  0.00  0.00    -0.050 A 
ATOM     38  C   UNL     1       1.091  -6.265   7.472  0.00  0.00    +0.004 A 
ATOM     39  C   UNL     1       1.123  -6.850   6.223  0.00  0.00    +0.013 A 
ATOM     40  C   UNL     1      -0.097  -5.032   9.297  0.00  0.00    +0.044 C 
ENDBRANCH  32  34
ENDBRANCH  25  26
ENDBRANCH   2  25
TORSDOF 10
