REMARK  Name = ZINC39672110
REMARK  4 active torsions:
REMARK  status: ('A' for Active; 'I' for Inactive)
REMARK    1  A    between atoms: C_6  and  C_10
REMARK    2  A    between atoms: C_10  and  N_11
REMARK    3  A    between atoms: C_12  and  C_14
REMARK    4  A    between atoms: C_25  and  C_27
REMARK                            x       y       z     vdW  Elec       q    Type
REMARK                         _______ _______ _______ _____ _____    ______ ____
ROOT
ATOM      1  C   UNL     1       4.615  -5.543   2.959  0.00  0.00    +0.100 C 
ATOM      2  C   UNL     1       5.558  -4.616   3.758  0.00  0.00    +0.121 C 
ATOM      3  N   UNL     1       6.341  -5.532   4.621  0.00  0.00    -0.296 N 
ATOM      4  C   UNL     1       6.617  -6.705   3.759  0.00  0.00    +0.115 C 
ATOM      5  C   UNL     1       5.314  -6.913   2.961  0.00  0.00    -0.004 C 
ATOM      6  C   UNL     1       5.633  -7.346   1.534  0.00  0.00    -0.010 C 
ATOM      7  C   UNL     1       6.274  -8.736   1.557  0.00  0.00    -0.082 C 
ATOM      8  N   UNL     1       5.353  -9.691   2.184  0.00  0.00    +0.379 N 
ATOM      9  C   UNL     1       5.124  -9.319   3.586  0.00  0.00    -0.082 C 
ATOM     10  C   UNL     1       4.434  -7.954   3.648  0.00  0.00    -0.010 C 
ATOM     11  C   UNL     1       6.717  -5.340   5.901  0.00  0.00    +0.252 C 
ATOM     12  O   UNL     1       7.363  -6.193   6.479  0.00  0.00    -0.270 OA
ATOM     13  H   UNL     1       4.474  -9.684   1.688  0.00  0.00    -0.086 HD
ATOM     14  H   UNL     1       5.751 -10.617   2.144  0.00  0.00    -0.086 HD
ENDROOT
BRANCH  11  15
ATOM     15  C   UNL     1       6.345  -4.096   6.602  0.00  0.00    +0.108 A 
ATOM     16  C   UNL     1       5.145  -4.025   7.319  0.00  0.00    +0.138 A 
ATOM     17  C   UNL     1       4.804  -2.856   7.973  0.00  0.00    +0.041 A 
ATOM     18  C   UNL     1       5.644  -1.758   7.919  0.00  0.00    +0.026 A 
ATOM     19  C   UNL     1       6.832  -1.820   7.213  0.00  0.00    +0.077 A 
ATOM     20  C   UNL     1       7.191  -2.984   6.557  0.00  0.00    +0.156 A 
ATOM     21  F   UNL     1       8.354  -3.045   5.872  0.00  0.00    -0.203 F 
ATOM     22 CL   UNL     1       7.877  -0.435   7.153  0.00  0.00    -0.081 Cl
ATOM     23  F   UNL     1       4.323  -5.095   7.372  0.00  0.00    -0.205 F 
ENDBRANCH  11  15
BRANCH   1  25
ATOM     24  N   UNL     1       3.318  -5.290   0.868  0.00  0.00    -0.309 N 
ATOM     25  C   UNL     1       4.454  -5.038   1.549  0.00  0.00    +0.219 C 
ATOM     26  O   UNL     1       5.347  -4.405   1.025  0.00  0.00    -0.275 OA
ATOM     27  H   UNL     1       2.604  -5.796   1.287  0.00  0.00    +0.149 HD
BRANCH  24  28
ATOM     28  C   UNL     1       3.162  -4.799  -0.503  0.00  0.00    +0.161 C 
BRANCH  28  34
ATOM     29  C   UNL     1      -1.870  -7.106  -2.807  0.00  0.00    +0.005 A 
ATOM     30  C   UNL     1      -2.405  -5.864  -2.426  0.00  0.00    +0.018 A 
ATOM     31  C   UNL     1      -1.623  -4.940  -1.829  0.00  0.00    +0.092 A 
ATOM     32  N   UNL     1      -0.304  -5.197  -1.588  0.00  0.00    -0.306 N 
ATOM     33  C   UNL     1       0.693  -4.457  -1.012  0.00  0.00    +0.117 A 
ATOM     34  C   UNL     1       1.813  -5.212  -1.034  0.00  0.00    +0.077 A 
ATOM     35  N   UNL     1       1.526  -6.385  -1.603  0.00  0.00    -0.231 NA
ATOM     36  C   UNL     1       0.246  -6.400  -1.948  0.00  0.00    +0.138 A 
ATOM     37  C   UNL     1      -0.558  -7.375  -2.572  0.00  0.00    +0.047 A 
ENDBRANCH  28  34
ENDBRANCH  24  28
ENDBRANCH   1  25
TORSDOF 4
