REMARK  Name = ZINC59018632
REMARK  8 active torsions:
REMARK  status: ('A' for Active; 'I' for Inactive)
REMARK    1  A    between atoms: C_3  and  O_31
REMARK    2  A    between atoms: C_4  and  C_8
REMARK    3  A    between atoms: N_9  and  N_10
REMARK    4  A    between atoms: C_13  and  S_16
REMARK    5  A    between atoms: S_16  and  C_17
REMARK    6  A    between atoms: C_17  and  C_18
REMARK    7  A    between atoms: N_20  and  C_21
REMARK    8  A    between atoms: C_22  and  C_29
REMARK                            x       y       z     vdW  Elec       q    Type
REMARK                         _______ _______ _______ _____ _____    ______ ____
ROOT
ATOM      1  N   UNL     1       6.030  -0.707  -0.060  0.00  0.00    -0.205 N 
ATOM      2  C   UNL     1       7.217   0.001  -0.069  0.00  0.00    +0.232 A 
ATOM      3  N   UNL     1       7.336   1.313  -0.057  0.00  0.00    -0.186 NA
ATOM      4  C   UNL     1       8.631   1.647  -0.069  0.00  0.00    +0.211 A 
ATOM      5  N   UNL     1       9.354   0.552  -0.089  0.00  0.00    -0.144 NA
ATOM      6  N   UNL     1       8.459  -0.530  -0.084  0.00  0.00    -0.245 N 
ATOM      7  H   UNL     1       6.044  -1.677  -0.066  0.00  0.00    +0.177 HD
ATOM      8  H   UNL     1       8.687  -1.472  -0.091  0.00  0.00    +0.192 HD
ENDROOT
BRANCH   1  10
ATOM      9  C   UNL     1       3.692  -0.690  -0.037  0.00  0.00    +0.142 C 
ATOM     10  N   UNL     1       4.807  -0.024  -0.045  0.00  0.00    -0.187 NA
BRANCH   9  14
ATOM     11  C   UNL     1      -0.017   1.381   0.010  0.00  0.00    +0.023 A 
ATOM     12  C   UNL     1       1.167   2.096   0.002  0.00  0.00    +0.047 A 
ATOM     13  C   UNL     1       2.381   1.430  -0.013  0.00  0.00    +0.126 A 
ATOM     14  C   UNL     1       2.405   0.029  -0.021  0.00  0.00    +0.037 A 
ATOM     15  C   UNL     1       1.204  -0.683  -0.013  0.00  0.00    +0.033 A 
ATOM     16  C   UNL     1       0.002  -0.004   0.002  0.00  0.00    +0.042 A 
ATOM     17 CL   UNL     1      -1.491  -0.889   0.012  0.00  0.00    -0.084 Cl
BRANCH  13  18
ATOM     18  O   UNL     1       3.543   2.132  -0.021  0.00  0.00    -0.506 OA
ATOM     19  H   UNL     1       3.889   2.332   0.860  0.00  0.00    +0.292 HD
ENDBRANCH  13  18
ENDBRANCH   9  14
ENDBRANCH   1  10
BRANCH   4  20
ATOM     20  S   UNL     1       9.264   3.291  -0.061  0.00  0.00    -0.075 S 
BRANCH  20  21
ATOM     21  C   UNL     1      11.064   3.069  -0.085  0.00  0.00    +0.173 C 
BRANCH  21  22
ATOM     22  C   UNL     1      11.737   4.417  -0.080  0.00  0.00    +0.228 C 
ATOM     23  O   UNL     1      11.068   5.429  -0.062  0.00  0.00    -0.275 OA
ATOM     24  N   UNL     1      13.082   4.499  -0.095  0.00  0.00    -0.278 N 
ATOM     25  H   UNL     1      13.617   3.690  -0.109  0.00  0.00    +0.155 HD
BRANCH  24  26
ATOM     26  C   UNL     1      13.702   5.741  -0.091  0.00  0.00    +0.090 A 
ATOM     27  C   UNL     1      15.056   6.015  -0.110  0.00  0.00    +0.084 A 
ATOM     28  C   UNL     1      15.456   7.421  -0.100  0.00  0.00    -0.018 A 
ATOM     29  C   UNL     1      14.424   8.284  -0.071  0.00  0.00    -0.004 A 
ATOM     30  S   UNL     1      12.979   7.254  -0.068  0.00  0.00    -0.077 S 
ATOM     31  C   UNL     1      14.891   9.715  -0.057  0.00  0.00    +0.043 C 
ATOM     32  C   UNL     1      16.379   9.636   0.351  0.00  0.00    +0.010 C 
ATOM     33  C   UNL     1      16.759   8.217  -0.116  0.00  0.00    +0.037 C 
BRANCH  27  34
ATOM     34  C   UNL     1      16.028   4.964  -0.138  0.00  0.00    +0.102 C 
ATOM     35  N   UNL     1      16.799   4.130  -0.160  0.00  0.00    -0.191 NA
ENDBRANCH  27  34
ENDBRANCH  24  26
ENDBRANCH  21  22
ENDBRANCH  20  21
ENDBRANCH   4  20
TORSDOF 8
