REMARK  Name = ZINC40530301
REMARK  8 active torsions:
REMARK  status: ('A' for Active; 'I' for Inactive)
REMARK    1  A    between atoms: C_1  and  O_2
REMARK    2  A    between atoms: O_2  and  C_3
REMARK    3  A    between atoms: C_8  and  C_9
REMARK    4  A    between atoms: C_14  and  O_23
REMARK    5  A    between atoms: C_18  and  N_22
REMARK    6  A    between atoms: C_19  and  C_20
REMARK    7  A    between atoms: O_23  and  C_24
REMARK    8  A    between atoms: C_24  and  C_26
REMARK                            x       y       z     vdW  Elec       q    Type
REMARK                         _______ _______ _______ _____ _____    ______ ____
ROOT
ATOM      1  C   UNL     1      -0.021  -2.872  -0.040  0.00  0.00    +0.101 C 
ATOM      2  C   UNL     1       0.045  -3.728   1.197  0.00  0.00    +0.008 A 
ATOM      3  C   UNL     1       0.469  -3.169   2.389  0.00  0.00    +0.012 A 
ATOM      4  C   UNL     1       0.537  -3.939   3.533  0.00  0.00    +0.047 A 
ATOM      5  C   UNL     1       0.178  -5.279   3.490  0.00  0.00    +0.135 A 
ATOM      6  C   UNL     1      -0.248  -5.842   2.297  0.00  0.00    +0.093 A 
ATOM      7  C   UNL     1      -0.315  -5.065   1.147  0.00  0.00    +0.138 A 
ATOM      8  O   UNL     1      -0.734  -5.631  -0.012  0.00  0.00    -0.441 OA
ATOM      9  C   UNL     1      -0.449  -5.043  -1.185  0.00  0.00    +0.199 C 
ATOM     10  C   UNL     1      -0.105  -3.738  -1.265  0.00  0.00    +0.098 C 
ENDROOT
BRANCH   1  16
ATOM     11  C   UNL     1      -1.098  -0.608   0.014  0.00  0.00    +0.124 A 
ATOM     12  C   UNL     1      -2.222   0.204   0.073  0.00  0.00    +0.046 A 
ATOM     13  C   UNL     1      -3.479  -0.364   0.153  0.00  0.00    +0.004 A 
ATOM     14  C   UNL     1      -3.617  -1.740   0.173  0.00  0.00    +0.001 A 
ATOM     15  C   UNL     1      -2.499  -2.550   0.115  0.00  0.00    +0.008 A 
ATOM     16  C   UNL     1      -1.240  -1.987   0.030  0.00  0.00    +0.007 A 
BRANCH  11  18
ATOM     17  C   UNL     1       0.210   1.376  -0.076  0.00  0.00    +0.277 C 
ATOM     18  O   UNL     1       0.140  -0.051  -0.064  0.00  0.00    -0.495 OA
ENDBRANCH  11  18
ENDBRANCH   1  16
BRANCH   9  19
ATOM     19  N   UNL     1      -0.509  -5.788  -2.336  0.00  0.00    -0.328 N 
ATOM     20  H   UNL     1      -0.755  -6.726  -2.294  0.00  0.00    +0.145 HD
ATOM     21  H   UNL     1      -0.306  -5.378  -3.191  0.00  0.00    +0.145 HD
ENDBRANCH   9  19
BRANCH  10  22
ATOM     22  C   UNL     1       0.186  -3.171  -2.547  0.00  0.00    +0.101 C 
ATOM     23  N   UNL     1       0.417  -2.721  -3.564  0.00  0.00    -0.191 NA
ENDBRANCH  10  22
BRANCH   5  24
ATOM     24  O   UNL     1       0.243  -6.039   4.615  0.00  0.00    -0.422 OA
BRANCH  24  25
ATOM     25  C   UNL     1       1.188  -7.000   4.676  0.00  0.00    +0.353 C 
ATOM     26  O   UNL     1       2.014  -7.097   3.789  0.00  0.00    -0.244 OA
BRANCH  25  27
ATOM     27  C   UNL     1       1.219  -7.926   5.813  0.00  0.00    +0.116 A 
ATOM     28  C   UNL     1       2.089  -8.946   6.052  0.00  0.00    +0.070 A 
ATOM     29  C   UNL     1       1.948  -9.728   7.214  0.00  0.00    +0.008 A 
ATOM     30  C   UNL     1       2.744 -10.824   7.637  0.00  0.00    +0.010 A 
ATOM     31  C   UNL     1       2.469 -11.477   8.795  0.00  0.00    +0.001 A 
ATOM     32  C   UNL     1       1.405 -11.102   9.607  0.00  0.00    +0.001 A 
ATOM     33  C   UNL     1       0.605 -10.042   9.234  0.00  0.00    +0.016 A 
ATOM     34  C   UNL     1       0.872  -9.369   8.060  0.00  0.00    +0.022 A 
ATOM     35  S   UNL     1       0.131  -7.989   7.225  0.00  0.00    -0.080 S 
ATOM     36 CL   UNL     1       3.368  -9.281   4.928  0.00  0.00    -0.082 Cl
ENDBRANCH  25  27
ENDBRANCH  24  25
ENDBRANCH   5  24
TORSDOF 7
