REMARK  Name = ZINC36022556
REMARK  6 active torsions:
REMARK  status: ('A' for Active; 'I' for Inactive)
REMARK    1  A    between atoms: C_1  and  C_2
REMARK    2  A    between atoms: C_2  and  C_3
REMARK    3  A    between atoms: C_3  and  C_5
REMARK    4  A    between atoms: C_3  and  C_11
REMARK    5  A    between atoms: N_13  and  N_14
REMARK    6  A    between atoms: C_15  and  C_17
REMARK                            x       y       z     vdW  Elec       q    Type
REMARK                         _______ _______ _______ _____ _____    ______ ____
ROOT
ATOM      1  C   UNL     1      -2.040  -0.353  -1.360  0.00  0.00    +0.236 C 
ATOM      2  O   UNL     1      -2.442  -1.266  -2.050  0.00  0.00    -0.274 OA
ATOM      3  N   UNL     1      -2.166   0.920  -1.786  0.00  0.00    -0.234 N 
ATOM      4  H   UNL     1      -1.903   1.653  -1.208  0.00  0.00    +0.173 HD
ENDROOT
BRANCH   3   5
ATOM      5  N   UNL     1      -2.676   1.183  -3.064  0.00  0.00    -0.230 N 
ATOM      6  C   UNL     1      -2.802   2.456  -3.490  0.00  0.00    +0.261 C 
ATOM      7  O   UNL     1      -2.473   3.375  -2.766  0.00  0.00    -0.269 OA
ATOM      8  H   UNL     1      -2.939   0.450  -3.642  0.00  0.00    +0.173 HD
BRANCH   6   9
ATOM      9  C   UNL     1      -3.340   2.734  -4.838  0.00  0.00    +0.052 A 
ATOM     10  C   UNL     1      -3.724   1.681  -5.671  0.00  0.00    +0.014 A 
ATOM     11  C   UNL     1      -4.226   1.948  -6.928  0.00  0.00    +0.001 A 
ATOM     12  C   UNL     1      -4.349   3.255  -7.365  0.00  0.00    +0.001 A 
ATOM     13  C   UNL     1      -3.970   4.303  -6.546  0.00  0.00    +0.016 A 
ATOM     14  C   UNL     1      -3.471   4.051  -5.283  0.00  0.00    +0.030 A 
ATOM     15 BR   UNL     1      -2.961   5.486  -4.162  0.00  0.00    -0.050 Br
ENDBRANCH   6   9
ENDBRANCH   3   5
BRANCH   1  16
ATOM     16  C   UNL     1      -1.401  -0.641  -0.026  0.00  0.00    +0.106 C 
BRANCH  16  17
ATOM     17  C   UNL     1      -1.347  -2.131   0.193  0.00  0.00    -0.035 A 
ATOM     18  C   UNL     1      -0.647  -2.934  -0.688  0.00  0.00    +0.004 A 
ATOM     19  C   UNL     1      -0.597  -4.301  -0.487  0.00  0.00    +0.000 A 
ATOM     20  C   UNL     1      -1.246  -4.864   0.596  0.00  0.00    +0.000 A 
ATOM     21  C   UNL     1      -1.945  -4.061   1.477  0.00  0.00    +0.000 A 
ATOM     22  C   UNL     1      -1.992  -2.694   1.278  0.00  0.00    +0.004 A 
ENDBRANCH  16  17
BRANCH  16  24
ATOM     23  C   UNL     1       0.615  -0.236   1.392  0.00  0.00    +0.005 C 
ATOM     24  C   UNL     1       0.018  -0.070  -0.007  0.00  0.00    +0.014 C 
ENDBRANCH  16  24
ENDBRANCH   1  16
TORSDOF 5
