REMARK  Name = ZINC16662869
REMARK  7 active torsions:
REMARK  status: ('A' for Active; 'I' for Inactive)
REMARK    1  A    between atoms: N_9  and  C_29
REMARK    2  A    between atoms: C_10  and  S_12
REMARK    3  A    between atoms: S_12  and  C_13
REMARK    4  A    between atoms: C_13  and  C_14
REMARK    5  A    between atoms: N_16  and  C_17
REMARK    6  A    between atoms: C_18  and  C_26
REMARK    7  A    between atoms: C_29  and  C_30
REMARK                            x       y       z     vdW  Elec       q    Type
REMARK                         _______ _______ _______ _____ _____    ______ ____
ROOT
ATOM      1  C   UNL     1      -1.331   2.079   0.020  0.00  0.00    +0.173 C 
ENDROOT
BRANCH   1   2
ATOM      2  C   UNL     1      -0.016   1.344   0.009  0.00  0.00    +0.228 C 
ATOM      3  O   UNL     1       1.026   1.964   0.003  0.00  0.00    -0.275 OA
ATOM      4  N   UNL     1       0.002  -0.004   0.002  0.00  0.00    -0.279 N 
ATOM      5  H   UNL     1      -0.831  -0.500   0.007  0.00  0.00    +0.155 HD
BRANCH   4   6
ATOM      6  C   UNL     1       1.212  -0.681  -0.013  0.00  0.00    +0.084 A 
ATOM      7  C   UNL     1       1.434  -2.051  -0.017  0.00  0.00    +0.068 A 
ATOM      8  C   UNL     1       2.813  -2.508  -0.037  0.00  0.00    -0.023 A 
ATOM      9  C   UNL     1       3.743  -1.529  -0.041  0.00  0.00    -0.004 A 
ATOM     10  S   UNL     1       2.814  -0.022  -0.024  0.00  0.00    -0.077 S 
ATOM     11  C   UNL     1       5.231  -1.697  -0.054  0.00  0.00    +0.043 C 
ATOM     12  C   UNL     1       5.557  -3.152   0.314  0.00  0.00    +0.005 C 
ATOM     13  C   UNL     1       4.671  -4.082  -0.519  0.00  0.00    +0.005 C 
ATOM     14  C   UNL     1       3.219  -3.976  -0.049  0.00  0.00    +0.037 C 
BRANCH   7  15
ATOM     15  C   UNL     1       0.318  -3.002  -0.005  0.00  0.00    +0.244 C 
ATOM     16  O   UNL     1      -0.157  -3.396  -1.054  0.00  0.00    -0.270 OA
ATOM     17  N   UNL     1      -0.182  -3.439   1.168  0.00  0.00    -0.325 N 
ATOM     18  H   UNL     1       0.197  -3.125   2.004  0.00  0.00    +0.145 HD
ATOM     19  H   UNL     1      -0.920  -4.069   1.176  0.00  0.00    +0.145 HD
ENDBRANCH   7  15
ENDBRANCH   4   6
ENDBRANCH   1   2
BRANCH   1  20
ATOM     20  S   UNL     1      -1.025   3.863   0.028  0.00  0.00    -0.078 S 
BRANCH  20  30
ATOM     21  C   UNL     1      -7.588   4.830   0.061  0.00  0.00    +0.001 A 
ATOM     22  C   UNL     1      -7.290   3.474   0.053  0.00  0.00    +0.002 A 
ATOM     23  C   UNL     1      -5.995   3.039   0.045  0.00  0.00    +0.028 A 
ATOM     24  C   UNL     1      -4.952   3.971   0.046  0.00  0.00    +0.079 A 
ATOM     25  C   UNL     1      -5.260   5.350   0.055  0.00  0.00    +0.065 A 
ATOM     26  C   UNL     1      -6.591   5.766   0.063  0.00  0.00    +0.015 A 
ATOM     27  C   UNL     1      -4.147   6.310   0.056  0.00  0.00    +0.263 A 
ATOM     28  O   UNL     1      -4.348   7.510   0.063  0.00  0.00    -0.267 OA
ATOM     29  N   UNL     1      -2.890   5.808   0.047  0.00  0.00    -0.280 N 
ATOM     30  C   UNL     1      -2.683   4.458   0.039  0.00  0.00    +0.173 A 
ATOM     31  N   UNL     1      -3.660   3.586   0.034  0.00  0.00    -0.223 NA
BRANCH  29  32
ATOM     32  C   UNL     1      -1.743   6.720   0.047  0.00  0.00    +0.201 C 
BRANCH  32  33
ATOM     33  C   UNL     1      -1.357   7.040  -1.374  0.00  0.00    +0.125 A 
ATOM     34  C   UNL     1      -1.838   8.059  -2.110  0.00  0.00    +0.046 A 
ATOM     35  C   UNL     1      -1.206   7.986  -3.372  0.00  0.00    +0.041 A 
ATOM     36  C   UNL     1      -0.382   6.924  -3.335  0.00  0.00    +0.195 A 
ATOM     37  O   UNL     1      -0.478   6.354  -2.123  0.00  0.00    -0.466 OA
ENDBRANCH  32  33
ENDBRANCH  29  32
ENDBRANCH  20  30
ENDBRANCH   1  20
TORSDOF 7
