REMARK  Name = ZINC15942663
REMARK  8 active torsions:
REMARK  status: ('A' for Active; 'I' for Inactive)
REMARK    1  A    between atoms: C_1  and  C_2
REMARK    2  A    between atoms: C_5  and  C_8
REMARK    3  A    between atoms: C_8  and  N_9
REMARK    4  A    between atoms: C_12  and  C_15
REMARK    5  A    between atoms: C_15  and  N_16
REMARK    6  A    between atoms: N_16  and  S_17
REMARK    7  A    between atoms: S_17  and  C_20
REMARK    8  A    between atoms: C_23  and  C_25
REMARK                            x       y       z     vdW  Elec       q    Type
REMARK                         _______ _______ _______ _____ _____    ______ ____
ROOT
ATOM      1  N   UNL     1       5.229  -8.165   0.857  0.00  0.00    -0.189 NA
ATOM      2  H   UNL     1       4.468  -8.705   1.122  0.00  0.00    +0.148 HD
ENDROOT
BRANCH   1   3
ATOM      3  S   UNL     1       6.631  -8.895   0.363  0.00  0.00    +0.065 S 
ATOM      4  O   UNL     1       6.416 -10.296   0.463  0.00  0.00    -0.153 OA
ATOM      5  O   UNL     1       7.009  -8.267  -0.854  0.00  0.00    -0.153 OA
BRANCH   3   6
ATOM      6  C   UNL     1       7.873  -8.491   1.546  0.00  0.00    +0.143 A 
ATOM      7  C   UNL     1       8.228  -9.158   2.674  0.00  0.00    +0.037 A 
ATOM      8  C   UNL     1       9.240  -8.655   3.461  0.00  0.00    +0.020 A 
ATOM      9  C   UNL     1       9.857  -7.494   3.078  0.00  0.00    +0.041 A 
ATOM     10  S   UNL     1       8.995  -7.102   1.564  0.00  0.00    -0.067 S 
BRANCH   9  11
ATOM     11  C   UNL     1      10.954  -6.760   3.742  0.00  0.00    +0.098 A 
ATOM     12  C   UNL     1      11.447  -5.561   3.172  0.00  0.00    +0.036 A 
ATOM     13  C   UNL     1      12.460  -4.912   3.813  0.00  0.00    +0.073 A 
ATOM     14  C   UNL     1      12.957  -5.477   5.009  0.00  0.00    +0.265 A 
ATOM     15  O   UNL     1      13.863  -4.930   5.617  0.00  0.00    -0.266 OA
ATOM     16  N   UNL     1      12.424  -6.622   5.473  0.00  0.00    -0.243 N 
ATOM     17  H   UNL     1      12.770  -7.004   6.295  0.00  0.00    +0.192 HD
ATOM     18  N   UNL     1      11.466  -7.220   4.862  0.00  0.00    -0.170 NA
ENDBRANCH   9  11
ENDBRANCH   3   6
ENDBRANCH   1   3
BRANCH   1  19
ATOM     19  C   UNL     1       5.138  -6.703   0.894  0.00  0.00    +0.109 C 
BRANCH  19  23
ATOM     20  N   UNL     1       1.451  -4.747  -0.032  0.00  0.00    +0.382 N 
ATOM     21  C   UNL     1       2.110  -4.349   1.218  0.00  0.00    -0.078 C 
ATOM     22  C   UNL     1       3.582  -4.767   1.178  0.00  0.00    -0.014 C 
ATOM     23  C   UNL     1       3.671  -6.287   1.014  0.00  0.00    +0.001 C 
ATOM     24  C   UNL     1       2.916  -6.699  -0.253  0.00  0.00    -0.014 C 
ATOM     25  C   UNL     1       1.469  -6.209  -0.161  0.00  0.00    -0.078 C 
ATOM     26  H   UNL     1       1.938  -4.335  -0.813  0.00  0.00    -0.081 HD
BRANCH  20  27
ATOM     27  C   UNL     1       0.059  -4.275  -0.021  0.00  0.00    -0.043 C 
BRANCH  27  32
ATOM     28  C   UNL     1      -0.018   1.503   0.010  0.00  0.00    +0.044 C 
ATOM     29  C   UNL     1       0.002  -0.004   0.002  0.00  0.00    -0.050 A 
ATOM     30  C   UNL     1       0.006  -0.689  -1.199  0.00  0.00    +0.003 A 
ATOM     31  C   UNL     1       0.025  -2.071  -1.206  0.00  0.00    +0.002 A 
ATOM     32  C   UNL     1       0.040  -2.768  -0.013  0.00  0.00    -0.064 A 
ATOM     33  C   UNL     1       0.037  -2.084   1.188  0.00  0.00    +0.002 A 
ATOM     34  C   UNL     1       0.023  -0.702   1.195  0.00  0.00    +0.003 A 
ENDBRANCH  27  32
ENDBRANCH  20  27
ENDBRANCH  19  23
ENDBRANCH   1  19
TORSDOF 7
