REMARK  Name = ZINC36579418
REMARK  16 active torsions:
REMARK  status: ('A' for Active; 'I' for Inactive)
REMARK    1  A    between atoms: C_1  and  C_2
REMARK    2  A    between atoms: C_2  and  C_3
REMARK    3  A    between atoms: C_2  and  C_4
REMARK    4  A    between atoms: C_2  and  N_5
REMARK    5  A    between atoms: C_6  and  C_8
REMARK    6  A    between atoms: C_8  and  C_10
REMARK    7  A    between atoms: C_8  and  N_17
REMARK    8  A    between atoms: C_13  and  O_16
REMARK    9  A    between atoms: N_17  and  C_36
REMARK   10  A    between atoms: C_18  and  C_20
REMARK   11  A    between atoms: C_26  and  O_28
REMARK   12  A    between atoms: O_28  and  C_29
REMARK   13  A    between atoms: C_29  and  C_30
REMARK   14  A    between atoms: C_36  and  C_37
REMARK   15  A    between atoms: C_36  and  C_38
REMARK   16  A    between atoms: C_36  and  C_39
REMARK                            x       y       z     vdW  Elec       q    Type
REMARK                         _______ _______ _______ _____ _____    ______ ____
ROOT
ATOM      1  N   UNL     1       4.298  -0.773  -2.825  0.00  0.00    -0.279 N 
ATOM      2  C   UNL     1       5.011  -1.899  -3.027  0.00  0.00    +0.238 C 
ATOM      3  O   UNL     1       4.654  -2.942  -2.522  0.00  0.00    -0.274 OA
ENDROOT
BRANCH   2   4
ATOM      4  C   UNL     1       6.253  -1.861  -3.880  0.00  0.00    +0.165 C 
ATOM      5  C   UNL     1       7.506  -1.997  -2.990  0.00  0.00    +0.033 C 
ATOM      6  C   UNL     1       8.443  -2.893  -3.842  0.00  0.00    +0.021 C 
ATOM      7  C   UNL     1       7.428  -3.843  -4.525  0.00  0.00    +0.112 C 
ATOM      8  N   UNL     1       6.252  -2.997  -4.814  0.00  0.00    -0.256 N 
ATOM      9  C   UNL     1       5.331  -3.225  -5.771  0.00  0.00    +0.404 C 
ATOM     10  O   UNL     1       4.401  -2.457  -5.916  0.00  0.00    -0.226 OA
BRANCH   9  11
ATOM     11  O   UNL     1       5.442  -4.306  -6.567  0.00  0.00    -0.445 OA
BRANCH  11  12
ATOM     12  C   UNL     1       4.430  -4.486  -7.560  0.00  0.00    +0.269 C 
BRANCH  12  13
ATOM     13  C   UNL     1       4.718  -5.738  -8.349  0.00  0.00    -0.010 A 
ATOM     14  C   UNL     1       5.504  -5.674  -9.484  0.00  0.00    +0.007 A 
ATOM     15  C   UNL     1       5.768  -6.822 -10.208  0.00  0.00    +0.000 A 
ATOM     16  C   UNL     1       5.247  -8.034  -9.795  0.00  0.00    +0.000 A 
ATOM     17  C   UNL     1       4.462  -8.098  -8.659  0.00  0.00    +0.000 A 
ATOM     18  C   UNL     1       4.201  -6.951  -7.933  0.00  0.00    +0.007 A 
ENDBRANCH  12  13
ENDBRANCH  11  12
ENDBRANCH   9  11
ENDBRANCH   2   4
BRANCH   1  19
ATOM     19  C   UNL     1       4.775   0.503  -3.364  0.00  0.00    +0.030 C 
ATOM     20  C   UNL     1       3.982   1.651  -2.737  0.00  0.00    +0.031 C 
ATOM     21  C   UNL     1       6.260   0.671  -3.037  0.00  0.00    +0.031 C 
ATOM     22  C   UNL     1       4.582   0.520  -4.882  0.00  0.00    +0.031 C 
ENDBRANCH   1  19
BRANCH   1  23
ATOM     23  C   UNL     1       3.046  -0.825  -2.067  0.00  0.00    +0.193 C 
BRANCH  23  24
ATOM     24  C   UNL     1       3.335  -1.238  -0.647  0.00  0.00    -0.018 A 
ATOM     25  C   UNL     1       4.580  -1.739  -0.314  0.00  0.00    +0.009 A 
ATOM     26  C   UNL     1       4.848  -2.118   0.987  0.00  0.00    +0.046 A 
ATOM     27  C   UNL     1       3.866  -1.996   1.960  0.00  0.00    +0.117 A 
ATOM     28  C   UNL     1       2.618  -1.494   1.623  0.00  0.00    +0.046 A 
ATOM     29  C   UNL     1       2.357  -1.110   0.322  0.00  0.00    +0.009 A 
BRANCH  27  30
ATOM     30  O   UNL     1       4.127  -2.370   3.240  0.00  0.00    -0.507 OA
ATOM     31  H   UNL     1       4.483  -1.660   3.792  0.00  0.00    +0.292 HD
ENDBRANCH  27  30
ENDBRANCH  23  24
BRANCH  23  33
ATOM     32  N   UNL     1       0.916  -2.082  -2.142  0.00  0.00    -0.309 N 
ATOM     33  C   UNL     1       2.116  -1.827  -2.702  0.00  0.00    +0.239 C 
ATOM     34  O   UNL     1       2.446  -2.403  -3.716  0.00  0.00    -0.273 OA
ATOM     35  H   UNL     1       0.652  -1.621  -1.330  0.00  0.00    +0.149 HD
BRANCH  32  37
ATOM     36  C   UNL     1       0.695  -4.424  -2.811  0.00  0.00    +0.031 C 
ATOM     37  C   UNL     1       0.012  -3.056  -2.759  0.00  0.00    +0.026 C 
ATOM     38  C   UNL     1      -0.332  -2.603  -4.179  0.00  0.00    +0.031 C 
ATOM     39  C   UNL     1      -1.270  -3.157  -1.931  0.00  0.00    +0.031 C 
ENDBRANCH  32  37
ENDBRANCH  23  33
ENDBRANCH   1  23
TORSDOF 10
