REMARK  Name = ZINC39627627
REMARK  11 active torsions:
REMARK  status: ('A' for Active; 'I' for Inactive)
REMARK    1  A    between atoms: C_1  and  N_2
REMARK    2  A    between atoms: N_2  and  C_3
REMARK    3  A    between atoms: N_2  and  C_4
REMARK    4  A    between atoms: C_4  and  C_5
REMARK    5  A    between atoms: C_5  and  C_6
REMARK    6  A    between atoms: C_6  and  N_7
REMARK    7  A    between atoms: C_8  and  C_10
REMARK    8  A    between atoms: C_21  and  C_23
REMARK    9  A    between atoms: C_29  and  O_31
REMARK   10  A    between atoms: O_31  and  C_32
REMARK   11  A    between atoms: C_32  and  C_33
REMARK                            x       y       z     vdW  Elec       q    Type
REMARK                         _______ _______ _______ _____ _____    ______ ____
ROOT
ATOM      1  C   UNL     1      -6.158  -0.218  -4.011  0.00  0.00    +0.100 C 
ATOM      2  C   UNL     1      -5.385  -0.764  -5.232  0.00  0.00    +0.121 C 
ATOM      3  N   UNL     1      -6.056  -2.044  -5.558  0.00  0.00    -0.300 N 
ATOM      4  C   UNL     1      -7.498  -1.767  -5.352  0.00  0.00    +0.115 C 
ATOM      5  C   UNL     1      -7.546  -0.876  -4.095  0.00  0.00    -0.004 C 
ATOM      6  C   UNL     1      -8.627   0.190  -4.244  0.00  0.00    -0.010 C 
ATOM      7  C   UNL     1     -10.002  -0.484  -4.267  0.00  0.00    -0.082 C 
ATOM      8  N   UNL     1     -10.199  -1.241  -3.025  0.00  0.00    +0.379 N 
ATOM      9  C   UNL     1      -9.212  -2.323  -2.935  0.00  0.00    -0.082 C 
ATOM     10  C   UNL     1      -7.804  -1.726  -2.855  0.00  0.00    -0.010 C 
ATOM     11  C   UNL     1      -5.485  -3.199  -5.953  0.00  0.00    +0.219 C 
ATOM     12  O   UNL     1      -6.176  -4.169  -6.185  0.00  0.00    -0.275 OA
ATOM     13  H   UNL     1     -10.091  -0.622  -2.235  0.00  0.00    -0.086 HD
ATOM     14  H   UNL     1     -11.129  -1.633  -3.016  0.00  0.00    -0.086 HD
ENDROOT
BRANCH  11  15
ATOM     15  C   UNL     1      -3.989  -3.286  -6.107  0.00  0.00    +0.078 C 
ATOM     16  C   UNL     1      -3.523  -2.266  -7.149  0.00  0.00    +0.032 C 
ATOM     17  C   UNL     1      -1.998  -2.333  -7.277  0.00  0.00    +0.112 C 
ATOM     18  N   UNL     1      -1.609  -3.718  -7.573  0.00  0.00    -0.267 N 
ATOM     19  C   UNL     1      -2.079  -4.790  -6.684  0.00  0.00    +0.112 C 
ATOM     20  C   UNL     1      -3.603  -4.695  -6.562  0.00  0.00    +0.032 C 
ATOM     21  C   UNL     1      -0.835  -4.001  -8.639  0.00  0.00    +0.403 C 
ATOM     22  O   UNL     1      -0.452  -3.107  -9.367  0.00  0.00    -0.226 OA
BRANCH  21  23
ATOM     23  O   UNL     1      -0.485  -5.276  -8.899  0.00  0.00    -0.445 OA
BRANCH  23  24
ATOM     24  C   UNL     1       0.337  -5.503 -10.045  0.00  0.00    +0.269 C 
BRANCH  24  25
ATOM     25  C   UNL     1       0.623  -6.976 -10.174  0.00  0.00    -0.010 A 
ATOM     26  C   UNL     1       1.730  -7.523  -9.553  0.00  0.00    +0.007 A 
ATOM     27  C   UNL     1       1.992  -8.875  -9.671  0.00  0.00    +0.000 A 
ATOM     28  C   UNL     1       1.147  -9.681 -10.411  0.00  0.00    +0.000 A 
ATOM     29  C   UNL     1       0.039  -9.135 -11.032  0.00  0.00    +0.000 A 
ATOM     30  C   UNL     1      -0.226  -7.783 -10.910  0.00  0.00    +0.007 A 
ENDBRANCH  24  25
ENDBRANCH  23  24
ENDBRANCH  21  23
ENDBRANCH  11  15
BRANCH   1  32
ATOM     31  N   UNL     1      -5.583   0.160  -1.635  0.00  0.00    -0.315 N 
ATOM     32  C   UNL     1      -5.467  -0.614  -2.732  0.00  0.00    +0.218 C 
ATOM     33  O   UNL     1      -4.806  -1.630  -2.689  0.00  0.00    -0.275 OA
ATOM     34  H   UNL     1      -6.112   0.973  -1.669  0.00  0.00    +0.149 HD
BRANCH  31  35
ATOM     35  C   UNL     1      -4.911  -0.225  -0.391  0.00  0.00    +0.102 C 
BRANCH  35  36
ATOM     36  C   UNL     1      -5.203   0.817   0.690  0.00  0.00    +0.000 C 
BRANCH  36  37
ATOM     37  C   UNL     1      -4.501   0.415   1.989  0.00  0.00    -0.078 C 
BRANCH  37  39
ATOM     38  C   UNL     1      -6.216   1.405   3.342  0.00  0.00    -0.097 C 
ATOM     39  N   UNL     1      -4.781   1.415   3.027  0.00  0.00    +0.376 N 
ATOM     40  C   UNL     1      -4.012   1.094   4.237  0.00  0.00    -0.097 C 
ATOM     41  H   UNL     1      -4.516   2.330   2.693  0.00  0.00    -0.083 HD
ENDBRANCH  37  39
ENDBRANCH  36  37
ENDBRANCH  35  36
ENDBRANCH  31  35
ENDBRANCH   1  32
TORSDOF 9
