REMARK  Name = ZINC41583985
REMARK  12 active torsions:
REMARK  status: ('A' for Active; 'I' for Inactive)
REMARK    1  A    between atoms: C_1  and  C_2
REMARK    2  A    between atoms: C_2  and  C_3
REMARK    3  A    between atoms: C_3  and  O_4
REMARK    4  A    between atoms: O_4  and  C_5
REMARK    5  A    between atoms: C_5  and  C_7
REMARK    6  A    between atoms: C_10  and  O_13
REMARK    7  A    between atoms: O_13  and  C_14
REMARK    8  A    between atoms: C_23  and  O_36
REMARK    9  A    between atoms: C_24  and  C_25
REMARK   10  A    between atoms: C_25  and  N_26
REMARK   11  A    between atoms: C_28  and  C_35
REMARK   12  A    between atoms: C_31  and  C_34
REMARK                            x       y       z     vdW  Elec       q    Type
REMARK                         _______ _______ _______ _____ _____    ______ ____
ROOT
ATOM      1  C   UNL     1       2.195  -8.759  -3.614  0.00  0.00    +0.210 A 
ATOM      2  C   UNL     1       2.831  -8.055  -4.571  0.00  0.00    +0.245 A 
ATOM      3  O   UNL     1       3.475  -8.637  -5.591  0.00  0.00    -0.459 OA
ATOM      4  C   UNL     1       3.536  -9.976  -5.738  0.00  0.00    +0.143 A 
ATOM      5  C   UNL     1       2.908 -10.811  -4.796  0.00  0.00    +0.068 A 
ATOM      6  C   UNL     1       2.201 -10.182  -3.667  0.00  0.00    +0.235 A 
ATOM      7  O   UNL     1       1.640 -10.852  -2.816  0.00  0.00    -0.283 OA
ATOM      8  C   UNL     1       2.965 -12.198  -4.937  0.00  0.00    +0.019 A 
ATOM      9  C   UNL     1       3.635 -12.745  -5.994  0.00  0.00    +0.046 A 
ATOM     10  C   UNL     1       4.261 -11.925  -6.932  0.00  0.00    +0.122 A 
ATOM     11  C   UNL     1       4.212 -10.547  -6.806  0.00  0.00    +0.020 A 
ENDROOT
BRANCH  10  12
ATOM     12  O   UNL     1       4.923 -12.483  -7.977  0.00  0.00    -0.506 OA
ATOM     13  H   UNL     1       4.373 -12.627  -8.760  0.00  0.00    +0.292 HD
ENDBRANCH  10  12
BRANCH   1  14
ATOM     14  O   UNL     1       1.556  -8.115  -2.599  0.00  0.00    -0.449 OA
BRANCH  14  18
ATOM     15  C   UNL     1      -2.558  -8.389  -2.415  0.00  0.00    +0.059 A 
ATOM     16  C   UNL     1      -1.867  -8.935  -3.501  0.00  0.00    +0.018 A 
ATOM     17  C   UNL     1      -0.495  -8.842  -3.558  0.00  0.00    +0.047 A 
ATOM     18  C   UNL     1       0.204  -8.205  -2.539  0.00  0.00    +0.129 A 
ATOM     19  C   UNL     1      -0.479  -7.660  -1.457  0.00  0.00    +0.047 A 
ATOM     20  C   UNL     1      -1.852  -7.744  -1.395  0.00  0.00    +0.018 A 
BRANCH  15  21
ATOM     21  C   UNL     1      -4.028  -8.486  -2.350  0.00  0.00    +0.339 C 
ATOM     22  O   UNL     1      -4.627  -8.006  -1.408  0.00  0.00    -0.245 OA
BRANCH  21  23
ATOM     23  O   UNL     1      -4.706  -9.108  -3.334  0.00  0.00    -0.461 OA
BRANCH  23  24
ATOM     24  C   UNL     1      -6.128  -9.166  -3.205  0.00  0.00    +0.232 C 
BRANCH  24  26
ATOM     25  C   UNL     1      -8.242  -9.966  -4.270  0.00  0.00    +0.007 C 
ATOM     26  C   UNL     1      -6.720  -9.904  -4.408  0.00  0.00    +0.038 C 
ENDBRANCH  24  26
ENDBRANCH  23  24
ENDBRANCH  21  23
ENDBRANCH  15  21
ENDBRANCH  14  18
ENDBRANCH   1  14
BRANCH  11  27
ATOM     27  C   UNL     1       4.892  -9.671  -7.827  0.00  0.00    -0.036 C 
BRANCH  27  28
ATOM     28  N   UNL     1       6.276  -9.414  -7.407  0.00  0.00    +0.383 N 
ATOM     29  C   UNL     1       6.272  -8.641  -6.159  0.00  0.00    -0.075 C 
ATOM     30  C   UNL     1       7.710  -8.440  -5.675  0.00  0.00    -0.031 C 
ATOM     31  C   UNL     1       8.502  -7.682  -6.744  0.00  0.00    +0.003 C 
ATOM     32  C   UNL     1       8.437  -8.461  -8.061  0.00  0.00    -0.031 C 
ATOM     33  C   UNL     1       6.973  -8.661  -8.457  0.00  0.00    -0.075 C 
ATOM     34  C   UNL     1       9.161  -7.675  -9.156  0.00  0.00    +0.005 C 
ATOM     35  C   UNL     1       8.360  -9.802  -5.425  0.00  0.00    +0.005 C 
ATOM     36  H   UNL     1       6.749 -10.292  -7.255  0.00  0.00    -0.081 HD
ENDBRANCH  27  28
ENDBRANCH  11  27
TORSDOF 9
