REMARK  Name = ZINC63676483
REMARK  8 active torsions:
REMARK  status: ('A' for Active; 'I' for Inactive)
REMARK    1  A    between atoms: C_7  and  C_10
REMARK    2  A    between atoms: C_10  and  C_11
REMARK    3  A    between atoms: C_11  and  N_12
REMARK    4  A    between atoms: C_13  and  C_15
REMARK    5  A    between atoms: N_17  and  C_18
REMARK    6  A    between atoms: C_18  and  C_19
REMARK    7  A    between atoms: N_21  and  S_26
REMARK    8  A    between atoms: S_26  and  C_29
REMARK                            x       y       z     vdW  Elec       q    Type
REMARK                         _______ _______ _______ _____ _____    ______ ____
ROOT
ATOM      1  C   UNL     1      -3.537  -5.595  -3.672  0.00  0.00    +0.299 C 
ATOM      2  O   UNL     1      -3.608  -5.952  -2.514  0.00  0.00    -0.265 OA
ATOM      3  N   UNL     1      -3.657  -6.499  -4.665  0.00  0.00    -0.304 N 
ATOM      4  H   UNL     1      -3.529  -6.227  -5.587  0.00  0.00    +0.149 HD
ENDROOT
BRANCH   1   6
ATOM      5  N   UNL     1      -3.299  -3.235  -3.011  0.00  0.00    -0.307 N 
ATOM      6  C   UNL     1      -3.316  -4.153  -3.997  0.00  0.00    +0.299 C 
ATOM      7  O   UNL     1      -3.152  -3.809  -5.149  0.00  0.00    -0.265 OA
ATOM      8  H   UNL     1      -3.431  -3.510  -2.090  0.00  0.00    +0.149 HD
BRANCH   5   9
ATOM      9  C   UNL     1      -3.083  -1.821  -3.329  0.00  0.00    +0.109 C 
BRANCH   9  10
ATOM     10  C   UNL     1      -3.110  -0.998  -2.040  0.00  0.00    +0.052 C 
BRANCH  10  17
ATOM     11  C   UNL     1      -5.998   2.491  -2.775  0.00  0.00    +0.001 A 
ATOM     12  C   UNL     1      -5.354   3.704  -3.056  0.00  0.00    +0.002 A 
ATOM     13  C   UNL     1      -4.010   3.822  -3.103  0.00  0.00    +0.026 A 
ATOM     14  C   UNL     1      -3.180   2.693  -2.863  0.00  0.00    +0.043 A 
ATOM     15  N   UNL     1      -1.877   2.554  -2.853  0.00  0.00    -0.380 N 
ATOM     16  C   UNL     1      -1.558   1.155  -2.545  0.00  0.00    +0.144 C 
ATOM     17  C   UNL     1      -2.888   0.456  -2.368  0.00  0.00    -0.040 C 
ATOM     18  C   UNL     1      -3.836   1.400  -2.564  0.00  0.00    -0.001 A 
ATOM     19  C   UNL     1      -5.303   1.357  -2.532  0.00  0.00    +0.010 A 
ATOM     20  H   UNL     1      -1.231   3.258  -3.020  0.00  0.00    +0.160 HD
ENDBRANCH  10  17
ENDBRANCH   9  10
ENDBRANCH   5   9
ENDBRANCH   1   6
BRANCH   3  21
ATOM     21  C   UNL     1      -3.983  -7.892  -4.351  0.00  0.00    +0.154 C 
BRANCH  21  22
ATOM     22  C   UNL     1      -3.945  -8.726  -5.633  0.00  0.00    +0.226 C 
ATOM     23  N   UNL     1      -4.368 -10.103  -5.339  0.00  0.00    -0.147 NA
ATOM     24  C   UNL     1      -4.603 -11.016  -6.469  0.00  0.00    +0.114 C 
ATOM     25  C   UNL     1      -5.534 -10.315  -7.466  0.00  0.00    +0.045 C 
ATOM     26  C   UNL     1      -4.960  -8.934  -7.796  0.00  0.00    +0.163 C 
ATOM     27  O   UNL     1      -4.840  -8.164  -6.598  0.00  0.00    -0.358 OA
BRANCH  23  28
ATOM     28  S   UNL     1      -4.574 -10.613  -3.777  0.00  0.00    +0.069 S 
ATOM     29  O   UNL     1      -4.672 -12.030  -3.822  0.00  0.00    -0.152 OA
ATOM     30  O   UNL     1      -3.593  -9.942  -2.998  0.00  0.00    -0.152 OA
BRANCH  28  31
ATOM     31  C   UNL     1      -6.141 -10.017  -3.237  0.00  0.00    +0.143 A 
ATOM     32  C   UNL     1      -7.371 -10.553  -3.428  0.00  0.00    +0.036 A 
ATOM     33  C   UNL     1      -8.474  -9.904  -2.906  0.00  0.00    +0.010 A 
ATOM     34  C   UNL     1      -8.293  -8.750  -2.219  0.00  0.00    +0.047 A 
ATOM     35  S   UNL     1      -6.520  -8.553  -2.288  0.00  0.00    -0.077 S 
ENDBRANCH  28  31
ENDBRANCH  23  28
ENDBRANCH  21  22
ENDBRANCH   3  21
TORSDOF 8
