REMARK  Name = ZINC26573965
REMARK  8 active torsions:
REMARK  status: ('A' for Active; 'I' for Inactive)
REMARK    1  A    between atoms: C_1  and  C_2
REMARK    2  A    between atoms: C_2  and  C_3
REMARK    3  A    between atoms: C_2  and  C_4
REMARK    4  A    between atoms: C_10  and  C_12
REMARK    5  A    between atoms: C_12  and  C_14
REMARK    6  A    between atoms: C_12  and  N_25
REMARK    7  A    between atoms: C_14  and  C_15
REMARK    8  A    between atoms: C_26  and  C_28
REMARK                            x       y       z     vdW  Elec       q    Type
REMARK                         _______ _______ _______ _____ _____    ______ ____
ROOT
ATOM      1  C   UNL     1       4.174   0.620   1.404  0.00  0.00    +0.164 C 
ENDROOT
BRANCH   1   8
ATOM      2  C   UNL     1      10.112  -1.673   1.300  0.00  0.00    +0.106 A 
ATOM      3  N   UNL     1       9.754  -0.407   1.377  0.00  0.00    -0.144 NA
ATOM      4  N   UNL     1       8.534  -0.082   1.389  0.00  0.00    -0.126 NA
ATOM      5  C   UNL     1       7.571  -0.985   1.326  0.00  0.00    +0.188 A 
ATOM      6  S   UNL     1       8.502  -2.452   1.248  0.00  0.00    -0.035 S 
ATOM      7  N   UNL     1       6.191  -0.810   1.328  0.00  0.00    -0.262 N 
ATOM      8  C   UNL     1       5.669   0.430   1.402  0.00  0.00    +0.239 C 
ATOM      9  O   UNL     1       6.402   1.394   1.467  0.00  0.00    -0.273 OA
ATOM     10  H   UNL     1       5.526  -1.684   1.269  0.00  0.00    +0.157 HD
BRANCH   2  12
ATOM     11  C   UNL     1      12.256  -1.765   0.057  0.00  0.00    +0.014 C 
ATOM     12  C   UNL     1      11.486  -2.291   1.271  0.00  0.00    +0.040 C 
ATOM     13  C   UNL     1      12.238  -1.921   2.551  0.00  0.00    +0.014 C 
ENDBRANCH   2  12
ENDBRANCH   1   8
BRANCH   1  14
ATOM     14  N   UNL     1       3.849   1.937   1.957  0.00  0.00    -0.299 N 
ATOM     15  C   UNL     1       4.318   3.052   1.363  0.00  0.00    +0.251 C 
ATOM     16  O   UNL     1       5.011   2.964   0.366  0.00  0.00    -0.270 OA
ATOM     17  H   UNL     1       3.223   2.016   2.858  0.00  0.00    +0.150 HD
BRANCH  15  18
ATOM     18  C   UNL     1       3.993   4.370   1.916  0.00  0.00    +0.074 A 
ATOM     19  C   UNL     1       4.370   5.624   1.464  0.00  0.00    +0.021 A 
ATOM     20  C   UNL     1       3.921   6.707   2.178  0.00  0.00    +0.008 A 
ATOM     21  C   UNL     1       3.144   6.503   3.274  0.00  0.00    +0.046 A 
ATOM     22  S   UNL     1       3.004   4.777   3.344  0.00  0.00    -0.092 S 
ENDBRANCH  15  18
ENDBRANCH   1  14
BRANCH   1  23
ATOM     23  C   UNL     1       3.646   0.524  -0.029  0.00  0.00    +0.069 C 
BRANCH  23  24
ATOM     24  C   UNL     1       2.140   0.591  -0.015  0.00  0.00    -0.020 A 
ATOM     25  C   UNL     1       1.295  -0.452  -0.013  0.00  0.00    +0.087 A 
ATOM     26  N   UNL     1       0.002  -0.004   0.002  0.00  0.00    -0.360 N 
ATOM     27  H   UNL     1      -0.829  -0.724   0.006  0.00  0.00    +0.165 HD
ATOM     28  C   UNL     1      -0.017   1.373   0.010  0.00  0.00    +0.047 A 
ATOM     29  C   UNL     1       1.322   1.806  -0.001  0.00  0.00    +0.003 A 
ATOM     30  C   UNL     1       1.612   3.171   0.004  0.00  0.00    +0.010 A 
ATOM     31  C   UNL     1       0.593   4.082   0.019  0.00  0.00    +0.001 A 
ATOM     32  C   UNL     1      -0.729   3.659   0.029  0.00  0.00    +0.002 A 
ATOM     33  C   UNL     1      -1.038   2.317   0.029  0.00  0.00    +0.026 A 
ENDBRANCH  23  24
ENDBRANCH   1  23
TORSDOF 6
