REMARK  Name = ZINC10108296
REMARK  10 active torsions:
REMARK  status: ('A' for Active; 'I' for Inactive)
REMARK    1  A    between atoms: C_1  and  C_2
REMARK    2  A    between atoms: N_9  and  C_10
REMARK    3  A    between atoms: N_17  and  C_37
REMARK    4  A    between atoms: N_20  and  C_23
REMARK    5  A    between atoms: C_23  and  C_24
REMARK    6  A    between atoms: C_24  and  C_26
REMARK    7  A    between atoms: C_24  and  C_27
REMARK    8  A    between atoms: C_27  and  N_68
REMARK    9  A    between atoms: C_29  and  C_36
REMARK   10  A    between atoms: C_32  and  C_35
REMARK                            x       y       z     vdW  Elec       q    Type
REMARK                         _______ _______ _______ _____ _____    ______ ____
ROOT
ATOM      1  C   UNL     1       2.492   1.415  -0.013  0.00  0.00    +0.065 C 
ATOM      2  C   UNL     1       1.055   1.868   0.002  0.00  0.00    +0.040 A 
ATOM      3  C   UNL     1      -0.013   1.076   0.008  0.00  0.00    +0.116 A 
ATOM      4  N   UNL     1      -1.146   1.870   0.017  0.00  0.00    -0.277 N 
ATOM      5  C   UNL     1      -2.533   1.867   0.023  0.00  0.00    +0.157 A 
ATOM      6  C   UNL     1      -2.928   3.204   0.032  0.00  0.00    +0.170 A 
ATOM      7  N   UNL     1      -1.824   3.947   0.039  0.00  0.00    -0.193 NA
ATOM      8  C   UNL     1      -0.754   3.166   0.025  0.00  0.00    +0.223 A 
ATOM      9  N   UNL     1       0.618   3.181   0.013  0.00  0.00    -0.283 N 
ATOM     10  N   UNL     1      -4.282   3.499   0.039  0.00  0.00    -0.279 N 
ATOM     11  C   UNL     1      -5.189   2.504   0.038  0.00  0.00    +0.333 A 
ATOM     12  O   UNL     1      -6.373   2.780   0.043  0.00  0.00    -0.246 OA
ATOM     13  N   UNL     1      -4.817   1.212   0.029  0.00  0.00    -0.259 N 
ATOM     14  C   UNL     1      -3.514   0.863   0.023  0.00  0.00    +0.283 A 
ATOM     15  O   UNL     1      -3.193  -0.313   0.015  0.00  0.00    -0.265 OA
ATOM     16  C   UNL     1      -4.728   4.895   0.048  0.00  0.00    +0.155 C 
ENDROOT
BRANCH   9  17
ATOM     17  C   UNL     1       1.432   4.322   0.011  0.00  0.00    +0.050 A 
ATOM     18  C   UNL     1       1.427   5.181   1.102  0.00  0.00    +0.029 A 
ATOM     19  C   UNL     1       2.234   6.302   1.100  0.00  0.00    +0.040 A 
ATOM     20  C   UNL     1       3.038   6.576   0.006  0.00  0.00    +0.124 A 
ATOM     21  C   UNL     1       3.039   5.723  -1.085  0.00  0.00    +0.040 A 
ATOM     22  C   UNL     1       2.239   4.598  -1.085  0.00  0.00    +0.029 A 
ATOM     23  F   UNL     1       3.823   7.676   0.004  0.00  0.00    -0.205 F 
ENDBRANCH   9  17
BRANCH  13  24
ATOM     24  C   UNL     1      -5.844   0.167   0.029  0.00  0.00    +0.131 C 
BRANCH  24  25
ATOM     25  C   UNL     1      -6.207  -0.190  -1.414  0.00  0.00    -0.011 C 
ATOM     26  C   UNL     1      -4.994  -0.813  -2.107  0.00  0.00    +0.007 C 
BRANCH  25  27
ATOM     27  C   UNL     1      -7.366  -1.189  -1.416  0.00  0.00    -0.074 C 
BRANCH  27  35
ATOM     28  C   UNL     1      -8.369  -0.230  -3.399  0.00  0.00    -0.076 C 
ATOM     29  C   UNL     1      -8.669  -0.486  -4.878  0.00  0.00    -0.031 C 
ATOM     30  C   UNL     1      -9.650  -1.655  -5.000  0.00  0.00    +0.003 C 
ATOM     31  C   UNL     1      -9.047  -2.889  -4.325  0.00  0.00    -0.031 C 
ATOM     32  C   UNL     1      -8.737  -2.564  -2.862  0.00  0.00    -0.076 C 
ATOM     33  C   UNL     1     -10.047  -4.046  -4.390  0.00  0.00    +0.005 C 
ATOM     34  C   UNL     1      -7.370  -0.830  -5.610  0.00  0.00    +0.005 C 
ATOM     35  N   UNL     1      -7.769  -1.448  -2.814  0.00  0.00    +0.380 N 
ATOM     36  H   UNL     1      -6.937  -1.704  -3.359  0.00  0.00    -0.082 HD
ENDBRANCH  27  35
ENDBRANCH  25  27
ENDBRANCH  24  25
ENDBRANCH  13  24
TORSDOF 5
