REMARK  Name = ZINC38705040
REMARK  13 active torsions:
REMARK  status: ('A' for Active; 'I' for Inactive)
REMARK    1  A    between atoms: C_1  and  C_2
REMARK    2  A    between atoms: C_2  and  C_3
REMARK    3  A    between atoms: C_3  and  C_4
REMARK    4  A    between atoms: C_4  and  N_5
REMARK    5  A    between atoms: C_6  and  C_25
REMARK    6  A    between atoms: C_9  and  C_16
REMARK    7  A    between atoms: C_17  and  C_24
REMARK    8  A    between atoms: C_19  and  C_23
REMARK    9  A    between atoms: C_21  and  O_22
REMARK   10  A    between atoms: C_28  and  O_34
REMARK   11  A    between atoms: C_29  and  O_31
REMARK   12  A    between atoms: O_31  and  C_32
REMARK   13  A    between atoms: C_32  and  C_33
REMARK                            x       y       z     vdW  Elec       q    Type
REMARK                         _______ _______ _______ _____ _____    ______ ____
ROOT
ATOM      1  N   UNL     1      -2.836  -2.623   0.080  0.00  0.00    -0.285 N 
ATOM      2  C   UNL     1      -3.698  -2.865   1.244  0.00  0.00    +0.141 C 
ATOM      3  C   UNL     1      -5.004  -3.373   0.698  0.00  0.00    +0.035 A 
ATOM      4  C   UNL     1      -6.299  -3.828   0.969  0.00  0.00    +0.102 A 
ATOM      5  N   UNL     1      -6.870  -4.106  -0.187  0.00  0.00    -0.173 NA
ATOM      6  N   UNL     1      -6.063  -3.873  -1.160  0.00  0.00    -0.272 N 
ATOM      7  H   UNL     1      -6.270  -4.005  -2.099  0.00  0.00    +0.189 HD
ATOM      8  C   UNL     1      -4.872  -3.410  -0.677  0.00  0.00    +0.126 A 
ATOM      9  C   UNL     1      -3.529  -2.938  -1.030  0.00  0.00    +0.265 C 
ATOM     10  O   UNL     1      -3.101  -2.846  -2.165  0.00  0.00    -0.268 OA
ENDROOT
BRANCH   4  11
ATOM     11  C   UNL     1      -6.917  -3.971   2.311  0.00  0.00    +0.047 A 
ATOM     12  C   UNL     1      -7.555  -5.157   2.664  0.00  0.00    -0.037 A 
ATOM     13  C   UNL     1      -8.127  -5.286   3.913  0.00  0.00    +0.007 A 
ATOM     14  C   UNL     1      -8.070  -4.239   4.817  0.00  0.00    -0.047 A 
ATOM     15  C   UNL     1      -7.440  -3.058   4.476  0.00  0.00    +0.049 A 
ATOM     16  C   UNL     1      -6.856  -2.918   3.228  0.00  0.00    +0.127 A 
ATOM     17  C   UNL     1      -8.700  -4.389   6.178  0.00  0.00    +0.044 C 
ATOM     18  C   UNL     1      -7.620  -6.299   1.683  0.00  0.00    +0.044 C 
BRANCH  16  19
ATOM     19  O   UNL     1      -6.231  -1.758   2.893  0.00  0.00    -0.506 OA
ATOM     20  H   UNL     1      -6.824  -1.076   2.552  0.00  0.00    +0.292 HD
ENDBRANCH  16  19
ENDBRANCH   4  11
BRANCH   2  21
ATOM     21  C   UNL     1      -3.074  -3.899   2.146  0.00  0.00    -0.019 A 
ATOM     22  C   UNL     1      -2.539  -5.053   1.604  0.00  0.00    +0.009 A 
ATOM     23  C   UNL     1      -1.965  -6.005   2.427  0.00  0.00    +0.049 A 
ATOM     24  C   UNL     1      -1.925  -5.803   3.797  0.00  0.00    +0.158 A 
ATOM     25  C   UNL     1      -2.463  -4.641   4.342  0.00  0.00    +0.162 A 
ATOM     26  C   UNL     1      -3.032  -3.689   3.511  0.00  0.00    +0.055 A 
BRANCH  24  27
ATOM     27  O   UNL     1      -1.361  -6.738   4.608  0.00  0.00    -0.503 OA
ATOM     28  H   UNL     1      -0.415  -6.608   4.760  0.00  0.00    +0.292 HD
ENDBRANCH  24  27
BRANCH  25  29
ATOM     29  O   UNL     1      -2.426  -4.438   5.686  0.00  0.00    -0.489 OA
BRANCH  29  30
ATOM     30  C   UNL     1      -2.997  -3.222   6.175  0.00  0.00    +0.226 C 
ATOM     31  C   UNL     1      -2.863  -3.172   7.698  0.00  0.00    +0.048 C 
ENDBRANCH  29  30
ENDBRANCH  25  29
ENDBRANCH   2  21
BRANCH   1  32
ATOM     32  C   UNL     1      -1.461  -2.120   0.119  0.00  0.00    +0.109 C 
BRANCH  32  33
ATOM     33  C   UNL     1      -1.475  -0.592   0.057  0.00  0.00    +0.019 C 
BRANCH  33  35
ATOM     34  C   UNL     1      -0.053   1.462   0.036  0.00  0.00    +0.004 C 
ATOM     35  C   UNL     1      -0.039  -0.066   0.098  0.00  0.00    -0.002 C 
ENDBRANCH  33  35
ENDBRANCH  32  33
ENDBRANCH   1  32
TORSDOF 9
