REMARK  Name = ZINC57995708
REMARK  8 active torsions:
REMARK  status: ('A' for Active; 'I' for Inactive)
REMARK    1  A    between atoms: C_1  and  C_2
REMARK    2  A    between atoms: C_2  and  C_4
REMARK    3  A    between atoms: C_2  and  N_13
REMARK    4  A    between atoms: C_14  and  C_16
REMARK    5  A    between atoms: C_22  and  C_24
REMARK    6  A    between atoms: C_24  and  C_25
REMARK    7  A    between atoms: C_24  and  C_26
REMARK    8  A    between atoms: C_24  and  C_27
REMARK                            x       y       z     vdW  Elec       q    Type
REMARK                         _______ _______ _______ _____ _____    ______ ____
ROOT
ATOM      1  N   UNL     1       2.417  -2.292  -0.123  0.00  0.00    -0.306 N 
ATOM      2  C   UNL     1       1.684  -1.872   0.927  0.00  0.00    +0.217 C 
ATOM      3  O   UNL     1       0.631  -1.299   0.741  0.00  0.00    -0.275 OA
ATOM      4  H   UNL     1       3.259  -2.751   0.026  0.00  0.00    +0.149 HD
ENDROOT
BRANCH   2   5
ATOM      5  C   UNL     1       2.172  -2.114   2.332  0.00  0.00    +0.078 C 
ATOM      6  C   UNL     1       2.327  -3.619   2.566  0.00  0.00    +0.032 C 
ATOM      7  C   UNL     1       2.857  -3.859   3.983  0.00  0.00    +0.108 C 
ATOM      8  N   UNL     1       1.967  -3.189   4.941  0.00  0.00    -0.301 N 
ATOM      9  C   UNL     1       1.677  -1.760   4.755  0.00  0.00    +0.108 C 
ATOM     10  C   UNL     1       1.161  -1.543   3.329  0.00  0.00    +0.032 C 
ATOM     11  C   UNL     1       1.426  -3.871   5.970  0.00  0.00    +0.221 C 
ATOM     12  O   UNL     1       0.767  -3.287   6.805  0.00  0.00    -0.275 OA
BRANCH  11  13
ATOM     13  C   UNL     1       1.639  -5.358   6.082  0.00  0.00    +0.039 C 
ATOM     14  C   UNL     1       0.887  -5.890   7.304  0.00  0.00    +0.020 C 
ATOM     15  C   UNL     1       1.113  -6.046   4.821  0.00  0.00    +0.020 C 
ATOM     16  C   UNL     1       3.133  -5.649   6.237  0.00  0.00    +0.020 C 
ENDBRANCH  11  13
ENDBRANCH   2   5
BRANCH   1  18
ATOM     17  C   UNL     1       2.364  -0.658  -1.941  0.00  0.00    +0.036 C 
ATOM     18  C   UNL     1       1.942  -2.057  -1.489  0.00  0.00    +0.136 C 
BRANCH  18  19
ATOM     19  C   UNL     1       2.541  -3.086  -2.413  0.00  0.00    +0.126 A 
ATOM     20  C   UNL     1       1.889  -3.685  -3.418  0.00  0.00    +0.055 A 
ATOM     21  C   UNL     1       2.852  -4.601  -4.042  0.00  0.00    +0.020 A 
ATOM     22  C   UNL     1       2.797  -5.494  -5.111  0.00  0.00    +0.011 A 
ATOM     23  C   UNL     1       3.906  -6.221  -5.445  0.00  0.00    +0.001 A 
ATOM     24  C   UNL     1       5.083  -6.077  -4.726  0.00  0.00    +0.004 A 
ATOM     25  C   UNL     1       5.157  -5.199  -3.665  0.00  0.00    +0.047 A 
ATOM     26  C   UNL     1       4.042  -4.450  -3.310  0.00  0.00    +0.135 A 
ATOM     27  O   UNL     1       3.808  -3.531  -2.351  0.00  0.00    -0.458 OA
ENDBRANCH  18  19
ENDBRANCH   1  18
TORSDOF 4
