REMARK  Name = ZINC09473099
REMARK  9 active torsions:
REMARK  status: ('A' for Active; 'I' for Inactive)
REMARK    1  A    between atoms: C_1  and  C_2
REMARK    2  A    between atoms: C_2  and  O_3
REMARK    3  A    between atoms: O_3  and  C_4
REMARK    4  A    between atoms: C_4  and  C_6
REMARK    5  A    between atoms: C_13  and  C_15
REMARK    6  A    between atoms: C_15  and  S_16
REMARK    7  A    between atoms: S_16  and  C_17
REMARK    8  A    between atoms: N_27  and  C_28
REMARK    9  A    between atoms: C_28  and  C_29
REMARK                            x       y       z     vdW  Elec       q    Type
REMARK                         _______ _______ _______ _____ _____    ______ ____
ROOT
ATOM      1  C   UNL     1      -0.794   4.090  -5.738  0.00  0.00    +0.173 A 
ATOM      2  N   UNL     1      -2.051   3.737  -5.636  0.00  0.00    -0.223 NA
ATOM      3  C   UNL     1      -2.953   4.053  -6.587  0.00  0.00    +0.079 A 
ATOM      4  C   UNL     1      -4.296   3.677  -6.478  0.00  0.00    +0.028 A 
ATOM      5  C   UNL     1      -5.176   4.018  -7.465  0.00  0.00    +0.002 A 
ATOM      6  C   UNL     1      -4.758   4.736  -8.579  0.00  0.00    +0.001 A 
ATOM      7  C   UNL     1      -3.452   5.118  -8.714  0.00  0.00    +0.015 A 
ATOM      8  C   UNL     1      -2.532   4.782  -7.722  0.00  0.00    +0.065 A 
ATOM      9  C   UNL     1      -1.117   5.167  -7.814  0.00  0.00    +0.263 A 
ATOM     10  O   UNL     1      -0.694   5.795  -8.766  0.00  0.00    -0.267 OA
ATOM     11  N   UNL     1      -0.302   4.800  -6.797  0.00  0.00    -0.284 N 
ENDROOT
BRANCH   1  12
ATOM     12  S   UNL     1       0.314   3.634  -4.446  0.00  0.00    -0.078 S 
BRANCH  12  13
ATOM     13  C   UNL     1      -0.827   2.757  -3.349  0.00  0.00    +0.173 C 
BRANCH  13  20
ATOM     14  C   UNL     1      -0.736   1.583   1.264  0.00  0.00    +0.115 C 
ATOM     15  C   UNL     1      -2.208   1.161   1.197  0.00  0.00    +0.018 C 
ATOM     16  C   UNL     1      -2.869   1.797  -0.028  0.00  0.00    +0.020 C 
ATOM     17  C   UNL     1      -2.168   1.303  -1.297  0.00  0.00    +0.108 C 
ATOM     18  N   UNL     1      -0.729   1.575  -1.178  0.00  0.00    -0.300 N 
ATOM     19  C   UNL     1      -0.013   1.086   0.008  0.00  0.00    +0.122 C 
ATOM     20  C   UNL     1      -0.078   2.261  -2.138  0.00  0.00    +0.226 C 
ATOM     21  O   UNL     1       1.110   2.480  -2.029  0.00  0.00    -0.275 OA
BRANCH  14  22
ATOM     22  C   UNL     1      -0.091   0.982   2.486  0.00  0.00    +0.312 C 
ATOM     23  O   UNL     1      -0.740   0.290   3.234  0.00  0.00    -0.250 OA
BRANCH  22  24
ATOM     24  O   UNL     1       1.206   1.216   2.745  0.00  0.00    -0.465 OA
BRANCH  24  26
ATOM     25  C   UNL     1       3.238   0.981   4.066  0.00  0.00    +0.048 C 
ATOM     26  C   UNL     1       1.760   0.605   3.940  0.00  0.00    +0.229 C 
ENDBRANCH  24  26
ENDBRANCH  22  24
ENDBRANCH  14  22
ENDBRANCH  13  20
ENDBRANCH  12  13
ENDBRANCH   1  12
BRANCH  11  27
ATOM     27  C   UNL     1       1.117   5.161  -6.835  0.00  0.00    +0.175 C 
BRANCH  27  28
ATOM     28  C   UNL     1       1.907   4.055  -7.536  0.00  0.00    +0.231 C 
ATOM     29  C   UNL     1       3.408   4.368  -7.469  0.00  0.00    +0.275 C 
ATOM     30  O   UNL     1       4.114   3.322  -8.145  0.00  0.00    -0.485 OA
ATOM     31  C   UNL     1       3.627   2.937  -9.356  0.00  0.00    +0.162 A 
ATOM     32  C   UNL     1       4.435   2.206 -10.214  0.00  0.00    +0.049 A 
ATOM     33  C   UNL     1       3.953   1.805 -11.445  0.00  0.00    +0.004 A 
ATOM     34  C   UNL     1       2.664   2.131 -11.826  0.00  0.00    +0.004 A 
ATOM     35  C   UNL     1       1.855   2.861 -10.976  0.00  0.00    +0.049 A 
ATOM     36  C   UNL     1       2.333   3.268  -9.739  0.00  0.00    +0.163 A 
ATOM     37  O   UNL     1       1.524   3.988  -8.915  0.00  0.00    -0.480 OA
ENDBRANCH  27  28
ENDBRANCH  11  27
TORSDOF 8
