REMARK  Name = ZINC09883531
REMARK  7 active torsions:
REMARK  status: ('A' for Active; 'I' for Inactive)
REMARK    1  A    between atoms: C_1  and  C_2
REMARK    2  A    between atoms: C_2  and  C_4
REMARK    3  A    between atoms: C_2  and  N_15
REMARK    4  A    between atoms: N_6  and  C_7
REMARK    5  A    between atoms: C_12  and  C_13
REMARK    6  A    between atoms: C_18  and  C_22
REMARK    7  A    between atoms: C_18  and  C_23
REMARK                            x       y       z     vdW  Elec       q    Type
REMARK                         _______ _______ _______ _____ _____    ______ ____
ROOT
ATOM      1  N   UNL     1       3.606   4.409  -1.910  0.00  0.00    -0.212 N 
ATOM      2  C   UNL     1       2.535   4.846  -1.218  0.00  0.00    +0.251 C 
ATOM      3  O   UNL     1       1.796   5.760  -1.512  0.00  0.00    -0.272 OA
ATOM      4  C   UNL     1       2.447   3.955   0.006  0.00  0.00    +0.136 C 
ATOM      5  N   UNL     1       3.586   3.034  -0.154  0.00  0.00    -0.281 N 
ATOM      6  C   UNL     1       4.201   3.378  -1.300  0.00  0.00    +0.310 C 
ATOM      7  O   UNL     1       5.187   2.814  -1.733  0.00  0.00    -0.252 OA
ATOM      8  C   UNL     1       2.595   4.782   1.285  0.00  0.00    +0.047 C 
ATOM      9  H   UNL     1       3.842   2.320   0.450  0.00  0.00    +0.152 HD
ENDROOT
BRANCH   4  10
ATOM     10  C   UNL     1       1.147   3.194   0.016  0.00  0.00    -0.002 A 
ATOM     11  C   UNL     1       1.155   1.812   0.006  0.00  0.00    +0.007 A 
ATOM     12  C   UNL     1      -0.038   1.113   0.016  0.00  0.00    +0.000 A 
ATOM     13  C   UNL     1      -1.240   1.797   0.030  0.00  0.00    +0.001 A 
ATOM     14  C   UNL     1      -1.248   3.179   0.045  0.00  0.00    +0.015 A 
ATOM     15  C   UNL     1      -0.055   3.878   0.036  0.00  0.00    +0.024 A 
ATOM     16 BR   UNL     1      -0.067   5.769   0.050  0.00  0.00    -0.050 Br
ENDBRANCH   4  10
BRANCH   1  18
ATOM     17  C   UNL     1       4.030   3.925  -4.269  0.00  0.00    +0.038 C 
ATOM     18  C   UNL     1       4.062   4.993  -3.174  0.00  0.00    +0.168 C 
BRANCH  18  19
ATOM     19  C   UNL     1       5.471   5.504  -3.011  0.00  0.00    +0.238 C 
ATOM     20  O   UNL     1       6.037   5.392  -1.945  0.00  0.00    -0.273 OA
ATOM     21  N   UNL     1       6.100   6.086  -4.051  0.00  0.00    -0.283 N 
ATOM     22  H   UNL     1       5.679   6.104  -4.925  0.00  0.00    +0.155 HD
BRANCH  21  23
ATOM     23  C   UNL     1       7.357   6.661  -3.871  0.00  0.00    +0.051 A 
ATOM     24  C   UNL     1       7.747   7.106  -2.615  0.00  0.00    +0.024 A 
ATOM     25  C   UNL     1       8.995   7.671  -2.438  0.00  0.00    +0.002 A 
ATOM     26  C   UNL     1       9.861   7.808  -3.510  0.00  0.00    +0.001 A 
ATOM     27  C   UNL     1       9.489   7.377  -4.766  0.00  0.00    +0.021 A 
ATOM     28  C   UNL     1       8.232   6.799  -4.959  0.00  0.00    +0.073 A 
BRANCH  28  29
ATOM     29  C   UNL     1       7.839   6.349  -6.261  0.00  0.00    +0.101 C 
ATOM     30  N   UNL     1       7.527   5.993  -7.293  0.00  0.00    -0.191 NA
ENDBRANCH  28  29
ENDBRANCH  21  23
ENDBRANCH  18  19
ENDBRANCH   1  18
TORSDOF 5
