REMARK  Name = ZINC39608174
REMARK  9 active torsions:
REMARK  status: ('A' for Active; 'I' for Inactive)
REMARK    1  A    between atoms: C_1  and  C_2
REMARK    2  A    between atoms: C_2  and  C_4
REMARK    3  A    between atoms: C_2  and  N_7
REMARK    4  A    between atoms: C_4  and  C_5
REMARK    5  A    between atoms: C_4  and  C_6
REMARK    6  A    between atoms: C_8  and  C_10
REMARK    7  A    between atoms: C_21  and  C_23
REMARK    8  A    between atoms: C_28  and  O_29
REMARK    9  A    between atoms: O_29  and  C_30
REMARK                            x       y       z     vdW  Elec       q    Type
REMARK                         _______ _______ _______ _____ _____    ______ ____
ROOT
ATOM      1  C   UNL     1       0.896  -1.613  -3.714  0.00  0.00    +0.100 C 
ATOM      2  C   UNL     1       1.802  -0.419  -4.091  0.00  0.00    +0.121 C 
ATOM      3  N   UNL     1       1.684  -0.310  -5.564  0.00  0.00    -0.296 N 
ATOM      4  C   UNL     1       0.253  -0.584  -5.840  0.00  0.00    +0.115 C 
ATOM      5  C   UNL     1      -0.119  -1.717  -4.864  0.00  0.00    -0.004 C 
ATOM      6  C   UNL     1       0.004  -3.071  -5.556  0.00  0.00    -0.010 C 
ATOM      7  C   UNL     1      -1.053  -3.173  -6.659  0.00  0.00    -0.082 C 
ATOM      8  N   UNL     1      -2.390  -3.020  -6.073  0.00  0.00    +0.379 N 
ATOM      9  C   UNL     1      -2.532  -1.681  -5.490  0.00  0.00    -0.082 C 
ATOM     10  C   UNL     1      -1.537  -1.515  -4.338  0.00  0.00    -0.010 C 
ATOM     11  C   UNL     1       2.657  -0.026  -6.452  0.00  0.00    +0.252 C 
ATOM     12  O   UNL     1       2.384   0.121  -7.628  0.00  0.00    -0.270 OA
ATOM     13  H   UNL     1      -3.087  -3.149  -6.791  0.00  0.00    -0.086 HD
ATOM     14  H   UNL     1      -2.522  -3.715  -5.353  0.00  0.00    -0.086 HD
ENDROOT
BRANCH  11  15
ATOM     15  C   UNL     1       4.055   0.106  -5.998  0.00  0.00    +0.099 A 
ATOM     16  C   UNL     1       4.347   0.652  -4.742  0.00  0.00    +0.020 A 
ATOM     17  C   UNL     1       5.674   0.753  -4.363  0.00  0.00    +0.021 A 
ATOM     18  C   UNL     1       6.663   0.317  -5.226  0.00  0.00    +0.114 A 
ATOM     19  N   UNL     1       6.365  -0.194  -6.404  0.00  0.00    -0.220 NA
ATOM     20  C   UNL     1       5.114  -0.319  -6.814  0.00  0.00    +0.233 A 
BRANCH  20  21
ATOM     21  O   UNL     1       4.854  -0.856  -8.030  0.00  0.00    -0.437 OA
BRANCH  21  22
ATOM     22  C   UNL     1       5.908  -1.165  -8.829  0.00  0.00    +0.130 A 
ATOM     23  C   UNL     1       6.638  -2.322  -8.600  0.00  0.00    +0.048 A 
ATOM     24  C   UNL     1       7.709  -2.635  -9.415  0.00  0.00    +0.023 A 
ATOM     25  C   UNL     1       8.054  -1.795 -10.458  0.00  0.00    +0.041 A 
ATOM     26  C   UNL     1       7.328  -0.640 -10.688  0.00  0.00    +0.023 A 
ATOM     27  C   UNL     1       6.253  -0.326  -9.880  0.00  0.00    +0.048 A 
ATOM     28 CL   UNL     1       9.401  -2.190 -11.480  0.00  0.00    -0.084 Cl
ENDBRANCH  21  22
ENDBRANCH  20  21
ENDBRANCH  11  15
BRANCH   1  30
ATOM     29  N   UNL     1      -0.168  -2.369  -1.613  0.00  0.00    -0.312 N 
ATOM     30  C   UNL     1       0.188  -1.343  -2.412  0.00  0.00    +0.218 C 
ATOM     31  O   UNL     1      -0.062  -0.203  -2.082  0.00  0.00    -0.275 OA
ATOM     32  H   UNL     1       0.032  -3.281  -1.876  0.00  0.00    +0.149 HD
BRANCH  29  34
ATOM     33  C   UNL     1       0.175  -1.808   0.743  0.00  0.00    +0.028 C 
ATOM     34  C   UNL     1      -0.857  -2.107  -0.347  0.00  0.00    +0.072 C 
BRANCH  34  35
ATOM     35  C   UNL     1      -1.678  -3.335   0.051  0.00  0.00    +0.003 C 
ATOM     36  C   UNL     1      -2.397  -3.061   1.373  0.00  0.00    +0.009 C 
ATOM     37  C   UNL     1      -2.709  -3.634  -1.039  0.00  0.00    +0.009 C 
ENDBRANCH  34  35
ENDBRANCH  29  34
ENDBRANCH   1  30
TORSDOF 6
