REMARK  Name = ZINC20573209
REMARK  8 active torsions:
REMARK  status: ('A' for Active; 'I' for Inactive)
REMARK    1  A    between atoms: C_1  and  C_2
REMARK    2  A    between atoms: C_2  and  C_3
REMARK    3  A    between atoms: C_2  and  C_4
REMARK    4  A    between atoms: C_2  and  C_5
REMARK    5  A    between atoms: C_8  and  C_11
REMARK    6  A    between atoms: N_13  and  C_14
REMARK    7  A    between atoms: C_14  and  C_15
REMARK    8  A    between atoms: C_15  and  C_16
REMARK                            x       y       z     vdW  Elec       q    Type
REMARK                         _______ _______ _______ _____ _____    ______ ____
ROOT
ATOM      1  C   UNL     1       6.810  -1.956  -7.406  0.00  0.00    +0.217 C 
ATOM      2  O   UNL     1       6.221  -2.653  -8.204  0.00  0.00    -0.276 OA
ATOM      3  N   UNL     1       8.095  -1.616  -7.627  0.00  0.00    -0.301 N 
ATOM      4  C   UNL     1       8.824  -0.777  -6.665  0.00  0.00    +0.110 C 
ATOM      5  C   UNL     1      10.119  -1.494  -6.268  0.00  0.00    +0.047 C 
ATOM      6  C   UNL     1      10.912  -1.843  -7.528  0.00  0.00    +0.064 C 
ATOM      7  C   UNL     1      10.090  -2.780  -8.414  0.00  0.00    +0.047 C 
ATOM      8  C   UNL     1       8.797  -2.082  -8.831  0.00  0.00    +0.110 C 
ATOM      9  C   UNL     1      12.205  -2.515  -7.143  0.00  0.00    +0.057 A 
ATOM     10  C   UNL     1      13.395  -2.212  -7.710  0.00  0.00    +0.039 A 
ATOM     11  N   UNL     1      14.332  -3.001  -7.123  0.00  0.00    -0.349 N 
ATOM     12  H   UNL     1      15.282  -3.013  -7.319  0.00  0.00    +0.166 HD
ATOM     13  C   UNL     1      13.688  -3.768  -6.212  0.00  0.00    +0.171 A 
ATOM     14  N   UNL     1      12.414  -3.468  -6.233  0.00  0.00    -0.348 N 
ATOM     15  C   UNL     1      13.560  -1.177  -8.793  0.00  0.00    +0.070 C 
ATOM     16  C   UNL     1      12.169  -0.872  -9.368  0.00  0.00    +0.088 C 
ATOM     17  N   UNL     1      11.227  -0.613  -8.270  0.00  0.00    -0.305 NA
ATOM     18  H   UNL     1      10.386  -0.171  -8.612  0.00  0.00    +0.123 HD
ATOM     19  H   UNL     1      11.732  -3.873  -5.677  0.00  0.00    +0.166 HD
ENDROOT
BRANCH   1  20
ATOM     20  C   UNL     1       6.104  -1.469  -6.166  0.00  0.00    +0.114 C 
BRANCH  20  21
ATOM     21  C   UNL     1       4.667  -1.994  -6.158  0.00  0.00    +0.113 C 
BRANCH  21  24
ATOM     22  C   UNL     1       2.696  -1.860  -4.732  0.00  0.00    +0.244 C 
ATOM     23  O   UNL     1       2.106  -2.559  -5.533  0.00  0.00    -0.270 OA
ATOM     24  N   UNL     1       3.981  -1.521  -4.953  0.00  0.00    -0.311 N 
ATOM     25  H   UNL     1       4.452  -0.963  -4.314  0.00  0.00    +0.149 HD
BRANCH  22  29
ATOM     26  C   UNL     1       0.707  -0.490  -1.238  0.00  0.00    -0.042 A 
ATOM     27  C   UNL     1       0.033  -1.285  -2.147  0.00  0.00    +0.005 A 
ATOM     28  C   UNL     1       0.672  -1.733  -3.284  0.00  0.00    +0.013 A 
ATOM     29  C   UNL     1       2.004  -1.383  -3.516  0.00  0.00    +0.037 A 
ATOM     30  C   UNL     1       2.679  -0.581  -2.595  0.00  0.00    +0.013 A 
ATOM     31  C   UNL     1       2.025  -0.135  -1.464  0.00  0.00    +0.005 A 
BRANCH  26  33
ATOM     32  C   UNL     1      -0.019   1.526   0.010  0.00  0.00    +0.015 C 
ATOM     33  C   UNL     1       0.002  -0.004   0.002  0.00  0.00    -0.013 C 
ATOM     34  C   UNL     1       0.742  -0.511   1.242  0.00  0.00    +0.015 C 
ATOM     35  C   UNL     1      -1.433  -0.534   0.013  0.00  0.00    +0.015 C 
ENDBRANCH  26  33
ENDBRANCH  22  29
ENDBRANCH  21  24
ENDBRANCH  20  21
ENDBRANCH   1  20
TORSDOF 5
