REMARK  Name = ZINC35450235
REMARK  12 active torsions:
REMARK  status: ('A' for Active; 'I' for Inactive)
REMARK    1  A    between atoms: C_1  and  C_2
REMARK    2  A    between atoms: C_2  and  C_3
REMARK    3  A    between atoms: C_3  and  C_5
REMARK    4  A    between atoms: C_3  and  S_6
REMARK    5  A    between atoms: S_6  and  C_7
REMARK    6  A    between atoms: C_14  and  C_26
REMARK    7  A    between atoms: C_20  and  C_24
REMARK    8  A    between atoms: C_20  and  C_25
REMARK    9  A    between atoms: C_29  and  O_34
REMARK   10  A    between atoms: C_30  and  O_32
REMARK   11  A    between atoms: O_32  and  C_33
REMARK   12  A    between atoms: O_34  and  C_35
REMARK                            x       y       z     vdW  Elec       q    Type
REMARK                         _______ _______ _______ _____ _____    ______ ____
ROOT
ATOM      1  C   UNL     1       3.102  -0.498  -2.760  0.00  0.00    +0.171 A 
ATOM      2  N   UNL     1       2.304  -1.089  -3.626  0.00  0.00    -0.208 NA
ATOM      3  C   UNL     1       2.754  -1.484  -4.821  0.00  0.00    +0.135 A 
ATOM      4  C   UNL     1       4.078  -1.271  -5.163  0.00  0.00    +0.069 A 
ATOM      5  C   UNL     1       4.922  -0.646  -4.239  0.00  0.00    +0.258 A 
ATOM      6  O   UNL     1       6.096  -0.444  -4.506  0.00  0.00    -0.267 OA
ATOM      7  N   UNL     1       4.413  -0.265  -3.049  0.00  0.00    -0.302 N 
ATOM      8  C   UNL     1       4.602  -1.697  -6.503  0.00  0.00    +0.093 C 
ATOM      9  C   UNL     1       3.688  -2.701  -7.156  0.00  0.00    +0.024 C 
ATOM     10  C   UNL     1       2.412  -2.859  -6.744  0.00  0.00    +0.017 C 
ATOM     11  N   UNL     1       1.908  -2.108  -5.717  0.00  0.00    -0.302 N 
ATOM     12  C   UNL     1       1.503  -3.870  -7.399  0.00  0.00    +0.058 C 
ATOM     13  C   UNL     1       1.891  -4.034  -8.870  0.00  0.00    -0.023 C 
ATOM     14  C   UNL     1       3.356  -4.478  -8.937  0.00  0.00    +0.086 C 
ATOM     15  C   UNL     1       4.206  -3.470  -8.214  0.00  0.00    +0.162 C 
ATOM     16  O   UNL     1       5.364  -3.316  -8.550  0.00  0.00    -0.292 OA
ATOM     17  C   UNL     1       1.001  -5.093  -9.523  0.00  0.00    +0.011 C 
ATOM     18  C   UNL     1       1.723  -2.699  -9.598  0.00  0.00    +0.011 C 
ATOM     19  H   UNL     1       0.948  -2.014  -5.616  0.00  0.00    +0.153 HD
ATOM     20  H   UNL     1       4.982   0.173  -2.396  0.00  0.00    +0.171 HD
ENDROOT
BRANCH   8  21
ATOM     21  C   UNL     1       4.721  -0.487  -7.393  0.00  0.00    -0.032 A 
ATOM     22  C   UNL     1       3.599   0.267  -7.685  0.00  0.00    +0.008 A 
ATOM     23  C   UNL     1       3.703   1.378  -8.501  0.00  0.00    +0.050 A 
ATOM     24  C   UNL     1       4.933   1.738  -9.028  0.00  0.00    +0.162 A 
ATOM     25  C   UNL     1       6.062   0.980  -8.734  0.00  0.00    +0.162 A 
ATOM     26  C   UNL     1       5.952  -0.130  -7.911  0.00  0.00    +0.054 A 
BRANCH  25  27
ATOM     27  O   UNL     1       7.271   1.329  -9.249  0.00  0.00    -0.491 OA
ATOM     28  C   UNL     1       8.386   0.504  -8.904  0.00  0.00    +0.277 C 
ENDBRANCH  25  27
BRANCH  24  29
ATOM     29  O   UNL     1       5.036   2.830  -9.832  0.00  0.00    -0.491 OA
ATOM     30  C   UNL     1       3.836   3.561 -10.091  0.00  0.00    +0.277 C 
ENDBRANCH  24  29
ENDBRANCH   8  21
BRANCH   1  31
ATOM     31  S   UNL     1       2.460   0.006  -1.198  0.00  0.00    -0.085 S 
BRANCH  31  32
ATOM     32  C   UNL     1       0.718  -0.497  -1.257  0.00  0.00    +0.051 C 
ATOM     33  C   UNL     1       0.630  -2.023  -1.329  0.00  0.00    +0.019 C 
BRANCH  32  35
ATOM     34  C   UNL     1      -0.019   1.526   0.010  0.00  0.00    +0.005 C 
ATOM     35  C   UNL     1       0.002  -0.004   0.002  0.00  0.00    +0.011 C 
ENDBRANCH  32  35
ENDBRANCH  31  32
ENDBRANCH   1  31
TORSDOF 6
