REMARK  Name = ZINC67396163
REMARK  13 active torsions:
REMARK  status: ('A' for Active; 'I' for Inactive)
REMARK    1  A    between atoms: C_1  and  C_2
REMARK    2  A    between atoms: C_2  and  N_3
REMARK    3  A    between atoms: N_3  and  C_4
REMARK    4  A    between atoms: N_3  and  C_6
REMARK    5  A    between atoms: C_4  and  C_5
REMARK    6  A    between atoms: C_6  and  C_7
REMARK    7  A    between atoms: C_12  and  N_13
REMARK    8  A    between atoms: C_14  and  C_16
REMARK    9  A    between atoms: N_18  and  C_19
REMARK   10  A    between atoms: C_19  and  C_21
REMARK   11  A    between atoms: C_19  and  C_22
REMARK   12  A    between atoms: C_22  and  C_23
REMARK   13  A    between atoms: C_26  and  O_29
REMARK                            x       y       z     vdW  Elec       q    Type
REMARK                         _______ _______ _______ _____ _____    ______ ____
ROOT
ATOM      1  N   UNL     1       4.288  -1.815   0.840  0.00  0.00    -0.278 N 
ATOM      2  C   UNL     1       5.593  -1.510   0.697  0.00  0.00    +0.303 C 
ATOM      3  O   UNL     1       6.111  -1.557  -0.400  0.00  0.00    -0.265 OA
ATOM      4  H   UNL     1       3.857  -1.710   1.702  0.00  0.00    +0.155 HD
ENDROOT
BRANCH   1  10
ATOM      5  C   UNL     1       2.209  -1.963  -0.378  0.00  0.00    -0.043 A 
ATOM      6  C   UNL     1       1.490  -2.422  -1.464  0.00  0.00    +0.003 A 
ATOM      7  C   UNL     1       2.107  -3.201  -2.425  0.00  0.00    +0.000 A 
ATOM      8  C   UNL     1       3.446  -3.525  -2.302  0.00  0.00    +0.002 A 
ATOM      9  C   UNL     1       4.171  -3.071  -1.219  0.00  0.00    +0.023 A 
ATOM     10  C   UNL     1       3.556  -2.282  -0.255  0.00  0.00    +0.035 A 
BRANCH   5  11
ATOM     11  C   UNL     1       1.536  -1.114   0.669  0.00  0.00    -0.041 C 
BRANCH  11  12
ATOM     12  N   UNL     1       1.854   0.300   0.430  0.00  0.00    +0.382 N 
ATOM     13  H   UNL     1       2.855   0.419   0.399  0.00  0.00    -0.081 HD
BRANCH  12  15
ATOM     14  C   UNL     1       1.718   2.153  -1.166  0.00  0.00    -0.017 C 
ATOM     15  C   UNL     1       1.270   0.725  -0.849  0.00  0.00    -0.082 C 
ENDBRANCH  12  15
BRANCH  12  16
ATOM     16  C   UNL     1       1.298   1.117   1.517  0.00  0.00    -0.082 C 
ATOM     17  C   UNL     1       2.007   0.773   2.828  0.00  0.00    -0.017 C 
ENDBRANCH  12  16
ENDBRANCH  11  12
ENDBRANCH   5  11
ENDBRANCH   1  10
BRANCH   2  18
ATOM     18  C   UNL     1       6.403  -1.115   1.888  0.00  0.00    +0.300 C 
ATOM     19  O   UNL     1       5.885  -1.068   2.985  0.00  0.00    -0.265 OA
ATOM     20  N   UNL     1       7.708  -0.810   1.745  0.00  0.00    -0.305 N 
ATOM     21  H   UNL     1       8.121  -0.848   0.869  0.00  0.00    +0.149 HD
BRANCH  20  22
ATOM     22  C   UNL     1       8.502  -0.422   2.914  0.00  0.00    +0.075 C 
ATOM     23  C   UNL     1       8.331   1.076   3.171  0.00  0.00    +0.028 C 
BRANCH  22  24
ATOM     24  C   UNL     1       9.977  -0.730   2.652  0.00  0.00    +0.057 C 
BRANCH  24  25
ATOM     25  C   UNL     1      10.164  -2.220   2.520  0.00  0.00    -0.045 A 
ATOM     26  C   UNL     1      10.436  -2.983   3.640  0.00  0.00    +0.007 A 
ATOM     27  C   UNL     1      10.608  -4.349   3.522  0.00  0.00    +0.045 A 
ATOM     28  C   UNL     1      10.507  -4.954   2.277  0.00  0.00    +0.117 A 
ATOM     29  C   UNL     1      10.234  -4.186   1.155  0.00  0.00    +0.045 A 
ATOM     30  C   UNL     1      10.058  -2.821   1.280  0.00  0.00    +0.007 A 
BRANCH  28  31
ATOM     31  O   UNL     1      10.676  -6.297   2.158  0.00  0.00    -0.507 OA
ATOM     32  H   UNL     1       9.860  -6.806   2.252  0.00  0.00    +0.292 HD
ENDBRANCH  28  31
ENDBRANCH  24  25
ENDBRANCH  22  24
ENDBRANCH  20  22
ENDBRANCH   2  18
TORSDOF 10
