REMARK  Name = ZINC20362934
REMARK  15 active torsions:
REMARK  status: ('A' for Active; 'I' for Inactive)
REMARK    1  A    between atoms: C_1  and  C_2
REMARK    2  A    between atoms: C_2  and  C_4
REMARK    3  A    between atoms: C_2  and  N_11
REMARK    4  A    between atoms: C_4  and  C_5
REMARK    5  A    between atoms: C_5  and  C_6
REMARK    6  A    between atoms: C_6  and  C_7
REMARK    7  A    between atoms: C_7  and  C_8
REMARK    8  A    between atoms: C_7  and  C_9
REMARK    9  A    between atoms: C_7  and  O_10
REMARK   10  A    between atoms: N_11  and  C_12
REMARK   11  A    between atoms: C_12  and  C_13
REMARK   12  A    between atoms: N_21  and  C_24
REMARK   13  A    between atoms: C_24  and  C_25
REMARK   14  A    between atoms: C_25  and  S_26
REMARK   15  A    between atoms: S_26  and  C_29
REMARK                            x       y       z     vdW  Elec       q    Type
REMARK                         _______ _______ _______ _____ _____    ______ ____
ROOT
ATOM      1  C   UNL     1      -1.672   5.123  -2.084  0.00  0.00    +0.001 A 
ATOM      2  C   UNL     1      -1.072   5.729  -3.138  0.00  0.00    +0.017 A 
ATOM      3  C   UNL     1      -0.973   7.189  -3.142  0.00  0.00    -0.001 A 
ATOM      4  C   UNL     1      -0.366   7.871  -4.202  0.00  0.00    +0.011 A 
ATOM      5  C   UNL     1      -0.289   9.234  -4.176  0.00  0.00    +0.021 A 
ATOM      6  C   UNL     1      -0.809   9.951  -3.105  0.00  0.00    +0.043 A 
ATOM      7  C   UNL     1      -1.412   9.300  -2.049  0.00  0.00    +0.046 A 
ATOM      8  C   UNL     1      -1.502   7.912  -2.055  0.00  0.00    +0.053 A 
ATOM      9  N   UNL     1      -2.100   7.235  -1.013  0.00  0.00    -0.306 N 
ATOM     10  C   UNL     1      -2.191   5.894  -1.022  0.00  0.00    +0.253 A 
ATOM     11  O   UNL     1      -2.730   5.329  -0.086  0.00  0.00    -0.267 OA
ATOM     12 CL   UNL     1      -0.698  11.683  -3.095  0.00  0.00    -0.083 Cl
ENDROOT
BRANCH   1  13
ATOM     13  C   UNL     1      -1.792   3.621  -2.049  0.00  0.00    -0.041 C 
BRANCH  13  14
ATOM     14  N   UNL     1      -0.669   3.058  -1.286  0.00  0.00    +0.384 N 
ATOM     15  H   UNL     1      -0.698   3.466  -0.265  0.00  0.00    -0.085 HD
ATOM     16  H   UNL     1       0.272   3.354  -1.773  0.00  0.00    -0.085 HD
BRANCH  14  18
ATOM     17  C   UNL     1      -0.111   0.998  -2.487  0.00  0.00    -0.014 C 
ATOM     18  C   UNL     1      -0.753   1.593  -1.232  0.00  0.00    -0.075 C 
BRANCH  18  19
ATOM     19  C   UNL     1      -0.013   1.086   0.008  0.00  0.00    -0.016 C 
BRANCH  19  20
ATOM     20  C   UNL     1      -0.729   1.579   1.267  0.00  0.00    +0.001 C 
BRANCH  20  21
ATOM     21  C   UNL     1       0.011   1.072   2.506  0.00  0.00    +0.034 C 
BRANCH  21  22
ATOM     22  C   UNL     1      -0.705   1.566   3.765  0.00  0.00    +0.061 C 
ATOM     23  C   UNL     1       0.102   1.165   5.001  0.00  0.00    +0.041 C 
ATOM     24  C   UNL     1      -0.836   3.089   3.713  0.00  0.00    +0.041 C 
BRANCH  22  25
ATOM     25  O   UNL     1      -2.006   0.978   3.835  0.00  0.00    -0.389 OA
ATOM     26  H   UNL     1      -2.673   1.216   4.676  0.00  0.00    +0.210 HD
ENDBRANCH  22  25
ENDBRANCH  21  22
ENDBRANCH  20  21
ENDBRANCH  19  20
ENDBRANCH  18  19
ENDBRANCH  14  18
ENDBRANCH  13  14
ENDBRANCH   1  13
BRANCH   9  27
ATOM     27  C   UNL     1      -2.649   7.989   0.117  0.00  0.00    +0.148 C 
BRANCH  27  28
ATOM     28  C   UNL     1      -4.112   8.337  -0.165  0.00  0.00    +0.193 C 
BRANCH  28  29
ATOM     29  S   UNL     1      -4.792   9.270   1.234  0.00  0.00    -0.001 S 
ATOM     30  O   UNL     1      -4.883   8.436   2.380  0.00  0.00    -0.169 OA
ATOM     31  O   UNL     1      -4.176  10.548   1.315  0.00  0.00    -0.169 OA
BRANCH  29  32
ATOM     32  C   UNL     1      -6.463   9.604   0.786  0.00  0.00    +0.088 A 
ATOM     33  C   UNL     1      -6.776  10.762   0.099  0.00  0.00    +0.027 A 
ATOM     34  C   UNL     1      -8.087  11.021  -0.257  0.00  0.00    +0.002 A 
ATOM     35  C   UNL     1      -9.085  10.128   0.084  0.00  0.00    +0.000 A 
ATOM     36  C   UNL     1      -8.773   8.973   0.776  0.00  0.00    +0.002 A 
ATOM     37  C   UNL     1      -7.462   8.711   1.127  0.00  0.00    +0.027 A 
ENDBRANCH  29  32
ENDBRANCH  28  29
ENDBRANCH  27  28
ENDBRANCH   9  27
TORSDOF 12
