REMARK  Name = ZINC39193387
REMARK  14 active torsions:
REMARK  status: ('A' for Active; 'I' for Inactive)
REMARK    1  A    between atoms: C_1  and  C_2
REMARK    2  A    between atoms: C_2  and  O_3
REMARK    3  A    between atoms: O_3  and  C_4
REMARK    4  A    between atoms: C_4  and  C_6
REMARK    5  A    between atoms: C_7  and  C_38
REMARK    6  A    between atoms: C_8  and  C_13
REMARK    7  A    between atoms: C_9  and  C_12
REMARK    8  A    between atoms: C_13  and  O_15
REMARK    9  A    between atoms: O_15  and  C_16
REMARK   10  A    between atoms: C_16  and  C_17
REMARK   11  A    between atoms: C_20  and  C_33
REMARK   12  A    between atoms: C_23  and  C_25
REMARK   13  A    between atoms: C_28  and  O_31
REMARK   14  A    between atoms: O_31  and  C_32
REMARK                            x       y       z     vdW  Elec       q    Type
REMARK                         _______ _______ _______ _____ _____    ______ ____
ROOT
ATOM      1  C   UNL     1       5.620  -7.189  -4.790  0.00  0.00    +0.273 C 
ATOM      2  O   UNL     1       6.253  -6.568  -3.963  0.00  0.00    -0.270 OA
ATOM      3  N   UNL     1       6.142  -8.302  -5.342  0.00  0.00    -0.179 N 
ATOM      4  C   UNL     1       7.460  -8.876  -5.029  0.00  0.00    +0.173 C 
ATOM      5  C   UNL     1       7.538 -10.120  -5.934  0.00  0.00    +0.090 C 
ATOM      6  C   UNL     1       6.221 -10.112  -6.678  0.00  0.00    +0.069 C 
ATOM      7  N   UNL     1       5.519  -9.101  -6.298  0.00  0.00    -0.181 NA
ENDROOT
BRANCH   6   8
ATOM      8  C   UNL     1       5.804 -11.111  -7.679  0.00  0.00    -0.002 A 
ATOM      9  C   UNL     1       6.649 -12.175  -8.002  0.00  0.00    +0.013 A 
ATOM     10  C   UNL     1       6.254 -13.106  -8.938  0.00  0.00    +0.046 A 
ATOM     11  C   UNL     1       5.018 -12.988  -9.560  0.00  0.00    +0.120 A 
ATOM     12  C   UNL     1       4.174 -11.931  -9.242  0.00  0.00    +0.046 A 
ATOM     13  C   UNL     1       4.558 -10.999  -8.303  0.00  0.00    +0.013 A 
BRANCH  11  14
ATOM     14  O   UNL     1       4.633 -13.908 -10.483  0.00  0.00    -0.495 OA
ATOM     15  C   UNL     1       3.349 -13.726 -11.084  0.00  0.00    +0.277 C 
ENDBRANCH  11  14
ENDBRANCH   6   8
BRANCH   4  16
ATOM     16  C   UNL     1       8.558  -7.900  -5.368  0.00  0.00    +0.128 A 
ATOM     17  C   UNL     1       9.680  -7.698  -4.654  0.00  0.00    +0.046 A 
ATOM     18  C   UNL     1      10.422  -6.703  -5.330  0.00  0.00    +0.041 A 
ATOM     19  C   UNL     1       9.709  -6.356  -6.417  0.00  0.00    +0.195 A 
ATOM     20  O   UNL     1       8.584  -7.088  -6.438  0.00  0.00    -0.466 OA
ENDBRANCH   4  16
BRANCH   1  21
ATOM     21  C   UNL     1       4.250  -6.715  -5.201  0.00  0.00    +0.330 C 
BRANCH  21  22
ATOM     22  O   UNL     1       3.921  -5.525  -4.482  0.00  0.00    -0.452 OA
BRANCH  22  23
ATOM     23  C   UNL     1       2.720  -4.969  -4.735  0.00  0.00    +0.342 C 
ATOM     24  O   UNL     1       1.972  -5.481  -5.544  0.00  0.00    -0.245 OA
BRANCH  23  27
ATOM     25  C   UNL     1       1.450  -2.345  -2.518  0.00  0.00    +0.128 A 
ATOM     26  C   UNL     1       1.618  -3.668  -2.803  0.00  0.00    -0.005 A 
ATOM     27  C   UNL     1       2.314  -3.741  -4.030  0.00  0.00    +0.083 A 
ATOM     28  C   UNL     1       2.542  -2.442  -4.446  0.00  0.00    +0.028 A 
ATOM     29  N   UNL     1       2.016  -1.607  -3.535  0.00  0.00    -0.352 N 
ATOM     30  H   UNL     1       2.034  -0.639  -3.585  0.00  0.00    +0.166 HD
ATOM     31  C   UNL     1       3.256  -2.032  -5.708  0.00  0.00    +0.064 C 
ATOM     32  C   UNL     1       1.151  -4.832  -1.966  0.00  0.00    +0.047 C 
BRANCH  25  33
ATOM     33  C   UNL     1       0.776  -1.800  -1.335  0.00  0.00    +0.356 C 
ATOM     34  O   UNL     1       0.312  -2.552  -0.499  0.00  0.00    -0.243 OA
BRANCH  33  35
ATOM     35  O   UNL     1       0.671  -0.465  -1.174  0.00  0.00    -0.460 OA
BRANCH  35  37
ATOM     36  C   UNL     1      -0.019   1.526   0.010  0.00  0.00    +0.048 C 
ATOM     37  C   UNL     1       0.002  -0.004   0.002  0.00  0.00    +0.229 C 
ENDBRANCH  35  37
ENDBRANCH  33  35
ENDBRANCH  25  33
ENDBRANCH  23  27
ENDBRANCH  22  23
ENDBRANCH  21  22
ENDBRANCH   1  21
TORSDOF 10
