REMARK  Name = ZINC34700344
REMARK  7 active torsions:
REMARK  status: ('A' for Active; 'I' for Inactive)
REMARK    1  A    between atoms: C_1  and  C_2
REMARK    2  A    between atoms: C_9  and  C_11
REMARK    3  A    between atoms: C_11  and  C_12
REMARK    4  A    between atoms: C_12  and  C_13
REMARK    5  A    between atoms: C_12  and  C_14
REMARK    6  A    between atoms: C_12  and  C_15
REMARK    7  A    between atoms: C_26  and  C_29
REMARK                            x       y       z     vdW  Elec       q    Type
REMARK                         _______ _______ _______ _____ _____    ______ ____
ROOT
ATOM      1  C   UNL     1      -1.401  -0.703  -1.369  0.00  0.00    +0.029 C 
ATOM      2  C   UNL     1      -0.726  -1.320  -0.142  0.00  0.00    +0.090 C 
ATOM      3  C   UNL     1      -1.662  -1.215   1.068  0.00  0.00    +0.130 C 
ATOM      4  N   UNL     1      -1.751   0.195   1.472  0.00  0.00    -0.297 N 
ATOM      5  C   UNL     1      -0.511   0.925   1.772  0.00  0.00    +0.127 C 
ATOM      6  C   UNL     1       0.425   0.820   0.562  0.00  0.00    +0.127 C 
ATOM      7  N   UNL     1       0.516  -0.593   0.155  0.00  0.00    -0.296 N 
ATOM      8  C   UNL     1       1.711  -1.208   0.062  0.00  0.00    +0.216 C 
ATOM      9  O   UNL     1       1.768  -2.373  -0.271  0.00  0.00    -0.276 OA
ATOM     10  C   UNL     1      -2.971   0.820   1.567  0.00  0.00    +0.206 A 
ATOM     11  N   UNL     1      -3.429   1.463   0.526  0.00  0.00    -0.215 NA
ATOM     12  C   UNL     1      -4.624   2.105   0.542  0.00  0.00    +0.079 A 
ATOM     13  C   UNL     1      -5.097   2.787  -0.581  0.00  0.00    +0.048 A 
ATOM     14  C   UNL     1      -6.316   3.427  -0.530  0.00  0.00    +0.043 A 
ATOM     15  C   UNL     1      -7.083   3.403   0.628  0.00  0.00    +0.021 A 
ATOM     16  C   UNL     1      -6.637   2.736   1.749  0.00  0.00    +0.015 A 
ATOM     17  C   UNL     1      -5.408   2.083   1.717  0.00  0.00    +0.045 A 
ATOM     18  C   UNL     1      -4.883   1.357   2.879  0.00  0.00    +0.173 A 
ATOM     19  N   UNL     1      -3.660   0.737   2.748  0.00  0.00    -0.250 N 
ATOM     20  C   UNL     1      -3.421   0.144   3.950  0.00  0.00    +0.143 A 
ATOM     21  N   UNL     1      -4.443   0.400   4.723  0.00  0.00    -0.133 NA
ATOM     22  N   UNL     1      -5.306   1.123   4.098  0.00  0.00    -0.129 NA
ATOM     23 CL   UNL     1      -6.900   4.275  -1.928  0.00  0.00    -0.083 Cl
ENDROOT
BRANCH  20  24
ATOM     24  C   UNL     1      -2.202  -0.661   4.321  0.00  0.00    +0.058 C 
ATOM     25  C   UNL     1      -2.635  -2.031   4.845  0.00  0.00    +0.011 C 
ATOM     26  C   UNL     1      -1.397  -2.848   5.221  0.00  0.00    +0.001 C 
ATOM     27  C   UNL     1      -0.612  -2.112   6.309  0.00  0.00    +0.000 C 
ATOM     28  C   UNL     1      -0.178  -0.741   5.785  0.00  0.00    +0.001 C 
ATOM     29  C   UNL     1      -1.416   0.075   5.408  0.00  0.00    +0.011 C 
ENDBRANCH  20  24
BRANCH   8  30
ATOM     30  C   UNL     1       2.976  -0.450   0.370  0.00  0.00    +0.102 C 
BRANCH  30  31
ATOM     31  C   UNL     1       4.182  -1.373   0.189  0.00  0.00    -0.029 C 
ATOM     32  C   UNL     1       4.227  -1.874  -1.256  0.00  0.00    +0.011 C 
ATOM     33  C   UNL     1       5.466  -0.603   0.502  0.00  0.00    +0.011 C 
ATOM     34  C   UNL     1       4.058  -2.566   1.139  0.00  0.00    +0.011 C 
ENDBRANCH  30  31
ENDBRANCH   8  30
TORSDOF 3
