REMARK  Name = ZINC60341869
REMARK  12 active torsions:
REMARK  status: ('A' for Active; 'I' for Inactive)
REMARK    1  A    between atoms: C_1  and  C_2
REMARK    2  A    between atoms: C_2  and  N_3
REMARK    3  A    between atoms: C_6  and  C_13
REMARK    4  A    between atoms: C_8  and  C_10
REMARK    5  A    between atoms: C_10  and  C_11
REMARK    6  A    between atoms: C_10  and  C_12
REMARK    7  A    between atoms: N_15  and  C_16
REMARK    8  A    between atoms: C_16  and  C_17
REMARK    9  A    between atoms: C_17  and  C_18
REMARK   10  A    between atoms: C_17  and  C_19
REMARK   11  A    between atoms: C_17  and  N_20
REMARK   12  A    between atoms: C_24  and  C_27
REMARK                            x       y       z     vdW  Elec       q    Type
REMARK                         _______ _______ _______ _____ _____    ______ ____
ROOT
ATOM      1  N   UNL     1       1.762   1.549   1.847  0.00  0.00    -0.278 N 
ATOM      2  C   UNL     1       2.544   0.429   1.625  0.00  0.00    +0.151 A 
ATOM      3  C   UNL     1       3.253  -0.118   2.708  0.00  0.00    +0.094 A 
ATOM      4  C   UNL     1       4.052  -1.254   2.507  0.00  0.00    +0.054 A 
ATOM      5  C   UNL     1       4.102  -1.792   1.220  0.00  0.00    +0.037 A 
ATOM      6  C   UNL     1       3.372  -1.192   0.207  0.00  0.00    +0.047 A 
ATOM      7  N   UNL     1       2.630  -0.125   0.427  0.00  0.00    -0.233 NA
ATOM      8  C   UNL     1       3.132   0.526   4.027  0.00  0.00    +0.264 A 
ATOM      9  O   UNL     1       3.727   0.089   4.993  0.00  0.00    -0.267 OA
ATOM     10  N   UNL     1       2.340   1.617   4.134  0.00  0.00    -0.274 N 
ATOM     11  H   UNL     1       2.247   2.056   4.994  0.00  0.00    +0.173 HD
ATOM     12  C   UNL     1       1.687   2.105   3.068  0.00  0.00    +0.331 A 
ATOM     13  O   UNL     1       0.991   3.091   3.215  0.00  0.00    -0.246 OA
ENDROOT
BRANCH   4  14
ATOM     14  C   UNL     1       4.817  -1.862   3.622  0.00  0.00    +0.245 C 
ATOM     15  O   UNL     1       4.256  -2.137   4.665  0.00  0.00    -0.270 OA
ATOM     16  N   UNL     1       6.134  -2.109   3.480  0.00  0.00    -0.313 N 
ATOM     17  H   UNL     1       6.582  -1.890   2.648  0.00  0.00    +0.149 HD
BRANCH  16  18
ATOM     18  C   UNL     1       6.890  -2.710   4.582  0.00  0.00    +0.092 C 
BRANCH  18  19
ATOM     19  C   UNL     1       8.371  -2.778   4.207  0.00  0.00    -0.055 C 
ATOM     20  C   UNL     1       8.913  -1.361   4.010  0.00  0.00    -0.008 C 
ATOM     21  C   UNL     1       9.150  -3.470   5.328  0.00  0.00    -0.008 C 
BRANCH  19  22
ATOM     22  N   UNL     1       8.526  -3.539   2.961  0.00  0.00    +0.384 N 
ATOM     23  C   UNL     1       8.037  -4.908   3.161  0.00  0.00    -0.078 C 
ATOM     24  C   UNL     1       8.120  -5.682   1.843  0.00  0.00    -0.018 C 
ATOM     25  C   UNL     1       9.578  -5.723   1.374  0.00  0.00    -0.001 C 
ATOM     26  C   UNL     1      10.101  -4.290   1.240  0.00  0.00    -0.031 C 
ATOM     27  C   UNL     1       9.944  -3.568   2.580  0.00  0.00    -0.075 C 
ATOM     28  C   UNL     1      11.579  -4.321   0.845  0.00  0.00    +0.005 C 
ATOM     29  H   UNL     1       7.991  -3.096   2.229  0.00  0.00    -0.081 HD
ENDBRANCH  19  22
ENDBRANCH  18  19
ENDBRANCH  16  18
ENDBRANCH   4  14
BRANCH   6  30
ATOM     30  C   UNL     1       3.427  -1.774  -1.182  0.00  0.00    +0.032 C 
ATOM     31  C   UNL     1       4.646  -1.216  -1.920  0.00  0.00    +0.014 C 
ATOM     32  C   UNL     1       3.538  -3.297  -1.093  0.00  0.00    +0.014 C 
ENDBRANCH   6  30
BRANCH   1  34
ATOM     33  C   UNL     1       1.879   3.188   0.035  0.00  0.00    +0.027 C 
ATOM     34  C   UNL     1       1.012   2.140   0.736  0.00  0.00    +0.125 C 
ENDBRANCH   1  34
TORSDOF 6
