REMARK  Name = ZINC35095759
REMARK  12 active torsions:
REMARK  status: ('A' for Active; 'I' for Inactive)
REMARK    1  A    between atoms: C_1  and  C_2
REMARK    2  A    between atoms: C_2  and  N_3
REMARK    3  A    between atoms: N_3  and  C_4
REMARK    4  A    between atoms: N_3  and  C_25
REMARK    5  A    between atoms: C_4  and  C_5
REMARK    6  A    between atoms: C_5  and  N_6
REMARK    7  A    between atoms: N_9  and  S_12
REMARK    8  A    between atoms: S_12  and  C_15
REMARK    9  A    between atoms: C_19  and  N_21
REMARK   10  A    between atoms: C_25  and  C_26
REMARK   11  A    between atoms: C_34  and  C_35
REMARK   12  A    between atoms: C_34  and  C_36
REMARK                            x       y       z     vdW  Elec       q    Type
REMARK                         _______ _______ _______ _____ _____    ______ ____
ROOT
ATOM      1  N   UNL     1       3.320   2.058  -0.989  0.00  0.00    -0.302 NA
ATOM      2  C   UNL     1       3.959   1.613   0.256  0.00  0.00    +0.101 C 
ATOM      3  C   UNL     1       5.443   1.995   0.230  0.00  0.00    +0.125 C 
ATOM      4  N   UNL     1       5.549   3.437  -0.042  0.00  0.00    -0.174 NA
ATOM      5  C   UNL     1       4.821   3.982  -1.198  0.00  0.00    +0.125 C 
ATOM      6  C   UNL     1       3.362   3.521  -1.116  0.00  0.00    +0.101 C 
ENDROOT
BRANCH   4   7
ATOM      7  S   UNL     1       6.464   4.420   0.927  0.00  0.00    +0.061 S 
ATOM      8  O   UNL     1       5.943   5.734   0.780  0.00  0.00    -0.153 OA
ATOM      9  O   UNL     1       6.557   3.773   2.189  0.00  0.00    -0.153 OA
BRANCH   7  10
ATOM     10  C   UNL     1       8.092   4.445   0.253  0.00  0.00    +0.108 A 
ATOM     11  C   UNL     1       9.024   3.510   0.662  0.00  0.00    +0.030 A 
ATOM     12  C   UNL     1      10.301   3.529   0.134  0.00  0.00    +0.024 A 
ATOM     13  C   UNL     1      10.647   4.485  -0.805  0.00  0.00    +0.071 A 
ATOM     14  C   UNL     1       9.714   5.421  -1.213  0.00  0.00    +0.146 A 
ATOM     15  C   UNL     1       8.435   5.398  -0.688  0.00  0.00    +0.062 A 
ATOM     16 CL   UNL     1      12.251   4.511  -1.468  0.00  0.00    -0.081 Cl
BRANCH  14  17
ATOM     17  N   UNL     1      10.083   6.445  -2.217  0.00  0.00    +0.058 N 
ATOM     18  O   UNL     1       9.268   7.263  -2.574  0.00  0.00    -0.126 OA
ATOM     19  O   UNL     1      11.200   6.463  -2.680  0.00  0.00    -0.126 OA
ENDBRANCH  14  17
ENDBRANCH   7  10
ENDBRANCH   4   7
BRANCH   1  20
ATOM     20  C   UNL     1       1.941   1.561  -1.080  0.00  0.00    +0.066 C 
BRANCH  20  21
ATOM     21  C   UNL     1       1.955   0.036  -1.195  0.00  0.00    -0.063 C 
BRANCH  21  22
ATOM     22  N   UNL     1       0.576  -0.470  -1.171  0.00  0.00    +0.383 N 
ATOM     23  H   UNL     1       0.106  -0.125  -0.348  0.00  0.00    -0.081 HD
BRANCH  22  25
ATOM     24  C   UNL     1       1.201  -2.419   0.174  0.00  0.00    -0.017 C 
ATOM     25  C   UNL     1       0.594  -1.939  -1.145  0.00  0.00    -0.082 C 
ENDBRANCH  22  25
BRANCH  22  26
ATOM     26  C   UNL     1      -0.135  -0.010  -2.371  0.00  0.00    -0.047 C 
BRANCH  26  27
ATOM     27  C   UNL     1      -1.582  -0.424  -2.287  0.00  0.00    -0.086 C 
ATOM     28  C   UNL     1      -2.500   0.394  -1.826  0.00  0.00    -0.029 C 
ATOM     29  C   UNL     1      -3.937  -0.064  -1.751  0.00  0.00    +0.031 C 
ATOM     30  C   UNL     1      -4.062  -1.475  -2.341  0.00  0.00    -0.000 C 
ATOM     31  C   UNL     1      -3.295  -1.639  -3.664  0.00  0.00    +0.012 C 
ATOM     32  C   UNL     1      -2.035  -1.802  -2.739  0.00  0.00    +0.019 C 
ATOM     33  C   UNL     1      -3.016  -2.423  -1.720  0.00  0.00    -0.025 C 
ATOM     34  C   UNL     1      -3.303  -3.906  -1.964  0.00  0.00    +0.012 C 
ATOM     35  C   UNL     1      -2.682  -2.107  -0.261  0.00  0.00    +0.012 C 
ENDBRANCH  26  27
ENDBRANCH  22  26
ENDBRANCH  21  22
ENDBRANCH  20  21
ENDBRANCH   1  20
TORSDOF 9
