REMARK  Name = ZINC35000154
REMARK  14 active torsions:
REMARK  status: ('A' for Active; 'I' for Inactive)
REMARK    1  A    between atoms: C_1  and  C_2
REMARK    2  A    between atoms: C_2  and  C_3
REMARK    3  A    between atoms: C_3  and  C_4
REMARK    4  A    between atoms: C_4  and  N_5
REMARK    5  A    between atoms: C_13  and  C_15
REMARK    6  A    between atoms: C_16  and  C_18
REMARK    7  A    between atoms: C_18  and  C_20
REMARK    8  A    between atoms: C_18  and  N_31
REMARK    9  A    between atoms: C_20  and  C_21
REMARK   10  A    between atoms: C_32  and  C_34
REMARK   11  A    between atoms: C_34  and  C_35
REMARK   12  A    between atoms: C_35  and  C_36
REMARK   13  A    between atoms: C_35  and  C_37
REMARK   14  A    between atoms: C_35  and  C_38
REMARK                            x       y       z     vdW  Elec       q    Type
REMARK                         _______ _______ _______ _____ _____    ______ ____
ROOT
ATOM      1  C   UNL     1      -8.917  -4.650   1.634  0.00  0.00    +0.163 C 
ENDROOT
BRANCH   1  12
ATOM      2  N   UNL     1      -2.787  -2.571   0.016  0.00  0.00    -0.299 N 
ATOM      3  C   UNL     1      -3.015  -3.899   0.010  0.00  0.00    +0.303 C 
ATOM      4  O   UNL     1      -2.085  -4.675  -0.096  0.00  0.00    -0.253 OA
ATOM      5  N   UNL     1      -4.274  -4.367   0.121  0.00  0.00    -0.280 N 
ATOM      6  C   UNL     1      -5.417  -3.443   0.132  0.00  0.00    +0.128 C 
ATOM      7  C   UNL     1      -6.241  -3.698   1.400  0.00  0.00    +0.127 C 
ATOM      8  N   UNL     1      -6.496  -5.141   1.512  0.00  0.00    -0.297 N 
ATOM      9  C   UNL     1      -5.353  -6.065   1.501  0.00  0.00    +0.130 C 
ATOM     10  C   UNL     1      -4.529  -5.810   0.227  0.00  0.00    +0.092 C 
ATOM     11  C   UNL     1      -5.312  -6.285  -0.999  0.00  0.00    +0.030 C 
ATOM     12  C   UNL     1      -7.755  -5.609   1.623  0.00  0.00    +0.236 C 
ATOM     13  O   UNL     1      -7.953  -6.802   1.715  0.00  0.00    -0.274 OA
ATOM     14  H   UNL     1      -3.533  -1.950   0.027  0.00  0.00    +0.150 HD
BRANCH   2  15
ATOM     15  C   UNL     1      -1.412  -2.064   0.007  0.00  0.00    +0.106 C 
BRANCH  15  16
ATOM     16  C   UNL     1      -1.433  -0.534   0.017  0.00  0.00    +0.018 C 
BRANCH  16  18
ATOM     17  C   UNL     1      -0.018   1.525   0.018  0.00  0.00    +0.004 C 
ATOM     18  C   UNL     1       0.003  -0.004   0.008  0.00  0.00    -0.002 C 
ENDBRANCH  16  18
ENDBRANCH  15  16
ENDBRANCH   2  15
ENDBRANCH   1  12
BRANCH   1  19
ATOM     19  N   UNL     1     -10.146  -5.367   1.285  0.00  0.00    -0.304 N 
ATOM     20  C   UNL     1     -10.566  -6.396   2.049  0.00  0.00    +0.214 C 
ATOM     21  O   UNL     1      -9.926  -6.727   3.025  0.00  0.00    -0.276 OA
ATOM     22  H   UNL     1     -10.658  -5.102   0.505  0.00  0.00    +0.149 HD
BRANCH  20  23
ATOM     23  C   UNL     1     -11.830  -7.134   1.690  0.00  0.00    +0.102 C 
BRANCH  23  24
ATOM     24  C   UNL     1     -12.078  -8.246   2.711  0.00  0.00    -0.029 C 
ATOM     25  C   UNL     1     -12.222  -7.636   4.106  0.00  0.00    +0.011 C 
ATOM     26  C   UNL     1     -13.361  -8.995   2.347  0.00  0.00    +0.011 C 
ATOM     27  C   UNL     1     -10.898  -9.220   2.700  0.00  0.00    +0.011 C 
ENDBRANCH  23  24
ENDBRANCH  20  23
ENDBRANCH   1  19
BRANCH   1  28
ATOM     28  C   UNL     1      -9.062  -4.039   3.029  0.00  0.00    +0.069 C 
BRANCH  28  29
ATOM     29  C   UNL     1     -10.144  -2.990   3.009  0.00  0.00    -0.020 A 
ATOM     30  C   UNL     1      -9.973  -1.671   2.832  0.00  0.00    +0.087 A 
ATOM     31  N   UNL     1     -11.184  -1.034   2.875  0.00  0.00    -0.360 N 
ATOM     32  H   UNL     1     -11.315  -0.078   2.772  0.00  0.00    +0.165 HD
ATOM     33  C   UNL     1     -12.188  -1.952   3.085  0.00  0.00    +0.047 A 
ATOM     34  C   UNL     1     -11.581  -3.218   3.172  0.00  0.00    +0.003 A 
ATOM     35  C   UNL     1     -12.366  -4.354   3.381  0.00  0.00    +0.010 A 
ATOM     36  C   UNL     1     -13.722  -4.229   3.495  0.00  0.00    +0.001 A 
ATOM     37  C   UNL     1     -14.326  -2.983   3.406  0.00  0.00    +0.002 A 
ATOM     38  C   UNL     1     -13.569  -1.848   3.210  0.00  0.00    +0.026 A 
ENDBRANCH  28  29
ENDBRANCH   1  28
TORSDOF 9
