REMARK  Name = ZINC36660466
REMARK  10 active torsions:
REMARK  status: ('A' for Active; 'I' for Inactive)
REMARK    1  A    between atoms: C_1  and  C_2
REMARK    2  A    between atoms: C_4  and  C_35
REMARK    3  A    between atoms: N_11  and  C_12
REMARK    4  A    between atoms: C_12  and  C_13
REMARK    5  A    between atoms: C_13  and  N_14
REMARK    6  A    between atoms: N_14  and  C_15
REMARK    7  A    between atoms: N_14  and  C_16
REMARK    8  A    between atoms: C_17  and  C_19
REMARK    9  A    between atoms: N_24  and  S_25
REMARK   10  A    between atoms: S_25  and  C_28
REMARK                            x       y       z     vdW  Elec       q    Type
REMARK                         _______ _______ _______ _____ _____    ______ ____
ROOT
ATOM      1  C   UNL     1       0.829   1.035   0.398  0.00  0.00    +0.044 C 
ATOM      2  C   UNL     1       0.798  -0.463   0.237  0.00  0.00    -0.049 A 
ATOM      3  C   UNL     1       0.938  -1.036  -1.019  0.00  0.00    +0.009 A 
ATOM      4  C   UNL     1       0.913  -2.395  -1.194  0.00  0.00    -0.024 A 
ATOM      5  C   UNL     1       0.742  -3.262  -0.090  0.00  0.00    +0.083 A 
ATOM      6  C   UNL     1       0.603  -2.643   1.174  0.00  0.00    +0.041 A 
ATOM      7  C   UNL     1       0.635  -1.281   1.339  0.00  0.00    +0.020 A 
ATOM      8  S   UNL     1       0.417  -4.038   2.259  0.00  0.00    -0.052 S 
ATOM      9  C   UNL     1       0.532  -5.311   1.010  0.00  0.00    +0.168 A 
ATOM     10  N   UNL     1       0.696  -4.612  -0.089  0.00  0.00    -0.224 NA
ATOM     11  N   UNL     1       0.465  -6.686   1.162  0.00  0.00    -0.251 N 
ATOM     12  C   UNL     1       0.652  -7.492   0.098  0.00  0.00    +0.240 C 
ATOM     13  O   UNL     1       0.808  -7.013  -1.005  0.00  0.00    -0.273 OA
ATOM     14  C   UNL     1       1.068  -2.971  -2.577  0.00  0.00    +0.046 C 
ENDROOT
BRANCH  12  15
ATOM     15  C   UNL     1       0.666  -8.988   0.279  0.00  0.00    +0.166 C 
ATOM     16  C   UNL     1       2.102  -9.466   0.583  0.00  0.00    +0.031 C 
ATOM     17  C   UNL     1       2.196 -10.802  -0.201  0.00  0.00    +0.019 C 
ATOM     18  C   UNL     1       1.348 -10.486  -1.458  0.00  0.00    +0.110 C 
ATOM     19  N   UNL     1       0.237  -9.646  -0.964  0.00  0.00    -0.165 NA
BRANCH  19  20
ATOM     20  S   UNL     1      -1.243  -9.474  -1.686  0.00  0.00    +0.062 S 
ATOM     21  O   UNL     1      -1.480 -10.670  -2.417  0.00  0.00    -0.153 OA
ATOM     22  O   UNL     1      -2.133  -9.006  -0.682  0.00  0.00    -0.153 OA
BRANCH  20  23
ATOM     23  C   UNL     1      -1.096  -8.180  -2.872  0.00  0.00    +0.106 A 
ATOM     24  C   UNL     1      -1.444  -6.886  -2.530  0.00  0.00    +0.030 A 
ATOM     25  C   UNL     1      -1.329  -5.870  -3.460  0.00  0.00    +0.022 A 
ATOM     26  C   UNL     1      -0.866  -6.148  -4.734  0.00  0.00    +0.041 A 
ATOM     27  C   UNL     1      -0.518  -7.443  -5.076  0.00  0.00    +0.022 A 
ATOM     28  C   UNL     1      -0.628  -8.457  -4.143  0.00  0.00    +0.030 A 
ATOM     29 CL   UNL     1      -0.722  -4.873  -5.903  0.00  0.00    -0.084 Cl
ENDBRANCH  20  23
ENDBRANCH  19  20
ENDBRANCH  12  15
BRANCH  11  30
ATOM     30  C   UNL     1       0.191  -7.265   2.480  0.00  0.00    +0.097 C 
BRANCH  30  31
ATOM     31  C   UNL     1      -1.312  -7.507   2.628  0.00  0.00    -0.060 C 
BRANCH  31  32
ATOM     32  N   UNL     1      -1.587  -8.087   3.949  0.00  0.00    +0.377 N 
ATOM     33  C   UNL     1      -3.039  -8.209   4.138  0.00  0.00    -0.097 C 
ATOM     34  C   UNL     1      -0.969  -9.417   4.038  0.00  0.00    -0.097 C 
ATOM     35  H   UNL     1      -1.204  -7.489   4.665  0.00  0.00    -0.083 HD
ENDBRANCH  31  32
ENDBRANCH  30  31
ENDBRANCH  11  30
TORSDOF 6
