REMARK  Name = ZINC30879783
REMARK  10 active torsions:
REMARK  status: ('A' for Active; 'I' for Inactive)
REMARK    1  A    between atoms: C_1  and  C_2
REMARK    2  A    between atoms: C_5  and  S_8
REMARK    3  A    between atoms: S_8  and  N_11
REMARK    4  A    between atoms: N_11  and  C_12
REMARK    5  A    between atoms: C_12  and  C_13
REMARK    6  A    between atoms: C_15  and  N_25
REMARK    7  A    between atoms: C_17  and  O_24
REMARK    8  A    between atoms: C_19  and  C_22
REMARK    9  A    between atoms: C_22  and  O_23
REMARK   10  A    between atoms: C_28  and  C_31
REMARK                            x       y       z     vdW  Elec       q    Type
REMARK                         _______ _______ _______ _____ _____    ______ ____
ROOT
ATOM      1  C   UNL     1      -1.273   7.126  -3.584  0.00  0.00    +0.123 C 
ATOM      2  C   UNL     1      -2.415   6.780  -4.565  0.00  0.00    -0.006 C 
ATOM      3  C   UNL     1      -1.747   6.845  -5.956  0.00  0.00    +0.134 C 
ATOM      4  C   UNL     1      -0.280   7.223  -5.651  0.00  0.00    +0.171 C 
ATOM      5  O   UNL     1      -0.061   6.786  -4.292  0.00  0.00    -0.369 OA
ENDROOT
BRANCH   2   6
ATOM      6  N   UNL     1      -2.929   5.429  -4.301  0.00  0.00    +0.385 N 
ATOM      7  C   UNL     1      -1.870   4.423  -4.455  0.00  0.00    -0.078 C 
ATOM      8  C   UNL     1      -2.402   3.052  -4.033  0.00  0.00    -0.016 C 
ATOM      9  C   UNL     1      -3.609   2.688  -4.902  0.00  0.00    -0.018 C 
ATOM     10  C   UNL     1      -4.677   3.776  -4.760  0.00  0.00    -0.016 C 
ATOM     11  C   UNL     1      -4.079   5.126  -5.162  0.00  0.00    -0.078 C 
ATOM     12  C   UNL     1      -4.182   1.345  -4.444  0.00  0.00    +0.007 C 
ATOM     13  H   UNL     1      -3.274   5.395  -3.256  0.00  0.00    -0.081 HD
ENDBRANCH   2   6
BRANCH   3  14
ATOM     14  O   UNL     1      -1.812   5.572  -6.603  0.00  0.00    -0.391 OA
ATOM     15  H   UNL     1      -1.381   5.443  -7.607  0.00  0.00    +0.210 HD
ENDBRANCH   3  14
BRANCH   1  16
ATOM     16  C   UNL     1      -1.396   6.291  -2.308  0.00  0.00    +0.136 C 
BRANCH  16  17
ATOM     17  N   UNL     1      -0.398   6.738  -1.333  0.00  0.00    -0.188 NA
ATOM     18  H   UNL     1       0.522   7.234  -1.676  0.00  0.00    +0.148 HD
BRANCH  17  19
ATOM     19  S   UNL     1      -0.528   6.284   0.254  0.00  0.00    +0.058 S 
ATOM     20  O   UNL     1      -1.869   6.551   0.644  0.00  0.00    -0.153 OA
ATOM     21  O   UNL     1       0.588   6.846   0.930  0.00  0.00    -0.153 OA
BRANCH  19  26
ATOM     22  C   UNL     1       0.168   0.294   0.460  0.00  0.00    +0.044 C 
ATOM     23  C   UNL     1      -0.006   1.790   0.409  0.00  0.00    -0.050 A 
ATOM     24  C   UNL     1      -1.266   2.334   0.242  0.00  0.00    +0.005 A 
ATOM     25  C   UNL     1      -1.426   3.707   0.200  0.00  0.00    +0.029 A 
ATOM     26  C   UNL     1      -0.325   4.535   0.314  0.00  0.00    +0.105 A 
ATOM     27  C   UNL     1       0.935   3.991   0.475  0.00  0.00    +0.029 A 
ATOM     28  C   UNL     1       1.095   2.619   0.523  0.00  0.00    +0.005 A 
ENDBRANCH  19  26
ENDBRANCH  17  19
ENDBRANCH  16  17
ENDBRANCH   1  16
BRANCH   4  29
ATOM     29  C   UNL     1       0.667   6.493  -6.605  0.00  0.00    +0.190 C 
BRANCH  29  30
ATOM     30  O   UNL     1       2.006   6.943  -6.384  0.00  0.00    -0.392 OA
ATOM     31  H   UNL     1       2.831   6.528  -6.981  0.00  0.00    +0.210 HD
ENDBRANCH  29  30
ENDBRANCH   4  29
TORSDOF 8
