REMARK  Name = ZINC13033904
REMARK  7 active torsions:
REMARK  status: ('A' for Active; 'I' for Inactive)
REMARK    1  A    between atoms: C_6  and  C_7
REMARK    2  A    between atoms: C_7  and  N_8
REMARK    3  A    between atoms: C_9  and  C_13
REMARK    4  A    between atoms: C_13  and  N_63
REMARK    5  A    between atoms: C_14  and  C_15
REMARK    6  A    between atoms: C_14  and  N_63
REMARK    7  A    between atoms: C_31  and  N_63
REMARK                            x       y       z     vdW  Elec       q    Type
REMARK                         _______ _______ _______ _____ _____    ______ ____
ROOT
ATOM      1  N   UNL     1      -0.856   1.398  -1.104  0.00  0.00    +0.389 N 
ATOM      2  H   UNL     1      -1.706   0.947  -0.747  0.00  0.00    -0.080 HD
ENDROOT
BRANCH   1   3
ATOM      3  C   UNL     1      -1.050   2.864  -1.093  0.00  0.00    -0.068 C 
ATOM      4  C   UNL     1      -2.441   3.198  -1.670  0.00  0.00    -0.015 C 
ATOM      5  C   UNL     1      -2.219   4.512  -2.459  0.00  0.00    -0.002 C 
ATOM      6  C   UNL     1      -0.821   4.300  -3.090  0.00  0.00    -0.002 C 
ATOM      7  C   UNL     1      -0.020   3.564  -1.996  0.00  0.00    -0.015 C 
ENDBRANCH   1   3
BRANCH   1   8
ATOM      8  C   UNL     1      -0.609   0.932  -2.485  0.00  0.00    +0.001 C 
BRANCH   8  10
ATOM      9  N   UNL     1      -2.898   0.142  -3.283  0.00  0.00    -0.227 N 
ATOM     10  C   UNL     1      -1.892   1.035  -3.268  0.00  0.00    +0.135 A 
ATOM     11  N   UNL     1      -2.241   2.009  -4.073  0.00  0.00    -0.115 NA
ATOM     12  N   UNL     1      -3.405   1.731  -4.552  0.00  0.00    -0.023 NA
ATOM     13  N   UNL     1      -3.806   0.605  -4.074  0.00  0.00    -0.044 NA
BRANCH   9  14
ATOM     14  C   UNL     1      -2.955  -1.118  -2.537  0.00  0.00    +0.182 C 
BRANCH  14  20
ATOM     15  C   UNL     1      -2.796  -0.544  -0.106  0.00  0.00    +0.008 A 
ATOM     16  C   UNL     1      -3.375  -0.317   1.129  0.00  0.00    +0.038 A 
ATOM     17  C   UNL     1      -4.746  -0.434   1.282  0.00  0.00    +0.123 A 
ATOM     18  C   UNL     1      -5.536  -0.773   0.196  0.00  0.00    +0.038 A 
ATOM     19  C   UNL     1      -4.956  -0.993  -1.038  0.00  0.00    +0.008 A 
ATOM     20  C   UNL     1      -3.587  -0.876  -1.190  0.00  0.00    -0.026 A 
ATOM     21  F   UNL     1      -5.313  -0.218   2.489  0.00  0.00    -0.205 F 
ENDBRANCH  14  20
ENDBRANCH   9  14
ENDBRANCH   8  10
ENDBRANCH   1   8
BRANCH   1  22
ATOM     22  C   UNL     1       0.283   1.033  -0.236  0.00  0.00    -0.037 C 
BRANCH  22  23
ATOM     23  C   UNL     1      -0.061   1.378   1.190  0.00  0.00    +0.001 A 
ATOM     24  C   UNL     1      -0.633   0.444   1.992  0.00  0.00    +0.017 A 
ATOM     25  C   UNL     1      -0.951   0.808   3.373  0.00  0.00    +0.002 A 
ATOM     26  C   UNL     1      -1.537  -0.115   4.247  0.00  0.00    +0.059 A 
ATOM     27  C   UNL     1      -1.829   0.258   5.542  0.00  0.00    +0.163 A 
ATOM     28  C   UNL     1      -1.540   1.552   5.984  0.00  0.00    +0.164 A 
ATOM     29  C   UNL     1      -0.961   2.472   5.126  0.00  0.00    +0.075 A 
ATOM     30  C   UNL     1      -0.662   2.113   3.818  0.00  0.00    +0.053 A 
ATOM     31  N   UNL     1      -0.085   3.017   2.950  0.00  0.00    -0.322 N 
ATOM     32  H   UNL     1       0.112   3.916   3.257  0.00  0.00    +0.169 HD
ATOM     33  C   UNL     1       0.207   2.670   1.684  0.00  0.00    +0.251 A 
ATOM     34  O   UNL     1       0.717   3.495   0.945  0.00  0.00    -0.268 OA
ATOM     35  O   UNL     1      -1.821   1.927   7.261  0.00  0.00    -0.485 OA
ATOM     36  C   UNL     1      -2.741   1.105   7.986  0.00  0.00    +0.270 C 
ATOM     37  C   UNL     1      -2.341  -0.363   7.780  0.00  0.00    +0.270 C 
ATOM     38  O   UNL     1      -2.402  -0.651   6.379  0.00  0.00    -0.485 OA
ENDBRANCH  22  23
ENDBRANCH   1  22
TORSDOF 7
