REMARK  Name = ZINC02713111
REMARK  5 active torsions:
REMARK  status: ('A' for Active; 'I' for Inactive)
REMARK    1  A    between atoms: C_1  and  C_2
REMARK    2  A    between atoms: N_4  and  C_5
REMARK    3  A    between atoms: C_5  and  C_6
REMARK    4  A    between atoms: C_6  and  N_7
REMARK    5  A    between atoms: C_18  and  C_21
REMARK                            x       y       z     vdW  Elec       q    Type
REMARK                         _______ _______ _______ _____ _____    ______ ____
ROOT
ATOM      1  N   UNL     1       1.099   5.387   0.022  0.00  0.00    -0.327 N 
ATOM      2  C   UNL     1       0.719   4.061   0.018  0.00  0.00    +0.130 A 
ATOM      3  C   UNL     1      -0.704   3.693   0.029  0.00  0.00    +0.040 A 
ATOM      4  C   UNL     1      -1.712   4.657   0.045  0.00  0.00    +0.013 A 
ATOM      5  C   UNL     1      -3.031   4.260   0.056  0.00  0.00    +0.001 A 
ATOM      6  C   UNL     1      -3.360   2.912   0.051  0.00  0.00    +0.002 A 
ATOM      7  C   UNL     1      -2.374   1.948   0.036  0.00  0.00    +0.028 A 
ATOM      8  C   UNL     1      -1.040   2.327   0.029  0.00  0.00    +0.080 A 
ATOM      9  N   UNL     1      -0.017   1.396   0.010  0.00  0.00    -0.193 N 
ATOM     10  C   UNL     1       1.289   1.808  -0.001  0.00  0.00    +0.186 A 
ATOM     11  N   UNL     1       1.626   3.106   0.004  0.00  0.00    -0.210 NA
ATOM     12  C   UNL     1       2.057   0.641  -0.014  0.00  0.00    +0.139 A 
ATOM     13  N   UNL     1       1.225  -0.404  -0.012  0.00  0.00    -0.127 NA
ATOM     14  N   UNL     1       0.002  -0.004   0.002  0.00  0.00    -0.058 NA
ATOM     15  H   UNL     1       0.425   6.085   0.033  0.00  0.00    +0.148 HD
ENDROOT
BRANCH  12  16
ATOM     16  C   UNL     1       3.536   0.575  -0.029  0.00  0.00    +0.007 A 
ATOM     17  C   UNL     1       4.197  -0.448   0.652  0.00  0.00    +0.010 A 
ATOM     18  C   UNL     1       5.576  -0.505   0.635  0.00  0.00    +0.002 A 
ATOM     19  C   UNL     1       6.302   0.448  -0.056  0.00  0.00    +0.015 A 
ATOM     20  C   UNL     1       5.652   1.465  -0.734  0.00  0.00    +0.019 A 
ATOM     21  C   UNL     1       4.273   1.530  -0.728  0.00  0.00    +0.025 A 
ATOM     22 BR   UNL     1       6.654   2.763  -1.675  0.00  0.00    -0.050 Br
ENDBRANCH  12  16
BRANCH   1  23
ATOM     23  C   UNL     1       2.520   5.742   0.011  0.00  0.00    +0.121 C 
BRANCH  23  24
ATOM     24  C   UNL     1       2.666   7.265   0.019  0.00  0.00    +0.123 C 
BRANCH  24  28
ATOM     25  C   UNL     1       5.920   9.281   0.000  0.00  0.00    +0.109 C 
ATOM     26  C   UNL     1       4.458   8.916   0.012  0.00  0.00    +0.210 C 
ATOM     27  O   UNL     1       3.616   9.788   0.025  0.00  0.00    -0.276 OA
ATOM     28  N   UNL     1       4.087   7.620   0.007  0.00  0.00    -0.314 N 
ATOM     29  H   UNL     1       4.761   6.922  -0.003  0.00  0.00    +0.149 HD
ENDBRANCH  24  28
ENDBRANCH  23  24
ENDBRANCH   1  23
TORSDOF 4
