REMARK  Name = ZINC15675536
REMARK  7 active torsions:
REMARK  status: ('A' for Active; 'I' for Inactive)
REMARK    1  A    between atoms: C_3  and  C_31
REMARK    2  A    between atoms: C_6  and  C_7
REMARK    3  A    between atoms: C_9  and  C_12
REMARK    4  A    between atoms: N_22  and  C_23
REMARK    5  A    between atoms: C_23  and  C_24
REMARK    6  A    between atoms: C_27  and  C_29
REMARK    7  A    between atoms: C_29  and  O_30
REMARK                            x       y       z     vdW  Elec       q    Type
REMARK                         _______ _______ _______ _____ _____    ______ ____
ROOT
ATOM      1  C   UNL     1      -3.168  -3.860   0.021  0.00  0.00    +0.152 C 
ATOM      2  C   UNL     1      -3.708  -4.207  -1.374  0.00  0.00    +0.083 C 
ATOM      3  C   UNL     1      -4.467  -5.504  -1.266  0.00  0.00    +0.040 A 
ATOM      4  C   UNL     1      -4.874  -6.035  -0.091  0.00  0.00    +0.051 A 
ATOM      5  N   UNL     1      -5.509  -7.178  -0.355  0.00  0.00    -0.349 N 
ATOM      6  C   UNL     1      -5.515  -7.378  -1.648  0.00  0.00    +0.171 A 
ATOM      7  N   UNL     1      -4.872  -6.349  -2.250  0.00  0.00    -0.349 N 
ATOM      8  H   UNL     1      -4.729  -6.237  -3.203  0.00  0.00    +0.166 HD
ATOM      9  C   UNL     1      -4.617  -5.383   1.245  0.00  0.00    +0.140 C 
ATOM     10  N   UNL     1      -4.250  -3.977   1.010  0.00  0.00    -0.278 NA
ATOM     11  H   UNL     1      -5.904  -7.768   0.307  0.00  0.00    +0.166 HD
ENDROOT
BRANCH   1  14
ATOM     12  C   UNL     1      -1.272  -0.766   0.011  0.00  0.00    +0.202 A 
ATOM     13  N   UNL     1      -1.384  -2.107   0.010  0.00  0.00    -0.190 NA
ATOM     14  C   UNL     1      -2.640  -2.449   0.019  0.00  0.00    +0.245 A 
ATOM     15  O   UNL     1      -3.384  -1.335   0.025  0.00  0.00    -0.336 OA
ATOM     16  N   UNL     1      -2.474  -0.246   0.026  0.00  0.00    -0.056 NA
BRANCH  12  22
ATOM     17  C   UNL     1      -0.017   1.389   0.010  0.00  0.00    +0.012 A 
ATOM     18  C   UNL     1       1.170   2.093   0.002  0.00  0.00    +0.013 A 
ATOM     19  C   UNL     1       2.377   1.418  -0.013  0.00  0.00    +0.055 A 
ATOM     20  C   UNL     1       2.402   0.035  -0.021  0.00  0.00    +0.013 A 
ATOM     21  C   UNL     1       1.221  -0.679  -0.014  0.00  0.00    +0.012 A 
ATOM     22  C   UNL     1       0.002  -0.004   0.002  0.00  0.00    +0.022 A 
BRANCH  19  23
ATOM     23  C   UNL     1       3.671   2.192  -0.023  0.00  0.00    +0.417 C 
ATOM     24  F   UNL     1       4.084   2.424   1.293  0.00  0.00    -0.166 F 
ATOM     25  F   UNL     1       4.651   1.454  -0.696  0.00  0.00    -0.166 F 
ATOM     26  F   UNL     1       3.478   3.414  -0.674  0.00  0.00    -0.166 F 
ENDBRANCH  19  23
ENDBRANCH  12  22
ENDBRANCH   1  14
BRANCH  10  27
ATOM     27  C   UNL     1      -3.887  -3.310   2.267  0.00  0.00    +0.160 C 
BRANCH  27  28
ATOM     28  C   UNL     1      -5.097  -3.234   3.163  0.00  0.00    +0.119 A 
ATOM     29  C   UNL     1      -5.463  -4.158   4.070  0.00  0.00    +0.046 A 
ATOM     30  C   UNL     1      -6.649  -3.685   4.679  0.00  0.00    +0.047 A 
ATOM     31  C   UNL     1      -6.935  -2.501   4.108  0.00  0.00    +0.131 A 
ATOM     32  O   UNL     1      -5.989  -2.231   3.194  0.00  0.00    -0.461 OA
BRANCH  31  33
ATOM     33  C   UNL     1      -8.115  -1.625   4.441  0.00  0.00    +0.230 C 
BRANCH  33  34
ATOM     34  O   UNL     1      -7.755  -0.718   5.484  0.00  0.00    -0.387 OA
ATOM     35  H   UNL     1      -8.468  -0.121   5.751  0.00  0.00    +0.210 HD
ENDBRANCH  33  34
ENDBRANCH  31  33
ENDBRANCH  27  28
ENDBRANCH  10  27
TORSDOF 7
