REMARK  Name = ZINC61511778
REMARK  6 active torsions:
REMARK  status: ('A' for Active; 'I' for Inactive)
REMARK    1  A    between atoms: C_1  and  C_2
REMARK    2  A    between atoms: C_2  and  C_3
REMARK    3  A    between atoms: C_3  and  C_5
REMARK    4  A    between atoms: C_3  and  N_17
REMARK    5  A    between atoms: C_8  and  C_10
REMARK    6  A    between atoms: N_17  and  C_18
REMARK                            x       y       z     vdW  Elec       q    Type
REMARK                         _______ _______ _______ _____ _____    ______ ____
ROOT
ATOM      1  C   UNL     1       0.892  -1.765  -1.160  0.00  0.00    +0.204 A 
ATOM      2  N   UNL     1      -0.069  -2.646  -1.151  0.00  0.00    -0.114 NA
ATOM      3  N   UNL     1       0.427  -3.821  -0.976  0.00  0.00    -0.107 NA
ATOM      4  C   UNL     1       1.732  -3.728  -0.867  0.00  0.00    +0.248 A 
ATOM      5  O   UNL     1       2.051  -2.424  -0.987  0.00  0.00    -0.422 OA
ENDROOT
BRANCH   4   6
ATOM      6  C   UNL     1       2.676  -4.846  -0.657  0.00  0.00    +0.039 A 
ATOM      7  C   UNL     1       4.045  -4.597  -0.553  0.00  0.00    +0.014 A 
ATOM      8  C   UNL     1       4.921  -5.644  -0.357  0.00  0.00    +0.015 A 
ATOM      9  C   UNL     1       4.444  -6.941  -0.264  0.00  0.00    +0.013 A 
ATOM     10  C   UNL     1       3.087  -7.194  -0.366  0.00  0.00    +0.015 A 
ATOM     11  C   UNL     1       2.201  -6.155  -0.557  0.00  0.00    +0.014 A 
ATOM     12  I   UNL     1       5.782  -8.525   0.033  0.00  0.00    -0.044 I 
ENDBRANCH   4   6
BRANCH   1  13
ATOM     13  C   UNL     1       0.733  -0.277  -1.339  0.00  0.00    +0.017 C 
BRANCH  13  14
ATOM     14  N   UNL     1      -0.206  -0.014  -2.438  0.00  0.00    +0.385 N 
ATOM     15  C   UNL     1       0.374  -0.489  -3.701  0.00  0.00    -0.099 C 
ATOM     16  H   UNL     1      -1.073  -0.498  -2.263  0.00  0.00    -0.085 HD
ATOM     17  H   UNL     1      -0.381   0.978  -2.500  0.00  0.00    -0.085 HD
ENDBRANCH  13  14
BRANCH  13  19
ATOM     18  C   UNL     1       0.152   1.860  -0.183  0.00  0.00    +0.002 C 
ATOM     19  C   UNL     1       0.190   0.337  -0.047  0.00  0.00    -0.010 C 
ENDBRANCH  13  19
ENDBRANCH   1  13
TORSDOF 4
