REMARK  Name = ZINC18250385
REMARK  7 active torsions:
REMARK  status: ('A' for Active; 'I' for Inactive)
REMARK    1  A    between atoms: C_1  and  C_2
REMARK    2  A    between atoms: C_5  and  N_9
REMARK    3  A    between atoms: C_13  and  N_17
REMARK    4  A    between atoms: N_17  and  C_18
REMARK    5  A    between atoms: C_18  and  C_19
REMARK    6  A    between atoms: C_22  and  S_25
REMARK    7  A    between atoms: S_25  and  N_28
REMARK                            x       y       z     vdW  Elec       q    Type
REMARK                         _______ _______ _______ _____ _____    ______ ____
ROOT
ATOM      1  N   UNL     1       0.059  -4.173  -0.022  0.00  0.00    -0.209 N 
ATOM      2  C   UNL     1      -0.030  -4.892  -1.148  0.00  0.00    +0.228 C 
ATOM      3  O   UNL     1      -0.134  -4.435  -2.266  0.00  0.00    -0.275 OA
ATOM      4  C   UNL     1       0.020  -6.364  -0.804  0.00  0.00    +0.125 C 
ATOM      5  C   UNL     1       0.155  -6.372   0.733  0.00  0.00    +0.150 C 
ATOM      6  C   UNL     1       0.172  -4.903   1.094  0.00  0.00    +0.244 C 
ATOM      7  O   UNL     1       0.271  -4.458   2.217  0.00  0.00    -0.273 OA
ENDROOT
BRANCH   1  12
ATOM      8  C   UNL     1      -0.013   1.503   0.012  0.00  0.00    +0.045 C 
ATOM      9  C   UNL     1       0.005  -0.004   0.003  0.00  0.00    -0.032 A 
ATOM     10  C   UNL     1       1.157  -0.682   0.358  0.00  0.00    +0.006 A 
ATOM     11  C   UNL     1       1.177  -2.063   0.351  0.00  0.00    +0.024 A 
ATOM     12  C   UNL     1       0.040  -2.771  -0.013  0.00  0.00    +0.045 A 
ATOM     13  C   UNL     1      -1.115  -2.089  -0.369  0.00  0.00    +0.044 A 
ATOM     14  C   UNL     1      -1.131  -0.707  -0.356  0.00  0.00    +0.046 A 
ATOM     15 CL   UNL     1      -2.577   0.148  -0.795  0.00  0.00    -0.083 Cl
ENDBRANCH   1  12
BRANCH   5  16
ATOM     16  N   UNL     1       1.411  -7.018   1.138  0.00  0.00    -0.301 NA
ATOM     17  H   UNL     1       1.677  -7.735   0.480  0.00  0.00    +0.123 HD
BRANCH  16  18
ATOM     18  C   UNL     1       1.307  -7.563   2.498  0.00  0.00    +0.117 C 
BRANCH  18  19
ATOM     19  C   UNL     1       2.611  -8.216   2.879  0.00  0.00    -0.033 A 
ATOM     20  C   UNL     1       2.820  -9.554   2.602  0.00  0.00    +0.007 A 
ATOM     21  C   UNL     1       4.016 -10.153   2.950  0.00  0.00    +0.029 A 
ATOM     22  C   UNL     1       5.003  -9.414   3.576  0.00  0.00    +0.105 A 
ATOM     23  C   UNL     1       4.794  -8.076   3.852  0.00  0.00    +0.029 A 
ATOM     24  C   UNL     1       3.599  -7.476   3.499  0.00  0.00    +0.007 A 
BRANCH  22  25
ATOM     25  S   UNL     1       6.527 -10.178   4.022  0.00  0.00    +0.056 S 
ATOM     26  O   UNL     1       7.072  -9.407   5.084  0.00  0.00    -0.153 OA
ATOM     27  O   UNL     1       6.263 -11.568   4.146  0.00  0.00    -0.153 OA
BRANCH  25  28
ATOM     28  N   UNL     1       7.556 -10.005   2.736  0.00  0.00    -0.204 NA
ATOM     29  H   UNL     1       7.258  -9.546   1.935  0.00  0.00    +0.144 HD
ATOM     30  H   UNL     1       8.456 -10.362   2.783  0.00  0.00    +0.144 HD
ENDBRANCH  25  28
ENDBRANCH  22  25
ENDBRANCH  18  19
ENDBRANCH  16  18
ENDBRANCH   5  16
TORSDOF 6
