REMARK  Name = ZINC14697616
REMARK  9 active torsions:
REMARK  status: ('A' for Active; 'I' for Inactive)
REMARK    1  A    between atoms: C_4  and  C_7
REMARK    2  A    between atoms: C_7  and  N_8
REMARK    3  A    between atoms: C_9  and  N_36
REMARK    4  A    between atoms: C_10  and  N_17
REMARK    5  A    between atoms: N_17  and  C_18
REMARK    6  A    between atoms: C_18  and  C_19
REMARK    7  A    between atoms: C_19  and  C_20
REMARK    8  A    between atoms: C_26  and  C_28
REMARK    9  A    between atoms: C_28  and  C_29
REMARK                            x       y       z     vdW  Elec       q    Type
REMARK                         _______ _______ _______ _____ _____    ______ ____
ROOT
ATOM      1  N   UNL     1       3.025   1.436  -0.873  0.00  0.00    -0.276 N 
ATOM      2  C   UNL     1       3.709   1.639   0.303  0.00  0.00    +0.128 A 
ATOM      3  C   UNL     1       3.373   2.713   1.101  0.00  0.00    +0.140 A 
ATOM      4  C   UNL     1       2.329   3.564   0.692  0.00  0.00    +0.277 A 
ATOM      5  O   UNL     1       2.008   4.517   1.380  0.00  0.00    -0.266 OA
ATOM      6  N   UNL     1       1.687   3.317  -0.467  0.00  0.00    -0.273 N 
ATOM      7  H   UNL     1       0.945   3.921  -0.759  0.00  0.00    +0.173 HD
ATOM      8  C   UNL     1       2.032   2.269  -1.235  0.00  0.00    +0.331 A 
ATOM      9  O   UNL     1       1.436   2.070  -2.277  0.00  0.00    -0.246 OA
ENDROOT
BRANCH   3  10
ATOM     10  N   UNL     1       4.059   2.951   2.311  0.00  0.00    -0.264 N 
ATOM     11  C   UNL     1       3.410   2.840   3.488  0.00  0.00    +0.224 C 
ATOM     12  O   UNL     1       2.261   2.449   3.514  0.00  0.00    -0.275 OA
BRANCH  10  13
ATOM     13  C   UNL     1       5.477   3.318   2.288  0.00  0.00    +0.118 C 
BRANCH  13  14
ATOM     14  C   UNL     1       5.610   4.841   2.344  0.00  0.00    +0.050 C 
BRANCH  14  15
ATOM     15  C   UNL     1       7.069   5.219   2.320  0.00  0.00    -0.072 C 
ATOM     16  C   UNL     1       7.602   5.512   1.178  0.00  0.00    -0.028 C 
ATOM     17  C   UNL     1       9.041   5.897   0.995  0.00  0.00    +0.027 C 
ATOM     18  C   UNL     1       9.653   6.302   2.337  0.00  0.00    +0.004 C 
ATOM     19  C   UNL     1       9.322   5.216   3.369  0.00  0.00    +0.005 C 
ATOM     20  C   UNL     1       7.812   5.239   3.624  0.00  0.00    +0.030 C 
ENDBRANCH  14  15
ENDBRANCH  13  14
ENDBRANCH  10  13
BRANCH  11  21
ATOM     21  C   UNL     1       4.111   3.202   4.772  0.00  0.00    +0.133 C 
BRANCH  21  22
ATOM     22  C   UNL     1       3.173   2.990   5.933  0.00  0.00    -0.020 A 
ATOM     23  C   UNL     1       2.437   4.050   6.429  0.00  0.00    +0.005 A 
ATOM     24  C   UNL     1       1.574   3.856   7.491  0.00  0.00    +0.000 A 
ATOM     25  C   UNL     1       1.454   2.603   8.064  0.00  0.00    +0.001 A 
ATOM     26  C   UNL     1       2.193   1.544   7.573  0.00  0.00    +0.020 A 
ATOM     27  C   UNL     1       3.054   1.737   6.507  0.00  0.00    +0.045 A 
ATOM     28 CL   UNL     1       3.984   0.408   5.890  0.00  0.00    -0.083 Cl
ENDBRANCH  21  22
ENDBRANCH  11  21
ENDBRANCH   3  10
BRANCH   2  29
ATOM     29  N   UNL     1       4.719   0.785   0.676  0.00  0.00    -0.343 N 
ATOM     30  H   UNL     1       4.919   0.005   0.135  0.00  0.00    +0.144 HD
ATOM     31  H   UNL     1       5.232   0.962   1.480  0.00  0.00    +0.144 HD
ENDBRANCH   2  29
BRANCH   1  32
ATOM     32  C   UNL     1       3.375   0.304  -1.734  0.00  0.00    +0.163 C 
BRANCH  32  36
ATOM     33  C   UNL     1       6.369   1.512  -4.531  0.00  0.00    +0.000 A 
ATOM     34  C   UNL     1       6.739   0.993  -3.304  0.00  0.00    +0.000 A 
ATOM     35  C   UNL     1       5.770   0.602  -2.399  0.00  0.00    +0.005 A 
ATOM     36  C   UNL     1       4.432   0.730  -2.720  0.00  0.00    -0.028 A 
ATOM     37  C   UNL     1       4.062   1.244  -3.949  0.00  0.00    +0.005 A 
ATOM     38  C   UNL     1       5.031   1.640  -4.852  0.00  0.00    +0.000 A 
ENDBRANCH  32  36
ENDBRANCH   1  32
TORSDOF 9
