REMARK  Name = ZINC14809210
REMARK  9 active torsions:
REMARK  status: ('A' for Active; 'I' for Inactive)
REMARK    1  A    between atoms: C_1  and  C_2
REMARK    2  A    between atoms: C_2  and  C_26
REMARK    3  A    between atoms: N_5  and  N_9
REMARK    4  A    between atoms: C_10  and  C_12
REMARK    5  A    between atoms: C_12  and  N_64
REMARK    6  A    between atoms: C_15  and  C_18
REMARK    7  A    between atoms: C_18  and  C_20
REMARK    8  A    between atoms: C_26  and  C_27
REMARK    9  A    between atoms: C_27  and  C_28
REMARK                            x       y       z     vdW  Elec       q    Type
REMARK                         _______ _______ _______ _____ _____    ______ ____
ROOT
ATOM      1  N   UNL     1       3.517   0.983  -0.027  0.00  0.00    -0.225 N 
ATOM      2  C   UNL     1       4.147   1.356  -1.158  0.00  0.00    +0.213 C 
ATOM      3  O   UNL     1       3.506   1.572  -2.165  0.00  0.00    -0.276 OA
ATOM      4  H   UNL     1       4.029   0.810   0.779  0.00  0.00    +0.173 HD
ENDROOT
BRANCH   1   9
ATOM      5  C   UNL     1      -0.666  -0.558   1.262  0.00  0.00    +0.041 C 
ATOM      6  C   UNL     1       0.002  -0.004   0.002  0.00  0.00    +0.112 C 
ATOM      7  C   UNL     1       1.480  -0.340  -0.014  0.00  0.00    +0.263 C 
ATOM      8  O   UNL     1       1.980  -1.445  -0.025  0.00  0.00    -0.271 OA
ATOM      9  N   UNL     1       2.123   0.844  -0.014  0.00  0.00    -0.137 N 
ATOM     10  C   UNL     1       1.266   1.871   0.000  0.00  0.00    +0.326 C 
ATOM     11  O   UNL     1       1.608   3.037   0.003  0.00  0.00    -0.251 OA
ATOM     12  N   UNL     1      -0.018   1.469   0.010  0.00  0.00    -0.284 N 
ATOM     13  H   UNL     1      -0.803   2.038   0.017  0.00  0.00    +0.151 HD
BRANCH   6  14
ATOM     14  C   UNL     1      -0.686  -0.545  -1.253  0.00  0.00    +0.040 C 
BRANCH  14  15
ATOM     15  C   UNL     1      -2.113   0.003  -1.328  0.00  0.00    +0.038 C 
BRANCH  15  16
ATOM     16  C   UNL     1      -2.791  -0.530  -2.564  0.00  0.00    -0.047 A 
ATOM     17  C   UNL     1      -2.712   0.172  -3.752  0.00  0.00    +0.003 A 
ATOM     18  C   UNL     1      -3.331  -0.319  -4.887  0.00  0.00    +0.000 A 
ATOM     19  C   UNL     1      -4.036  -1.506  -4.831  0.00  0.00    +0.000 A 
ATOM     20  C   UNL     1      -4.119  -2.205  -3.641  0.00  0.00    +0.000 A 
ATOM     21  C   UNL     1      -3.497  -1.717  -2.507  0.00  0.00    +0.003 A 
ENDBRANCH  15  16
ENDBRANCH  14  15
ENDBRANCH   6  14
ENDBRANCH   1   9
BRANCH   2  22
ATOM     22  C   UNL     1       5.646   1.506  -1.172  0.00  0.00    +0.020 C 
BRANCH  22  28
ATOM     23  C   UNL     1       5.824   0.863  -3.499  0.00  0.00    -0.077 C 
ATOM     24  C   UNL     1       6.157   1.380  -4.901  0.00  0.00    -0.007 C 
ATOM     25  C   UNL     1       7.630   1.797  -4.949  0.00  0.00    +0.057 C 
ATOM     26  C   UNL     1       7.886   2.862  -3.879  0.00  0.00    -0.007 C 
ATOM     27  C   UNL     1       7.502   2.302  -2.507  0.00  0.00    -0.077 C 
ATOM     28  N   UNL     1       6.068   1.942  -2.519  0.00  0.00    +0.385 N 
ATOM     29  H   UNL     1       5.520   2.767  -2.789  0.00  0.00    -0.081 HD
BRANCH  25  30
ATOM     30  C   UNL     1       7.950   2.362  -6.309  0.00  0.00    +0.166 C 
ATOM     31  O   UNL     1       7.901   3.559  -6.495  0.00  0.00    -0.292 OA
BRANCH  30  32
ATOM     32  C   UNL     1       8.323   1.461  -7.411  0.00  0.00    +0.018 A 
ATOM     33  C   UNL     1       8.387   0.080  -7.199  0.00  0.00    +0.011 A 
ATOM     34  C   UNL     1       8.732  -0.758  -8.238  0.00  0.00    +0.001 A 
ATOM     35  C   UNL     1       9.026  -0.234  -9.485  0.00  0.00    +0.000 A 
ATOM     36  C   UNL     1       8.970   1.131  -9.702  0.00  0.00    +0.001 A 
ATOM     37  C   UNL     1       8.621   1.982  -8.674  0.00  0.00    +0.011 A 
ENDBRANCH  30  32
ENDBRANCH  25  30
ENDBRANCH  22  28
ENDBRANCH   2  22
TORSDOF 8
