REMARK  Name = ZINC13972970
REMARK  5 active torsions:
REMARK  status: ('A' for Active; 'I' for Inactive)
REMARK    1  A    between atoms: C_1  and  C_2
REMARK    2  A    between atoms: C_9  and  N_14
REMARK    3  A    between atoms: C_10  and  C_11
REMARK    4  A    between atoms: C_15  and  C_17
REMARK    5  A    between atoms: C_17  and  C_18
REMARK                            x       y       z     vdW  Elec       q    Type
REMARK                         _______ _______ _______ _____ _____    ______ ____
ROOT
ATOM      1  C   UNL     1       1.169  11.424   9.224  0.00  0.00    +0.008 C 
ATOM      2  C   UNL     1       1.442  11.400   7.719  0.00  0.00    -0.009 C 
ATOM      3  C   UNL     1       0.583  12.462   7.025  0.00  0.00    +0.008 C 
ATOM      4  C   UNL     1       1.024  12.616   5.568  0.00  0.00    +0.037 C 
ATOM      5  C   UNL     1       1.037  11.241   4.912  0.00  0.00    -0.023 A 
ATOM      6  C   UNL     1       1.060  10.114   5.657  0.00  0.00    -0.004 A 
ATOM      7  S   UNL     1       1.059   8.793   4.479  0.00  0.00    -0.077 S 
ATOM      8  C   UNL     1       1.040   9.721   3.017  0.00  0.00    +0.084 A 
ATOM      9  C   UNL     1       1.027  11.031   3.474  0.00  0.00    +0.068 A 
ATOM     10  C   UNL     1       1.076  10.021   7.152  0.00  0.00    +0.046 C 
ENDROOT
BRANCH   9  11
ATOM     11  C   UNL     1       1.003  12.162   2.541  0.00  0.00    +0.244 C 
ATOM     12  O   UNL     1      -0.060  12.617   2.163  0.00  0.00    -0.270 OA
ATOM     13  N   UNL     1       2.159  12.697   2.101  0.00  0.00    -0.325 N 
ATOM     14  H   UNL     1       3.007  12.334   2.402  0.00  0.00    +0.145 HD
ATOM     15  H   UNL     1       2.144  13.445   1.484  0.00  0.00    +0.145 HD
ENDBRANCH   9  11
BRANCH   8  16
ATOM     16  N   UNL     1       1.034   9.266   1.707  0.00  0.00    -0.279 N 
ATOM     17  C   UNL     1       1.050   7.942   1.454  0.00  0.00    +0.222 C 
ATOM     18  O   UNL     1       1.069   7.149   2.371  0.00  0.00    -0.275 OA
ATOM     19  H   UNL     1       1.019   9.900   0.973  0.00  0.00    +0.155 HD
BRANCH  17  20
ATOM     20  C   UNL     1       1.044   7.447   0.030  0.00  0.00    +0.131 C 
BRANCH  20  21
ATOM     21  C   UNL     1       1.064   5.940   0.022  0.00  0.00    -0.038 A 
ATOM     22  C   UNL     1       2.286   5.270   0.008  0.00  0.00    +0.005 A 
ATOM     23  C   UNL     1       2.340   3.910   0.001  0.00  0.00    +0.009 A 
ATOM     24  C   UNL     1       1.147   3.167   0.008  0.00  0.00    -0.018 A 
ATOM     25  C   UNL     1       1.163   1.762   0.000  0.00  0.00    +0.008 A 
ATOM     26  C   UNL     1      -0.013   1.076   0.008  0.00  0.00    +0.001 A 
ATOM     27  C   UNL     1      -1.235   1.746   0.017  0.00  0.00    +0.001 A 
ATOM     28  C   UNL     1      -1.288   3.106   0.031  0.00  0.00    +0.008 A 
ATOM     29  C   UNL     1      -0.096   3.849   0.023  0.00  0.00    -0.018 A 
ATOM     30  C   UNL     1      -0.111   5.254   0.030  0.00  0.00    +0.012 A 
ENDBRANCH  20  21
ENDBRANCH  17  20
ENDBRANCH   8  16
TORSDOF 4
