REMARK  Name = ZINC39942240
REMARK  8 active torsions:
REMARK  status: ('A' for Active; 'I' for Inactive)
REMARK    1  A    between atoms: C_1  and  C_2
REMARK    2  A    between atoms: C_4  and  N_15
REMARK    3  A    between atoms: C_5  and  C_14
REMARK    4  A    between atoms: N_7  and  C_8
REMARK    5  A    between atoms: C_16  and  C_18
REMARK    6  A    between atoms: C_18  and  N_19
REMARK    7  A    between atoms: C_22  and  C_27
REMARK    8  A    between atoms: C_27  and  C_28
REMARK                            x       y       z     vdW  Elec       q    Type
REMARK                         _______ _______ _______ _____ _____    ______ ____
ROOT
ATOM      1  C   UNL     1      -4.678  -0.864  -1.742  0.00  0.00    +0.214 C 
ENDROOT
BRANCH   1   2
ATOM      2  N   UNL     1      -5.852  -1.646  -1.347  0.00  0.00    -0.216 N 
ATOM      3  C   UNL     1      -6.042  -2.941  -1.667  0.00  0.00    +0.244 C 
ATOM      4  O   UNL     1      -5.301  -3.652  -2.312  0.00  0.00    -0.273 OA
ATOM      5  C   UNL     1      -7.373  -3.325  -1.053  0.00  0.00    +0.165 C 
ATOM      6  N   UNL     1      -7.822  -2.085  -0.396  0.00  0.00    -0.287 N 
ATOM      7  C   UNL     1      -6.866  -1.164  -0.619  0.00  0.00    +0.310 C 
ATOM      8  O   UNL     1      -6.920  -0.022  -0.207  0.00  0.00    -0.252 OA
ATOM      9  H   UNL     1      -8.644  -1.958   0.103  0.00  0.00    +0.151 HD
BRANCH   5  10
ATOM     10  C   UNL     1      -8.364  -3.751  -2.138  0.00  0.00    +0.069 C 
BRANCH  10  11
ATOM     11  C   UNL     1      -9.635  -4.243  -1.493  0.00  0.00    -0.020 A 
ATOM     12  C   UNL     1     -10.765  -3.420  -1.058  0.00  0.00    +0.003 A 
ATOM     13  C   UNL     1     -11.036  -2.051  -1.082  0.00  0.00    +0.010 A 
ATOM     14  C   UNL     1     -12.219  -1.583  -0.584  0.00  0.00    +0.001 A 
ATOM     15  C   UNL     1     -13.155  -2.459  -0.052  0.00  0.00    +0.002 A 
ATOM     16  C   UNL     1     -12.909  -3.815  -0.017  0.00  0.00    +0.026 A 
ATOM     17  C   UNL     1     -11.711  -4.312  -0.520  0.00  0.00    +0.047 A 
ATOM     18  N   UNL     1     -11.181  -5.579  -0.627  0.00  0.00    -0.360 N 
ATOM     19  C   UNL     1      -9.947  -5.518  -1.215  0.00  0.00    +0.087 A 
ATOM     20  H   UNL     1     -11.620  -6.393  -0.334  0.00  0.00    +0.165 HD
ENDBRANCH  10  11
ENDBRANCH   5  10
ENDBRANCH   1   2
BRANCH   1  22
ATOM     21  N   UNL     1      -2.433  -0.355  -0.838  0.00  0.00    -0.285 N 
ATOM     22  C   UNL     1      -3.610  -0.993  -0.687  0.00  0.00    +0.235 C 
ATOM     23  O   UNL     1      -3.810  -1.673   0.298  0.00  0.00    -0.274 OA
ATOM     24  H   UNL     1      -2.300   0.246  -1.587  0.00  0.00    +0.155 HD
BRANCH  21  27
ATOM     25  C   UNL     1      -0.146  -2.543  -0.761  0.00  0.00    +0.036 C 
ATOM     26  C   UNL     1      -0.787  -1.888   0.464  0.00  0.00    +0.137 C 
ATOM     27  C   UNL     1      -1.402  -0.559   0.088  0.00  0.00    +0.050 C 
ATOM     28  C   UNL     1      -0.789   0.376   0.794  0.00  0.00    +0.038 C 
ATOM     29  N   UNL     1       0.188  -0.164   1.621  0.00  0.00    -0.266 N 
ATOM     30  N   UNL     1       0.239  -1.559   1.466  0.00  0.00    -0.245 N 
ATOM     31  C   UNL     1      -1.110   1.846   0.711  0.00  0.00    +0.063 C 
ATOM     32  H   UNL     1       0.754   0.348   2.220  0.00  0.00    +0.170 HD
BRANCH  30  33
ATOM     33  C   UNL     1       1.089  -2.451   2.125  0.00  0.00    +0.048 A 
ATOM     34  C   UNL     1       1.018  -3.811   1.852  0.00  0.00    +0.025 A 
ATOM     35  C   UNL     1       1.859  -4.690   2.505  0.00  0.00    +0.002 A 
ATOM     36  C   UNL     1       2.772  -4.217   3.430  0.00  0.00    +0.000 A 
ATOM     37  C   UNL     1       2.846  -2.864   3.704  0.00  0.00    +0.002 A 
ATOM     38  C   UNL     1       2.011  -1.979   3.051  0.00  0.00    +0.025 A 
ENDBRANCH  30  33
ENDBRANCH  21  27
ENDBRANCH   1  22
TORSDOF 6
