REMARK  Name = ZINC64178628
REMARK  8 active torsions:
REMARK  status: ('A' for Active; 'I' for Inactive)
REMARK    1  A    between atoms: C_1  and  C_2
REMARK    2  A    between atoms: C_2  and  C_4
REMARK    3  A    between atoms: C_2  and  N_17
REMARK    4  A    between atoms: C_4  and  C_6
REMARK    5  A    between atoms: C_7  and  N_16
REMARK    6  A    between atoms: N_8  and  C_15
REMARK    7  A    between atoms: N_11  and  C_14
REMARK    8  A    between atoms: C_20  and  C_23
REMARK                            x       y       z     vdW  Elec       q    Type
REMARK                         _______ _______ _______ _____ _____    ______ ____
ROOT
ATOM      1  C   UNL     1      -0.059   1.561  -0.009  0.00  0.00    +0.032 C 
ATOM      2  C   UNL     1      -0.011   0.032  -0.007  0.00  0.00    +0.125 C 
ENDROOT
BRANCH   2   3
ATOM      3  N   UNL     1       0.683  -0.437  -1.214  0.00  0.00    -0.293 NA
ATOM      4  C   UNL     1       0.070   0.123  -2.425  0.00  0.00    +0.085 C 
ATOM      5  C   UNL     1       0.721  -0.499  -3.662  0.00  0.00    +0.023 C 
ATOM      6  C   UNL     1       2.223  -0.203  -3.645  0.00  0.00    +0.020 C 
ATOM      7  C   UNL     1       2.829  -0.754  -2.351  0.00  0.00    +0.023 C 
ATOM      8  C   UNL     1       2.116  -0.125  -1.152  0.00  0.00    +0.085 C 
BRANCH   6   9
ATOM      9  C   UNL     1       2.880  -0.863  -4.830  0.00  0.00    -0.038 C 
ATOM     10  C   UNL     1       3.572  -0.255  -5.819  0.00  0.00    -0.001 A 
ATOM     11  C   UNL     1       3.907   1.151  -6.080  0.00  0.00    +0.010 A 
ATOM     12  C   UNL     1       4.630   1.460  -7.180  0.00  0.00    +0.001 A 
ATOM     13  C   UNL     1       5.067   0.474  -8.076  0.00  0.00    +0.002 A 
ATOM     14  C   UNL     1       4.799  -0.838  -7.904  0.00  0.00    +0.026 A 
ATOM     15  C   UNL     1       4.046  -1.276  -6.780  0.00  0.00    +0.043 A 
ATOM     16  N   UNL     1       3.661  -2.470  -6.400  0.00  0.00    -0.380 N 
ATOM     17  C   UNL     1       2.904  -2.341  -5.149  0.00  0.00    +0.145 C 
ATOM     18  H   UNL     1       3.849  -3.301  -6.865  0.00  0.00    +0.160 HD
ENDBRANCH   6   9
ENDBRANCH   2   3
BRANCH   2  19
ATOM     19  C   UNL     1      -1.415  -0.515   0.010  0.00  0.00    +0.188 C 
ATOM     20  O   UNL     1      -1.894  -0.990  -1.000  0.00  0.00    -0.290 OA
BRANCH  19  21
ATOM     21  C   UNL     1      -2.174  -0.474   1.200  0.00  0.00    +0.121 A 
ATOM     22  C   UNL     1      -3.524  -0.863   1.212  0.00  0.00    +0.116 A 
ATOM     23  N   UNL     1      -4.217  -0.806   2.388  0.00  0.00    -0.284 N 
ATOM     24  C   UNL     1      -3.634  -0.389   3.522  0.00  0.00    +0.333 A 
ATOM     25  O   UNL     1      -4.293  -0.357   4.542  0.00  0.00    -0.246 OA
ATOM     26  N   UNL     1      -2.347  -0.006   3.571  0.00  0.00    -0.263 N 
ATOM     27  C   UNL     1      -1.575  -0.030   2.465  0.00  0.00    +0.269 A 
ATOM     28  O   UNL     1      -0.408   0.313   2.514  0.00  0.00    -0.267 OA
ATOM     29  C   UNL     1      -1.774   0.439   4.844  0.00  0.00    +0.157 C 
ATOM     30  C   UNL     1      -5.625  -1.209   2.411  0.00  0.00    +0.155 C 
BRANCH  22  31
ATOM     31  N   UNL     1      -4.132  -1.287   0.071  0.00  0.00    -0.344 N 
ATOM     32  H   UNL     1      -3.615  -1.397  -0.742  0.00  0.00    +0.144 HD
ATOM     33  H   UNL     1      -5.083  -1.480   0.071  0.00  0.00    +0.144 HD
ENDBRANCH  22  31
ENDBRANCH  19  21
ENDBRANCH   2  19
TORSDOF 5
