REMARK  Name = ZINC39000026
REMARK  7 active torsions:
REMARK  status: ('A' for Active; 'I' for Inactive)
REMARK    1  A    between atoms: C_1  and  C_2
REMARK    2  A    between atoms: C_4  and  C_35
REMARK    3  A    between atoms: C_5  and  N_9
REMARK    4  A    between atoms: C_6  and  C_8
REMARK    5  A    between atoms: C_10  and  O_34
REMARK    6  A    between atoms: C_13  and  O_33
REMARK    7  A    between atoms: C_14  and  C_18
REMARK                            x       y       z     vdW  Elec       q    Type
REMARK                         _______ _______ _______ _____ _____    ______ ____
ROOT
ATOM      1  N   UNL     1       0.059  -4.170  -0.021  0.00  0.00    -0.225 N 
ATOM      2  C   UNL     1      -1.209  -4.885  -0.024  0.00  0.00    +0.338 C 
ATOM      3  N   UNL     1      -1.065  -6.252  -0.500  0.00  0.00    -0.204 NA
ATOM      4  C   UNL     1       0.039  -6.891  -0.521  0.00  0.00    +0.200 C 
ATOM      5  C   UNL     1       1.335  -6.296  -0.054  0.00  0.00    +0.183 C 
ATOM      6  C   UNL     1       1.242  -4.797  -0.031  0.00  0.00    +0.237 C 
ATOM      7  O   UNL     1       2.261  -4.140  -0.015  0.00  0.00    -0.274 OA
ENDROOT
BRANCH   5   8
ATOM      8  C   UNL     1       1.649  -6.808   1.353  0.00  0.00    +0.122 C 
ATOM      9  C   UNL     1       1.877  -8.300   1.312  0.00  0.00    +0.039 A 
ATOM     10  H   UNL     1       3.073  -8.612  -0.365  0.00  0.00    +0.166 HD
ATOM     11  C   UNL     1       1.359  -9.150   2.228  0.00  0.00    -0.016 A 
ATOM     12  C   UNL     1       1.786 -10.483   1.864  0.00  0.00    +0.003 A 
ATOM     13  C   UNL     1       1.562 -11.741   2.431  0.00  0.00    +0.010 A 
ATOM     14  C   UNL     1       2.137 -12.817   1.802  0.00  0.00    +0.001 A 
ATOM     15  C   UNL     1       2.904 -12.677   0.658  0.00  0.00    +0.002 A 
ATOM     16  C   UNL     1       3.143 -11.444   0.075  0.00  0.00    +0.026 A 
ATOM     17  C   UNL     1       2.572 -10.333   0.691  0.00  0.00    +0.047 A 
ATOM     18  N   UNL     1       2.604  -9.002   0.389  0.00  0.00    -0.356 N 
ATOM     19  C   UNL     1       0.506  -8.703   3.389  0.00  0.00    +0.052 C 
ATOM     20  C   UNL     1       0.681  -7.187   3.550  0.00  0.00    +0.086 C 
ATOM     21  N   UNL     1       0.512  -6.529   2.245  0.00  0.00    -0.307 NA
ATOM     22  H   UNL     1       0.372  -5.536   2.353  0.00  0.00    +0.123 HD
ENDBRANCH   5   8
BRANCH   1  27
ATOM     23  C   UNL     1      -0.018   1.503   0.010  0.00  0.00    +0.044 C 
ATOM     24  C   UNL     1       0.002  -0.004   0.002  0.00  0.00    -0.050 A 
ATOM     25  C   UNL     1       0.006  -0.687  -1.200  0.00  0.00    +0.008 A 
ATOM     26  C   UNL     1       0.025  -2.068  -1.211  0.00  0.00    -0.028 A 
ATOM     27  C   UNL     1       0.040  -2.771  -0.013  0.00  0.00    +0.046 A 
ATOM     28  C   UNL     1       0.037  -2.081   1.192  0.00  0.00    -0.028 A 
ATOM     29  C   UNL     1       0.023  -0.700   1.197  0.00  0.00    +0.008 A 
ATOM     30  C   UNL     1       0.053  -2.840   2.495  0.00  0.00    +0.046 C 
ATOM     31  C   UNL     1       0.028  -2.812  -2.522  0.00  0.00    +0.046 C 
ENDBRANCH   1  27
BRANCH   4  32
ATOM     32  O   UNL     1       0.041  -8.159  -0.984  0.00  0.00    -0.495 OA
ATOM     33  H   UNL     1      -0.828  -8.476  -1.266  0.00  0.00    +0.293 HD
ENDBRANCH   4  32
BRANCH   2  34
ATOM     34  O   UNL     1      -1.731  -4.911   1.306  0.00  0.00    -0.356 OA
ATOM     35  H   UNL     1      -2.577  -5.372   1.388  0.00  0.00    +0.214 HD
ENDBRANCH   2  34
TORSDOF 4
