REMARK  Name = ZINC20898893
REMARK  7 active torsions:
REMARK  status: ('A' for Active; 'I' for Inactive)
REMARK    1  A    between atoms: C_1  and  C_2
REMARK    2  A    between atoms: C_13  and  C_15
REMARK    3  A    between atoms: C_18  and  O_23
REMARK    4  A    between atoms: C_19  and  O_21
REMARK    5  A    between atoms: O_21  and  C_22
REMARK    6  A    between atoms: O_23  and  C_24
REMARK    7  A    between atoms: C_24  and  C_25
REMARK                            x       y       z     vdW  Elec       q    Type
REMARK                         _______ _______ _______ _____ _____    ______ ____
ROOT
ATOM      1  C   UNL     1      -2.072   5.007   0.853  0.00  0.00    -0.026 A 
ATOM      2  C   UNL     1      -2.700   4.795   2.066  0.00  0.00    +0.009 A 
ATOM      3  C   UNL     1      -3.575   5.740   2.569  0.00  0.00    +0.050 A 
ATOM      4  C   UNL     1      -3.824   6.903   1.857  0.00  0.00    +0.162 A 
ATOM      5  C   UNL     1      -3.191   7.116   0.636  0.00  0.00    +0.162 A 
ATOM      6  C   UNL     1      -2.311   6.168   0.140  0.00  0.00    +0.054 A 
ENDROOT
BRANCH   1  19
ATOM      7  C   UNL     1      -4.079   4.150  -0.533  0.00  0.00    +0.068 C 
ATOM      8  C   UNL     1      -3.263   2.883  -0.514  0.00  0.00    +0.066 A 
ATOM      9  C   UNL     1      -1.908   2.782  -0.134  0.00  0.00    +0.032 A 
ATOM     10  C   UNL     1      -1.540   1.489  -0.260  0.00  0.00    +0.125 A 
ATOM     11  N   UNL     1      -2.639   0.797  -0.695  0.00  0.00    -0.263 N 
ATOM     12  H   UNL     1      -2.576  -0.288  -0.861  0.00  0.00    +0.190 HD
ATOM     13  N   UNL     1      -3.692   1.699  -0.847  0.00  0.00    -0.177 NA
ATOM     14  N   UNL     1      -0.347   0.848  -0.024  0.00  0.00    -0.270 N 
ATOM     15  C   UNL     1       0.817   1.211   0.426  0.00  0.00    +0.228 C 
ATOM     16  O   UNL     1       1.607   0.305   0.585  0.00  0.00    -0.275 OA
ATOM     17  C   UNL     1       1.330   2.552   0.775  0.00  0.00    +0.166 C 
ATOM     18  S   UNL     1       0.097   3.590   1.572  0.00  0.00    -0.138 S 
ATOM     19  C   UNL     1      -1.119   3.974   0.309  0.00  0.00    +0.112 C 
ATOM     20  H   UNL     1      -0.250  -0.228  -0.232  0.00  0.00    +0.156 HD
ENDBRANCH   1  19
BRANCH   5  21
ATOM     21  O   UNL     1      -3.431   8.256  -0.066  0.00  0.00    -0.491 OA
ATOM     22  C   UNL     1      -2.746   8.407  -1.311  0.00  0.00    +0.277 C 
ENDBRANCH   5  21
BRANCH   4  23
ATOM     23  O   UNL     1      -4.684   7.833   2.350  0.00  0.00    -0.484 OA
BRANCH  23  24
ATOM     24  C   UNL     1      -5.296   7.548   3.609  0.00  0.00    +0.266 C 
BRANCH  24  25
ATOM     25  C   UNL     1      -6.210   8.683   3.993  0.00  0.00    +0.008 A 
ATOM     26  C   UNL     1      -6.337   9.780   3.161  0.00  0.00    +0.008 A 
ATOM     27  C   UNL     1      -7.178  10.819   3.510  0.00  0.00    +0.000 A 
ATOM     28  C   UNL     1      -7.885  10.768   4.697  0.00  0.00    +0.001 A 
ATOM     29  C   UNL     1      -7.756   9.674   5.532  0.00  0.00    +0.020 A 
ATOM     30  C   UNL     1      -6.917   8.631   5.181  0.00  0.00    +0.047 A 
ATOM     31 CL   UNL     1      -6.753   7.257   6.229  0.00  0.00    -0.083 Cl
ENDBRANCH  24  25
ENDBRANCH  23  24
ENDBRANCH   4  23
TORSDOF 5
