REMARK  Name = ZINC32201636
REMARK  6 active torsions:
REMARK  status: ('A' for Active; 'I' for Inactive)
REMARK    1  A    between atoms: C_7  and  C_11
REMARK    2  A    between atoms: C_11  and  C_12
REMARK    3  A    between atoms: C_12  and  N_13
REMARK    4  A    between atoms: C_14  and  C_16
REMARK    5  A    between atoms: C_17  and  C_18
REMARK    6  A    between atoms: C_22  and  N_24
REMARK                            x       y       z     vdW  Elec       q    Type
REMARK                         _______ _______ _______ _____ _____    ______ ____
ROOT
ATOM      1  N   UNL     1       3.608   7.713   0.009  0.00  0.00    -0.312 N 
ATOM      2  C   UNL     1       3.635   6.366   0.002  0.00  0.00    +0.237 C 
ATOM      3  O   UNL     1       4.701   5.779  -0.011  0.00  0.00    -0.271 OA
ATOM      4  H   UNL     1       2.644   8.244   0.020  0.00  0.00    +0.149 HD
ENDROOT
BRANCH   2   5
ATOM      5  C   UNL     1       2.382   5.608   0.009  0.00  0.00    +0.068 C 
ATOM      6  C   UNL     1       2.409   4.260   0.002  0.00  0.00    +0.013 C 
BRANCH   6   7
ATOM      7  C   UNL     1       1.149   3.499   0.009  0.00  0.00    -0.023 A 
ATOM      8  C   UNL     1      -0.078   4.171   0.024  0.00  0.00    +0.008 A 
ATOM      9  C   UNL     1      -1.256   3.454   0.032  0.00  0.00    +0.002 A 
ATOM     10  C   UNL     1      -1.230   2.071   0.019  0.00  0.00    +0.023 A 
ATOM     11  C   UNL     1      -0.017   1.393   0.010  0.00  0.00    +0.025 A 
ATOM     12  C   UNL     1       1.174   2.102   0.002  0.00  0.00    +0.030 A 
BRANCH  11  13
ATOM     13  N   UNL     1       0.002  -0.004   0.002  0.00  0.00    -0.358 N 
ATOM     14  H   UNL     1       0.962  -0.541  -0.005  0.00  0.00    +0.142 HD
ATOM     15  H   UNL     1      -0.943  -0.567   0.003  0.00  0.00    +0.142 HD
ENDBRANCH  11  13
ENDBRANCH   6   7
ENDBRANCH   2   5
BRANCH   1  16
ATOM     16  C   UNL     1       4.862   8.471   0.001  0.00  0.00    +0.109 C 
BRANCH  16  17
ATOM     17  C   UNL     1       4.552   9.969   0.012  0.00  0.00    +0.056 C 
BRANCH  17  24
ATOM     18  C   UNL     1       7.420  11.390  -3.413  0.00  0.00    +0.001 A 
ATOM     19  C   UNL     1       8.517  12.098  -2.941  0.00  0.00    +0.002 A 
ATOM     20  C   UNL     1       8.681  12.322  -1.592  0.00  0.00    +0.026 A 
ATOM     21  C   UNL     1       7.739  11.835  -0.691  0.00  0.00    +0.047 A 
ATOM     22  C   UNL     1       6.630  11.118  -1.174  0.00  0.00    +0.003 A 
ATOM     23  C   UNL     1       6.483  10.903  -2.546  0.00  0.00    +0.010 A 
ATOM     24  C   UNL     1       5.841  10.749   0.004  0.00  0.00    -0.021 A 
ATOM     25  C   UNL     1       6.483  11.242   1.075  0.00  0.00    +0.087 A 
ATOM     26  N   UNL     1       7.622  11.889   0.680  0.00  0.00    -0.360 N 
ATOM     27  H   UNL     1       8.389  12.404   1.278  0.00  0.00    +0.165 HD
ENDBRANCH  17  24
ENDBRANCH  16  17
ENDBRANCH   1  16
TORSDOF 6
