REMARK  Name = ZINC07003200
REMARK  9 active torsions:
REMARK  status: ('A' for Active; 'I' for Inactive)
REMARK    1  A    between atoms: C_1  and  C_2
REMARK    2  A    between atoms: C_3  and  C_11
REMARK    3  A    between atoms: C_4  and  N_10
REMARK    4  A    between atoms: N_5  and  C_7
REMARK    5  A    between atoms: C_7  and  C_8
REMARK    6  A    between atoms: C_8  and  O_9
REMARK    7  A    between atoms: C_11  and  O_29
REMARK    8  A    between atoms: N_18  and  C_21
REMARK    9  A    between atoms: C_21  and  C_22
REMARK                            x       y       z     vdW  Elec       q    Type
REMARK                         _______ _______ _______ _____ _____    ______ ____
ROOT
ATOM      1  C   UNL     1       2.272   4.253  -0.016  0.00  0.00    +0.199 C 
ATOM      2  C   UNL     1       1.197   3.192   0.040  0.00  0.00    +0.019 A 
ATOM      3  C   UNL     1       1.240   1.816   0.066  0.00  0.00    +0.009 A 
ATOM      4  C   UNL     1       0.063   1.090   0.118  0.00  0.00    +0.000 A 
ATOM      5  C   UNL     1      -1.152   1.749   0.137  0.00  0.00    +0.002 A 
ATOM      6  C   UNL     1      -1.198   3.128   0.115  0.00  0.00    +0.024 A 
ATOM      7  C   UNL     1      -0.017   3.866   0.064  0.00  0.00    +0.043 A 
ATOM      8  N   UNL     1       0.196   5.245   0.029  0.00  0.00    -0.264 N 
ATOM      9  C   UNL     1       1.502   5.557  -0.018  0.00  0.00    +0.261 C 
ATOM     10  O   UNL     1       1.975   6.673  -0.056  0.00  0.00    -0.271 OA
ENDROOT
BRANCH   1  13
ATOM     11  C   UNL     1       1.406   3.250   2.861  0.00  0.00    +0.068 C 
ATOM     12  C   UNL     1       2.781   3.725   2.468  0.00  0.00    +0.069 A 
ATOM     13  C   UNL     1       3.161   4.168   1.198  0.00  0.00    +0.059 A 
ATOM     14  C   UNL     1       4.480   4.503   1.251  0.00  0.00    +0.122 A 
ATOM     15  N   UNL     1       4.906   4.283   2.516  0.00  0.00    -0.248 N 
ATOM     16  N   UNL     1       3.822   3.793   3.256  0.00  0.00    -0.174 NA
BRANCH  14  17
ATOM     17  N   UNL     1       5.249   4.986   0.197  0.00  0.00    -0.343 N 
ATOM     18  H   UNL     1       4.849   5.112  -0.678  0.00  0.00    +0.144 HD
ATOM     19  H   UNL     1       6.186   5.197   0.336  0.00  0.00    +0.144 HD
ENDBRANCH  14  17
BRANCH  15  20
ATOM     20  C   UNL     1       6.262   4.513   3.021  0.00  0.00    +0.173 C 
BRANCH  20  21
ATOM     21  C   UNL     1       7.096   3.244   2.836  0.00  0.00    +0.179 C 
BRANCH  21  22
ATOM     22  O   UNL     1       8.419   3.467   3.328  0.00  0.00    -0.393 OA
ATOM     23  H   UNL     1       9.005   2.703   3.242  0.00  0.00    +0.209 HD
ENDBRANCH  21  22
ENDBRANCH  20  21
ENDBRANCH  15  20
ENDBRANCH   1  13
BRANCH   1  24
ATOM     24  O   UNL     1       3.042   4.124  -1.212  0.00  0.00    -0.371 OA
ATOM     25  H   UNL     1       2.523   4.202  -2.025  0.00  0.00    +0.212 HD
ENDBRANCH   1  24
BRANCH   8  26
ATOM     26  C   UNL     1      -0.881   6.238   0.043  0.00  0.00    +0.150 C 
BRANCH  26  27
ATOM     27  C   UNL     1      -1.317   6.486   1.463  0.00  0.00    -0.011 A 
ATOM     28  C   UNL     1      -2.409   5.813   1.979  0.00  0.00    +0.006 A 
ATOM     29  C   UNL     1      -2.807   6.038   3.284  0.00  0.00    +0.000 A 
ATOM     30  C   UNL     1      -2.119   6.943   4.071  0.00  0.00    +0.001 A 
ATOM     31  C   UNL     1      -1.030   7.620   3.555  0.00  0.00    +0.020 A 
ATOM     32  C   UNL     1      -0.629   7.392   2.250  0.00  0.00    +0.046 A 
ATOM     33 CL   UNL     1       0.739   8.242   1.602  0.00  0.00    -0.083 Cl
ENDBRANCH  26  27
ENDBRANCH   8  26
TORSDOF 8
