REMARK  Name = ZINC09530017
REMARK  6 active torsions:
REMARK  status: ('A' for Active; 'I' for Inactive)
REMARK    1  A    between atoms: C_1  and  C_2
REMARK    2  A    between atoms: C_2  and  C_3
REMARK    3  A    between atoms: C_2  and  C_4
REMARK    4  A    between atoms: C_7  and  N_10
REMARK    5  A    between atoms: C_11  and  C_13
REMARK    6  A    between atoms: C_16  and  N_19
REMARK                            x       y       z     vdW  Elec       q    Type
REMARK                         _______ _______ _______ _____ _____    ______ ____
ROOT
ATOM      1  C   UNL     1      -7.203  -3.076  -1.052  0.00  0.00    +0.037 A 
ATOM      2  C   UNL     1      -8.059  -2.744   0.005  0.00  0.00    +0.015 A 
ATOM      3  C   UNL     1      -9.367  -3.128  -0.030  0.00  0.00    +0.028 A 
ATOM      4  C   UNL     1      -9.854  -3.855  -1.123  0.00  0.00    +0.067 A 
ATOM      5  C   UNL     1      -8.998  -4.187  -2.180  0.00  0.00    +0.028 A 
ATOM      6  C   UNL     1      -7.691  -3.798  -2.147  0.00  0.00    +0.015 A 
ENDROOT
BRANCH   4   7
ATOM      7  N   UNL     1     -11.162  -4.240  -1.158  0.00  0.00    -0.226 NA
ATOM      8  C   UNL     1     -11.863  -4.088  -2.262  0.00  0.00    +0.155 C 
ATOM      9  N   UNL     1     -11.432  -3.561  -3.484  0.00  0.00    -0.318 N 
ATOM     10  C   UNL     1     -12.478  -3.292  -4.421  0.00  0.00    +0.108 C 
ATOM     11  C   UNL     1     -12.243  -2.966  -5.886  0.00  0.00    +0.189 C 
ATOM     12  S   UNL     1     -13.963  -3.165  -6.544  0.00  0.00    -0.028 S 
ATOM     13  O   UNL     1     -13.958  -4.152  -7.566  0.00  0.00    -0.174 OA
ATOM     14  O   UNL     1     -14.508  -1.880  -6.814  0.00  0.00    -0.174 OA
ATOM     15  C   UNL     1     -14.777  -3.864  -5.031  0.00  0.00    +0.182 C 
ATOM     16  C   UNL     1     -13.521  -4.472  -4.369  0.00  0.00    +0.097 C 
ATOM     17  S   UNL     1     -13.587  -4.521  -2.538  0.00  0.00    -0.084 S 
ATOM     18  H   UNL     1     -10.497  -3.392  -3.680  0.00  0.00    +0.148 HD
ENDBRANCH   4   7
BRANCH   1  20
ATOM     19  N   UNL     1      -5.320  -1.967   0.042  0.00  0.00    -0.282 N 
ATOM     20  C   UNL     1      -5.790  -2.662  -1.013  0.00  0.00    +0.248 C 
ATOM     21  O   UNL     1      -5.047  -2.946  -1.933  0.00  0.00    -0.270 OA
ATOM     22  H   UNL     1      -5.890  -1.806   0.810  0.00  0.00    +0.155 HD
BRANCH  19  26
ATOM     23  C   UNL     1      -1.417  -0.510   0.005  0.00  0.00    -0.045 A 
ATOM     24  C   UNL     1      -1.991  -0.917   1.195  0.00  0.00    +0.006 A 
ATOM     25  C   UNL     1      -3.284  -1.401   1.211  0.00  0.00    +0.023 A 
ATOM     26  C   UNL     1      -4.010  -1.478   0.029  0.00  0.00    +0.034 A 
ATOM     27  C   UNL     1      -3.431  -1.068  -1.165  0.00  0.00    +0.023 A 
ATOM     28  C   UNL     1      -2.139  -0.581  -1.173  0.00  0.00    +0.006 A 
BRANCH  23  30
ATOM     29  C   UNL     1       0.087   1.249   0.893  0.00  0.00    +0.012 C 
ATOM     30  C   UNL     1      -0.006   0.017  -0.009  0.00  0.00    +0.013 C 
ATOM     31  C   UNL     1       0.947  -1.064   0.505  0.00  0.00    +0.012 C 
ENDBRANCH  23  30
ENDBRANCH  19  26
ENDBRANCH   1  20
TORSDOF 4
