REMARK  Name = ZINC00641495
REMARK  7 active torsions:
REMARK  status: ('A' for Active; 'I' for Inactive)
REMARK    1  A    between atoms: C_1  and  C_2
REMARK    2  A    between atoms: C_2  and  O_3
REMARK    3  A    between atoms: O_3  and  C_4
REMARK    4  A    between atoms: C_7  and  N_10
REMARK    5  A    between atoms: C_19  and  S_20
REMARK    6  A    between atoms: S_20  and  C_21
REMARK    7  A    between atoms: C_21  and  C_22
REMARK                            x       y       z     vdW  Elec       q    Type
REMARK                         _______ _______ _______ _____ _____    ______ ____
ROOT
ATOM      1  N   UNL     1       1.304  -4.546  -0.363  0.00  0.00    -0.255 N 
ATOM      2  C   UNL     1       1.815  -3.352   0.018  0.00  0.00    +0.268 A 
ATOM      3  O   UNL     1       3.014  -3.174   0.153  0.00  0.00    -0.267 OA
ATOM      4  C   UNL     1       0.861  -2.309   0.253  0.00  0.00    +0.076 A 
ATOM      5  C   UNL     1       1.149  -0.946   0.666  0.00  0.00    -0.023 A 
ATOM      6  C   UNL     1       0.087  -0.124   0.830  0.00  0.00    -0.004 A 
ATOM      7  S   UNL     1      -1.333  -1.117   0.445  0.00  0.00    -0.073 S 
ATOM      8  C   UNL     1      -0.504  -2.628   0.066  0.00  0.00    +0.117 A 
ATOM      9  N   UNL     1      -0.942  -3.823  -0.310  0.00  0.00    -0.215 NA
ATOM     10  C   UNL     1      -0.032  -4.765  -0.519  0.00  0.00    +0.178 A 
ATOM     11  C   UNL     1       0.109   1.314   1.248  0.00  0.00    +0.043 C 
ATOM     12  C   UNL     1       1.495   1.633   1.824  0.00  0.00    +0.005 C 
ATOM     13  C   UNL     1       2.561   1.091   0.866  0.00  0.00    +0.005 C 
ATOM     14  C   UNL     1       2.567  -0.437   0.910  0.00  0.00    +0.037 C 
ENDROOT
BRANCH   1  18
ATOM     15  C   UNL     1       3.938  -7.698  -1.089  0.00  0.00    +0.121 A 
ATOM     16  C   UNL     1       3.582  -6.840  -2.120  0.00  0.00    +0.047 A 
ATOM     17  C   UNL     1       2.711  -5.796  -1.880  0.00  0.00    +0.030 A 
ATOM     18  C   UNL     1       2.190  -5.606  -0.607  0.00  0.00    +0.052 A 
ATOM     19  C   UNL     1       2.550  -6.462   0.425  0.00  0.00    +0.030 A 
ATOM     20  C   UNL     1       3.417  -7.508   0.183  0.00  0.00    +0.047 A 
BRANCH  15  21
ATOM     21  O   UNL     1       4.797  -8.725  -1.326  0.00  0.00    -0.492 OA
BRANCH  21  23
ATOM     22  C   UNL     1       6.091 -10.659  -0.675  0.00  0.00    +0.048 C 
ATOM     23  C   UNL     1       5.119  -9.569  -0.219  0.00  0.00    +0.225 C 
ENDBRANCH  21  23
ENDBRANCH  15  21
ENDBRANCH   1  18
BRANCH  10  24
ATOM     24  S   UNL     1      -0.574  -6.366  -1.019  0.00  0.00    -0.078 S 
BRANCH  24  25
ATOM     25  C   UNL     1      -2.362  -6.093  -1.064  0.00  0.00    +0.172 C 
BRANCH  25  26
ATOM     26  C   UNL     1      -3.054  -7.365  -1.480  0.00  0.00    +0.221 C 
ATOM     27  O   UNL     1      -2.403  -8.359  -1.722  0.00  0.00    -0.275 OA
ATOM     28  N   UNL     1      -4.398  -7.399  -1.583  0.00  0.00    -0.329 N 
ATOM     29  H   UNL     1      -4.919  -6.604  -1.390  0.00  0.00    +0.145 HD
ATOM     30  H   UNL     1      -4.843  -8.218  -1.851  0.00  0.00    +0.145 HD
ENDBRANCH  25  26
ENDBRANCH  24  25
ENDBRANCH  10  24
TORSDOF 6
