REMARK  Name = ZINC32967124
REMARK  9 active torsions:
REMARK  status: ('A' for Active; 'I' for Inactive)
REMARK    1  A    between atoms: C_1  and  C_2
REMARK    2  A    between atoms: C_2  and  C_3
REMARK    3  A    between atoms: C_3  and  N_4
REMARK    4  A    between atoms: N_4  and  C_5
REMARK    5  A    between atoms: C_13  and  C_15
REMARK    6  A    between atoms: C_17  and  S_22
REMARK    7  A    between atoms: S_22  and  N_25
REMARK    8  A    between atoms: N_28  and  C_31
REMARK    9  A    between atoms: C_31  and  C_32
REMARK                            x       y       z     vdW  Elec       q    Type
REMARK                         _______ _______ _______ _____ _____    ______ ____
ROOT
ATOM      1  C   UNL     1      -0.691  -0.874  -4.270  0.00  0.00    +0.057 A 
ATOM      2  C   UNL     1       0.086   0.189  -4.732  0.00  0.00    +0.043 A 
ATOM      3  C   UNL     1       0.485   0.226  -6.051  0.00  0.00    +0.106 A 
ATOM      4  C   UNL     1       0.116  -0.788  -6.918  0.00  0.00    +0.030 A 
ATOM      5  C   UNL     1      -0.655  -1.844  -6.469  0.00  0.00    +0.022 A 
ATOM      6  C   UNL     1      -1.056  -1.898  -5.148  0.00  0.00    +0.053 A 
ATOM      7 CL   UNL     1      -2.016  -3.229  -4.583  0.00  0.00    -0.083 Cl
ENDROOT
BRANCH   1   9
ATOM      8  N   UNL     1      -0.202  -0.929  -1.872  0.00  0.00    -0.293 N 
ATOM      9  C   UNL     1      -1.122  -0.920  -2.857  0.00  0.00    +0.248 C 
ATOM     10  O   UNL     1      -2.306  -0.951  -2.583  0.00  0.00    -0.270 OA
BRANCH   8  11
ATOM     11  C   UNL     1      -0.627  -0.867  -0.471  0.00  0.00    +0.099 C 
ATOM     12  C   UNL     1      -1.444   0.413  -0.233  0.00  0.00    +0.046 C 
ATOM     13  C   UNL     1      -2.162   0.334   1.136  0.00  0.00    +0.168 C 
ATOM     14  S   UNL     1      -2.389  -1.477   1.369  0.00  0.00    -0.029 S 
ATOM     15  O   UNL     1      -3.773  -1.786   1.274  0.00  0.00    -0.174 OA
ATOM     16  O   UNL     1      -1.657  -1.892   2.514  0.00  0.00    -0.174 OA
ATOM     17  C   UNL     1      -1.533  -2.088  -0.143  0.00  0.00    +0.188 C 
ENDBRANCH   8  11
BRANCH   8  18
ATOM     18  C   UNL     1       1.224  -1.000  -2.202  0.00  0.00    +0.108 C 
BRANCH  18  20
ATOM     19  C   UNL     1       3.120  -2.545  -2.711  0.00  0.00    +0.005 C 
ATOM     20  C   UNL     1       1.666  -2.464  -2.243  0.00  0.00    +0.016 C 
ENDBRANCH  18  20
ENDBRANCH   8  18
ENDBRANCH   1   9
BRANCH   3  21
ATOM     21  S   UNL     1       1.467   1.567  -6.635  0.00  0.00    +0.061 S 
ATOM     22  O   UNL     1       1.289   1.618  -8.044  0.00  0.00    -0.153 OA
ATOM     23  O   UNL     1       1.184   2.675  -5.792  0.00  0.00    -0.153 OA
BRANCH  21  24
ATOM     24  N   UNL     1       3.051   1.165  -6.373  0.00  0.00    -0.180 NA
ATOM     25  C   UNL     1       3.764   1.644  -5.179  0.00  0.00    +0.091 C 
ATOM     26  C   UNL     1       4.421   0.437  -4.492  0.00  0.00    -0.061 C 
ATOM     27  N   UNL     1       5.255  -0.280  -5.467  0.00  0.00    +0.381 N 
ATOM     28  C   UNL     1       4.443  -0.828  -6.562  0.00  0.00    -0.061 C 
ATOM     29  C   UNL     1       3.785   0.323  -7.330  0.00  0.00    +0.091 C 
ATOM     30  H   UNL     1       5.959   0.444  -5.902  0.00  0.00    -0.082 HD
BRANCH  27  31
ATOM     31  C   UNL     1       6.038  -1.337  -4.813  0.00  0.00    -0.082 C 
ATOM     32  C   UNL     1       7.049  -0.704  -3.854  0.00  0.00    -0.017 C 
ENDBRANCH  27  31
ENDBRANCH  21  24
ENDBRANCH   3  21
TORSDOF 7
