REMARK  Name = ZINC40611764
REMARK  6 active torsions:
REMARK  status: ('A' for Active; 'I' for Inactive)
REMARK    1  A    between atoms: C_4  and  C_7
REMARK    2  A    between atoms: C_7  and  C_8
REMARK    3  A    between atoms: C_15  and  N_31
REMARK    4  A    between atoms: C_16  and  N_20
REMARK    5  A    between atoms: N_20  and  N_21
REMARK    6  A    between atoms: C_22  and  C_24
REMARK                            x       y       z     vdW  Elec       q    Type
REMARK                         _______ _______ _______ _____ _____    ______ ____
ROOT
ATOM      1  C   UNL     1       3.682  -1.016   1.599  0.00  0.00    -0.004 C 
ATOM      2  C   UNL     1       2.809  -1.942   2.448  0.00  0.00    +0.023 C 
ATOM      3  C   UNL     1       3.468  -2.146   3.816  0.00  0.00    +0.107 C 
ATOM      4  N   UNL     1       4.840  -2.629   3.613  0.00  0.00    -0.313 N 
ATOM      5  C   UNL     1       5.737  -1.861   2.739  0.00  0.00    +0.107 C 
ATOM      6  C   UNL     1       5.053  -1.660   1.383  0.00  0.00    +0.023 C 
ATOM      7  C   UNL     1       5.280  -3.788   4.234  0.00  0.00    +0.157 A 
ATOM      8  C   UNL     1       5.861  -3.734   5.497  0.00  0.00    +0.207 A 
ATOM      9  C   UNL     1       6.287  -4.925   6.077  0.00  0.00    +0.171 A 
ATOM     10  N   UNL     1       6.124  -6.065   5.407  0.00  0.00    -0.217 NA
ATOM     11  C   UNL     1       5.569  -6.074   4.213  0.00  0.00    +0.225 A 
ATOM     12  N   UNL     1       5.149  -4.968   3.632  0.00  0.00    -0.218 NA
ENDROOT
BRANCH   8  13
ATOM     13  N   UNL     1       6.022  -2.445   6.205  0.00  0.00    +0.063 N 
ATOM     14  O   UNL     1       5.148  -2.043   6.937  0.00  0.00    -0.126 OA
ATOM     15  O   UNL     1       7.029  -1.792   6.051  0.00  0.00    -0.126 OA
ENDBRANCH   8  13
BRANCH   9  16
ATOM     16  N   UNL     1       6.872  -4.925   7.334  0.00  0.00    -0.246 N 
ATOM     17  H   UNL     1       6.987  -4.091   7.816  0.00  0.00    +0.172 HD
BRANCH  16  18
ATOM     18  N   UNL     1       7.296  -6.130   7.909  0.00  0.00    -0.231 N 
ATOM     19  C   UNL     1       7.865  -6.131   9.131  0.00  0.00    +0.260 C 
ATOM     20  O   UNL     1       8.010  -5.085   9.734  0.00  0.00    -0.269 OA
ATOM     21  H   UNL     1       7.181  -6.965   7.427  0.00  0.00    +0.173 HD
BRANCH  19  22
ATOM     22  C   UNL     1       8.313  -7.401   9.737  0.00  0.00    +0.038 A 
ATOM     23  C   UNL     1       8.154  -8.603   9.043  0.00  0.00    +0.016 A 
ATOM     24  C   UNL     1       8.573  -9.786   9.613  0.00  0.00    +0.039 A 
ATOM     25  C   UNL     1       9.152  -9.784  10.873  0.00  0.00    +0.123 A 
ATOM     26  C   UNL     1       9.313  -8.594  11.566  0.00  0.00    +0.039 A 
ATOM     27  C   UNL     1       8.903  -7.404  11.002  0.00  0.00    +0.016 A 
ATOM     28  F   UNL     1       9.561 -10.946  11.428  0.00  0.00    -0.205 F 
ENDBRANCH  19  22
ENDBRANCH  16  18
ENDBRANCH   9  16
BRANCH   1  29
ATOM     29  C   UNL     1       3.010  -0.782   0.244  0.00  0.00    +0.038 C 
BRANCH  29  33
ATOM     30  C   UNL     1      -0.659   1.329   0.817  0.00  0.00    +0.000 A 
ATOM     31  C   UNL     1       0.516   2.028   0.616  0.00  0.00    +0.000 A 
ATOM     32  C   UNL     1       1.704   1.345   0.431  0.00  0.00    +0.003 A 
ATOM     33  C   UNL     1       1.716  -0.038   0.447  0.00  0.00    -0.047 A 
ATOM     34  C   UNL     1       0.540  -0.737   0.649  0.00  0.00    +0.003 A 
ATOM     35  C   UNL     1      -0.647  -0.053   0.833  0.00  0.00    +0.000 A 
ENDBRANCH  29  33
ENDBRANCH   1  29
TORSDOF 6
