REMARK  Name = ZINC40371033
REMARK  11 active torsions:
REMARK  status: ('A' for Active; 'I' for Inactive)
REMARK    1  A    between atoms: C_1  and  C_2
REMARK    2  A    between atoms: C_2  and  C_3
REMARK    3  A    between atoms: C_3  and  C_4
REMARK    4  A    between atoms: C_3  and  C_6
REMARK    5  A    between atoms: C_3  and  N_10
REMARK    6  A    between atoms: C_4  and  C_5
REMARK    7  A    between atoms: N_7  and  O_8
REMARK    8  A    between atoms: C_11  and  C_13
REMARK    9  A    between atoms: C_14  and  C_21
REMARK   10  A    between atoms: C_16  and  C_20
REMARK   11  A    between atoms: C_18  and  C_19
REMARK                            x       y       z     vdW  Elec       q    Type
REMARK                         _______ _______ _______ _____ _____    ______ ____
ROOT
ATOM      1  N   UNL     1      -0.030  -0.299   2.460  0.00  0.00    -0.299 N 
ATOM      2  C   UNL     1      -1.343  -0.575   2.591  0.00  0.00    +0.245 C 
ATOM      3  O   UNL     1      -1.933  -1.159   1.703  0.00  0.00    -0.270 OA
ATOM      4  H   UNL     1       0.457   0.103   3.196  0.00  0.00    +0.150 HD
ENDROOT
BRANCH   2   5
ATOM      5  C   UNL     1      -2.065  -0.167   3.815  0.00  0.00    +0.043 A 
ATOM      6  C   UNL     1      -2.770   1.038   3.844  0.00  0.00    -0.038 A 
ATOM      7  C   UNL     1      -3.443   1.412   4.989  0.00  0.00    +0.007 A 
ATOM      8  C   UNL     1      -3.419   0.597   6.107  0.00  0.00    -0.050 A 
ATOM      9  C   UNL     1      -2.722  -0.598   6.085  0.00  0.00    +0.007 A 
ATOM     10  C   UNL     1      -2.050  -0.987   4.944  0.00  0.00    -0.038 A 
ATOM     11  C   UNL     1      -1.297  -2.292   4.920  0.00  0.00    +0.044 C 
ATOM     12  C   UNL     1      -4.155   1.013   7.354  0.00  0.00    +0.044 C 
ATOM     13  C   UNL     1      -2.797   1.927   2.627  0.00  0.00    +0.044 C 
ENDBRANCH   2   5
BRANCH   1  14
ATOM     14  C   UNL     1       0.661  -0.607   1.206  0.00  0.00    +0.093 C 
BRANCH  14  15
ATOM     15  C   UNL     1       2.082  -0.111   1.281  0.00  0.00    +0.155 C 
ATOM     16  N   UNL     1       3.062  -0.921   1.048  0.00  0.00    -0.075 NA
ATOM     17  N   UNL     1       2.337   1.205   1.597  0.00  0.00    -0.342 N 
ATOM     18  H   UNL     1       1.607   1.795   1.842  0.00  0.00    +0.144 HD
ATOM     19  H   UNL     1       3.246   1.542   1.574  0.00  0.00    +0.144 HD
BRANCH  16  20
ATOM     20  O   UNL     1       4.397  -0.455   1.119  0.00  0.00    -0.408 OA
ATOM     21  H   UNL     1       5.061  -1.133   0.930  0.00  0.00    +0.328 HD
ENDBRANCH  16  20
ENDBRANCH  14  15
BRANCH  14  23
ATOM     22  C   UNL     1       0.599  -0.323  -1.276  0.00  0.00    +0.006 C 
ATOM     23  C   UNL     1      -0.059   0.083   0.044  0.00  0.00    +0.030 C 
ENDBRANCH  14  23
BRANCH  14  24
ATOM     24  C   UNL     1       0.660  -2.120   0.980  0.00  0.00    +0.030 C 
ATOM     25  C   UNL     1       1.268  -2.817   2.199  0.00  0.00    +0.006 C 
ENDBRANCH  14  24
ENDBRANCH   1  14
TORSDOF 6
