REMARK  Name = ZINC40556196
REMARK  7 active torsions:
REMARK  status: ('A' for Active; 'I' for Inactive)
REMARK    1  A    between atoms: C_4  and  C_7
REMARK    2  A    between atoms: C_13  and  C_15
REMARK    3  A    between atoms: N_17  and  C_18
REMARK    4  A    between atoms: C_18  and  C_19
REMARK    5  A    between atoms: C_19  and  C_20
REMARK    6  A    between atoms: C_23  and  S_26
REMARK    7  A    between atoms: S_26  and  N_29
REMARK                            x       y       z     vdW  Elec       q    Type
REMARK                         _______ _______ _______ _____ _____    ______ ____
ROOT
ATOM      1  C   UNL     1       5.811  -2.437  -1.054  0.00  0.00    +0.234 C 
ATOM      2  O   UNL     1       5.394  -1.667  -1.893  0.00  0.00    -0.274 OA
ATOM      3  N   UNL     1       7.027  -2.999  -1.200  0.00  0.00    -0.313 N 
ATOM      4  H   UNL     1       7.361  -3.615  -0.529  0.00  0.00    +0.149 HD
ENDROOT
BRANCH   1  11
ATOM      5  C   UNL     1       3.696  -0.685  -0.037  0.00  0.00    +0.248 C 
ATOM      6  O   UNL     1       4.734  -0.064  -0.153  0.00  0.00    -0.270 OA
ATOM      7  N   UNL     1       3.720  -2.029   0.057  0.00  0.00    -0.276 N 
ATOM      8  C   UNL     1       2.478  -2.832   0.063  0.00  0.00    +0.178 C 
ATOM      9  S   UNL     1       3.111  -4.476  -0.490  0.00  0.00    -0.139 S 
ATOM     10  C   UNL     1       4.802  -4.303   0.235  0.00  0.00    +0.102 C 
ATOM     11  C   UNL     1       4.969  -2.765   0.152  0.00  0.00    +0.173 C 
BRANCH   5  15
ATOM     12  C   UNL     1      -0.013   1.383   0.068  0.00  0.00    +0.000 A 
ATOM     13  C   UNL     1       1.073   1.950  -0.575  0.00  0.00    +0.001 A 
ATOM     14  C   UNL     1       2.280   1.284  -0.612  0.00  0.00    +0.013 A 
ATOM     15  C   UNL     1       2.405   0.035  -0.000  0.00  0.00    +0.037 A 
ATOM     16  C   UNL     1       1.305  -0.531   0.646  0.00  0.00    +0.013 A 
ATOM     17  C   UNL     1       0.103   0.146   0.676  0.00  0.00    +0.001 A 
ENDBRANCH   5  15
ENDBRANCH   1  11
BRANCH   3  18
ATOM     18  C   UNL     1       7.846  -2.679  -2.372  0.00  0.00    +0.109 C 
BRANCH  18  19
ATOM     19  C   UNL     1       9.169  -3.444  -2.295  0.00  0.00    +0.054 C 
BRANCH  19  20
ATOM     20  C   UNL     1      10.011  -3.116  -3.501  0.00  0.00    -0.046 A 
ATOM     21  C   UNL     1       9.899  -3.876  -4.650  0.00  0.00    +0.005 A 
ATOM     22  C   UNL     1      10.671  -3.575  -5.756  0.00  0.00    +0.029 A 
ATOM     23  C   UNL     1      11.555  -2.513  -5.713  0.00  0.00    +0.105 A 
ATOM     24  C   UNL     1      11.666  -1.752  -4.564  0.00  0.00    +0.029 A 
ATOM     25  C   UNL     1      10.891  -2.051  -3.460  0.00  0.00    +0.005 A 
BRANCH  23  26
ATOM     26  S   UNL     1      12.540  -2.129  -7.123  0.00  0.00    +0.056 S 
ATOM     27  O   UNL     1      13.680  -1.429  -6.644  0.00  0.00    -0.153 OA
ATOM     28  O   UNL     1      12.645  -3.326  -7.883  0.00  0.00    -0.153 OA
BRANCH  26  29
ATOM     29  N   UNL     1      11.679  -1.057  -8.045  0.00  0.00    -0.204 NA
ATOM     30  H   UNL     1      12.144  -0.403  -8.590  0.00  0.00    +0.144 HD
ATOM     31  H   UNL     1      10.709  -1.082  -8.040  0.00  0.00    +0.144 HD
ENDBRANCH  26  29
ENDBRANCH  23  26
ENDBRANCH  19  20
ENDBRANCH  18  19
ENDBRANCH   3  18
TORSDOF 7
