REMARK  Name = ZINC39636077
REMARK  7 active torsions:
REMARK  status: ('A' for Active; 'I' for Inactive)
REMARK    1  A    between atoms: C_1  and  C_2
REMARK    2  A    between atoms: C_8  and  N_10
REMARK    3  A    between atoms: C_11  and  C_13
REMARK    4  A    between atoms: C_24  and  C_26
REMARK    5  A    between atoms: C_32  and  O_34
REMARK    6  A    between atoms: O_34  and  C_35
REMARK    7  A    between atoms: C_35  and  C_36
REMARK                            x       y       z     vdW  Elec       q    Type
REMARK                         _______ _______ _______ _____ _____    ______ ____
ROOT
ATOM      1  C   UNL     1       4.209   0.649   2.377  0.00  0.00    +0.100 C 
ATOM      2  C   UNL     1       5.154  -0.371   1.704  0.00  0.00    +0.121 C 
ATOM      3  N   UNL     1       6.408  -0.294   2.489  0.00  0.00    -0.300 N 
ATOM      4  C   UNL     1       5.956  -0.152   3.894  0.00  0.00    +0.115 C 
ATOM      5  C   UNL     1       4.739   0.790   3.814  0.00  0.00    -0.004 C 
ATOM      6  C   UNL     1       5.167   2.230   4.081  0.00  0.00    -0.010 C 
ATOM      7  C   UNL     1       5.636   2.357   5.533  0.00  0.00    -0.082 C 
ATOM      8  N   UNL     1       4.545   1.975   6.437  0.00  0.00    +0.379 N 
ATOM      9  C   UNL     1       4.202   0.561   6.238  0.00  0.00    -0.082 C 
ATOM     10  C   UNL     1       3.672   0.358   4.816  0.00  0.00    -0.010 C 
ATOM     11  C   UNL     1       7.674  -0.343   2.030  0.00  0.00    +0.219 C 
ATOM     12  O   UNL     1       8.604  -0.266   2.805  0.00  0.00    -0.275 OA
ATOM     13  H   UNL     1       4.836   2.117   7.393  0.00  0.00    -0.086 HD
ATOM     14  H   UNL     1       3.736   2.546   6.246  0.00  0.00    -0.086 HD
ENDROOT
BRANCH  11  15
ATOM     15  C   UNL     1       7.935  -0.491   0.553  0.00  0.00    +0.078 C 
ATOM     16  C   UNL     1       7.309  -1.795   0.054  0.00  0.00    +0.032 C 
ATOM     17  C   UNL     1       7.546  -1.926  -1.454  0.00  0.00    +0.112 C 
ATOM     18  N   UNL     1       8.986  -1.808  -1.719  0.00  0.00    -0.267 N 
ATOM     19  C   UNL     1       9.705  -0.635  -1.203  0.00  0.00    +0.112 C 
ATOM     20  C   UNL     1       9.444  -0.519   0.302  0.00  0.00    +0.032 C 
ATOM     21  C   UNL     1       9.636  -2.758  -2.420  0.00  0.00    +0.403 C 
ATOM     22  O   UNL     1       9.029  -3.724  -2.841  0.00  0.00    -0.226 OA
BRANCH  21  23
ATOM     23  O   UNL     1      10.956  -2.637  -2.655  0.00  0.00    -0.445 OA
BRANCH  23  24
ATOM     24  C   UNL     1      11.579  -3.682  -3.405  0.00  0.00    +0.269 C 
BRANCH  24  25
ATOM     25  C   UNL     1      13.046  -3.377  -3.567  0.00  0.00    -0.010 A 
ATOM     26  C   UNL     1      13.484  -2.642  -4.654  0.00  0.00    +0.007 A 
ATOM     27  C   UNL     1      14.829  -2.362  -4.802  0.00  0.00    +0.000 A 
ATOM     28  C   UNL     1      15.737  -2.817  -3.864  0.00  0.00    +0.000 A 
ATOM     29  C   UNL     1      15.300  -3.550  -2.777  0.00  0.00    +0.000 A 
ATOM     30  C   UNL     1      13.954  -3.826  -2.626  0.00  0.00    +0.007 A 
ENDBRANCH  24  25
ENDBRANCH  23  24
ENDBRANCH  21  23
ENDBRANCH  11  15
BRANCH   1  32
ATOM     31  N   UNL     1       1.759   0.989   2.358  0.00  0.00    -0.312 N 
ATOM     32  C   UNL     1       2.795   0.128   2.388  0.00  0.00    +0.218 C 
ATOM     33  O   UNL     1       2.590  -1.067   2.424  0.00  0.00    -0.275 OA
ATOM     34  H   UNL     1       1.923   1.945   2.330  0.00  0.00    +0.149 HD
BRANCH  31  41
ATOM     35  C   UNL     1      -0.119   1.888   4.372  0.00  0.00    +0.009 C 
ATOM     36  C   UNL     1      -0.549   1.550   2.943  0.00  0.00    +0.006 C 
ATOM     37  C   UNL     1      -0.476   2.809   2.077  0.00  0.00    +0.005 C 
ATOM     38  C   UNL     1      -0.906   2.471   0.648  0.00  0.00    +0.000 C 
ATOM     39  C   UNL     1       0.027   1.403   0.074  0.00  0.00    +0.002 C 
ATOM     40  C   UNL     1      -0.045   0.144   0.940  0.00  0.00    +0.022 C 
ATOM     41  C   UNL     1       0.384   0.482   2.369  0.00  0.00    +0.076 C 
ENDBRANCH  31  41
ENDBRANCH   1  32
TORSDOF 6
