REMARK  Name = ZINC02305355
REMARK  6 active torsions:
REMARK  status: ('A' for Active; 'I' for Inactive)
REMARK    1  A    between atoms: C_4  and  C_7
REMARK    2  A    between atoms: C_7  and  N_8
REMARK    3  A    between atoms: N_8  and  C_9
REMARK    4  A    between atoms: C_9  and  N_11
REMARK    5  A    between atoms: N_11  and  N_12
REMARK    6  A    between atoms: C_21  and  C_23
REMARK                            x       y       z     vdW  Elec       q    Type
REMARK                         _______ _______ _______ _____ _____    ______ ____
ROOT
ATOM      1  N   UNL     1      -1.183  -0.659   0.395  0.00  0.00    -0.233 N 
ATOM      2  C   UNL     1       0.012   0.008   0.189  0.00  0.00    +0.233 A 
ATOM      3  N   UNL     1      -0.015   1.316   0.017  0.00  0.00    -0.213 NA
ATOM      4  C   UNL     1       1.120   1.998  -0.185  0.00  0.00    +0.077 A 
ATOM      5  C   UNL     1       1.126   3.388  -0.371  0.00  0.00    +0.030 A 
ATOM      6  C   UNL     1       2.309   4.034  -0.574  0.00  0.00    +0.022 A 
ATOM      7  C   UNL     1       3.514   3.335  -0.599  0.00  0.00    +0.042 A 
ATOM      8  C   UNL     1       3.544   1.982  -0.421  0.00  0.00    +0.032 A 
ATOM      9  C   UNL     1       2.347   1.288  -0.211  0.00  0.00    +0.028 A 
ATOM     10  C   UNL     1       2.315  -0.116  -0.021  0.00  0.00    +0.084 A 
ATOM     11  N   UNL     1       1.139  -0.697   0.172  0.00  0.00    -0.213 NA
ATOM     12 CL   UNL     1       4.998   4.197  -0.860  0.00  0.00    -0.084 Cl
ATOM     13  H   UNL     1      -1.186  -1.620   0.523  0.00  0.00    +0.173 HD
ENDROOT
BRANCH  10  14
ATOM     14  C   UNL     1       3.563  -0.912  -0.037  0.00  0.00    +0.001 A 
ATOM     15  C   UNL     1       3.612  -2.122  -0.732  0.00  0.00    +0.010 A 
ATOM     16  C   UNL     1       4.779  -2.857  -0.747  0.00  0.00    +0.001 A 
ATOM     17  C   UNL     1       5.896  -2.404  -0.067  0.00  0.00    +0.000 A 
ATOM     18  C   UNL     1       5.851  -1.208   0.627  0.00  0.00    +0.001 A 
ATOM     19  C   UNL     1       4.692  -0.460   0.646  0.00  0.00    +0.010 A 
ENDBRANCH  10  14
BRANCH   1  20
ATOM     20  N   UNL     1      -2.388   0.055   0.417  0.00  0.00    -0.246 N 
ATOM     21  H   UNL     1      -2.385   1.017   0.289  0.00  0.00    +0.172 HD
BRANCH  20  22
ATOM     22  C   UNL     1      -3.552  -0.594   0.618  0.00  0.00    +0.147 C 
ATOM     23  S   UNL     1      -5.025   0.278   0.645  0.00  0.00    -0.017 S 
BRANCH  22  24
ATOM     24  N   UNL     1      -3.557  -1.930   0.796  0.00  0.00    -0.321 N 
ATOM     25  H   UNL     1      -2.722  -2.424   0.781  0.00  0.00    +0.148 HD
BRANCH  24  26
ATOM     26  C   UNL     1      -4.822  -2.635   1.014  0.00  0.00    +0.138 C 
BRANCH  26  30
ATOM     27  C   UNL     1      -4.060  -6.811   1.496  0.00  0.00    +0.000 A 
ATOM     28  C   UNL     1      -4.068  -5.978   2.599  0.00  0.00    +0.000 A 
ATOM     29  C   UNL     1      -4.314  -4.627   2.443  0.00  0.00    +0.005 A 
ATOM     30  C   UNL     1      -4.553  -4.108   1.184  0.00  0.00    -0.030 A 
ATOM     31  C   UNL     1      -4.551  -4.942   0.082  0.00  0.00    +0.005 A 
ATOM     32  C   UNL     1      -4.299  -6.293   0.237  0.00  0.00    +0.000 A 
ENDBRANCH  26  30
ENDBRANCH  24  26
ENDBRANCH  22  24
ENDBRANCH  20  22
ENDBRANCH   1  20
TORSDOF 6
