REMARK  Name = ZINC35646496
REMARK  12 active torsions:
REMARK  status: ('A' for Active; 'I' for Inactive)
REMARK    1  A    between atoms: C_1  and  C_2
REMARK    2  A    between atoms: C_2  and  N_3
REMARK    3  A    between atoms: C_4  and  C_24
REMARK    4  A    between atoms: C_5  and  C_19
REMARK    5  A    between atoms: C_6  and  C_11
REMARK    6  A    between atoms: C_14  and  O_17
REMARK    7  A    between atoms: O_17  and  C_18
REMARK    8  A    between atoms: C_19  and  O_21
REMARK    9  A    between atoms: O_21  and  C_22
REMARK   10  A    between atoms: C_22  and  C_23
REMARK   11  A    between atoms: C_24  and  N_25
REMARK   12  A    between atoms: C_31  and  C_33
REMARK                            x       y       z     vdW  Elec       q    Type
REMARK                         _______ _______ _______ _____ _____    ______ ____
ROOT
ATOM      1  N   UNL     1      -1.557  -0.604   0.016  0.00  0.00    -0.258 N 
ATOM      2  C   UNL     1      -2.052  -0.809   1.272  0.00  0.00    +0.041 C 
ATOM      3  C   UNL     1      -3.271  -1.357   1.460  0.00  0.00    +0.080 C 
ATOM      4  C   UNL     1      -4.071  -1.736   0.230  0.00  0.00    +0.144 C 
ATOM      5  N   UNL     1      -3.448  -1.474  -1.078  0.00  0.00    -0.288 N 
ATOM      6  C   UNL     1      -2.222  -0.915  -1.103  0.00  0.00    +0.307 C 
ATOM      7  O   UNL     1      -1.700  -0.691  -2.178  0.00  0.00    -0.252 OA
ATOM      8  H   UNL     1      -3.910  -1.694  -1.901  0.00  0.00    +0.151 HD
ENDROOT
BRANCH   4   9
ATOM      9  C   UNL     1      -4.377  -3.210   0.311  0.00  0.00    -0.022 A 
ATOM     10  C   UNL     1      -3.413  -4.135  -0.043  0.00  0.00    +0.009 A 
ATOM     11  C   UNL     1      -3.691  -5.486   0.030  0.00  0.00    +0.046 A 
ATOM     12  C   UNL     1      -4.939  -5.915   0.458  0.00  0.00    +0.120 A 
ATOM     13  C   UNL     1      -5.904  -4.984   0.813  0.00  0.00    +0.046 A 
ATOM     14  C   UNL     1      -5.620  -3.634   0.744  0.00  0.00    +0.009 A 
BRANCH  12  15
ATOM     15  O   UNL     1      -5.215  -7.243   0.530  0.00  0.00    -0.495 OA
ATOM     16  C   UNL     1      -6.520  -7.611   0.980  0.00  0.00    +0.277 C 
ENDBRANCH  12  15
ENDBRANCH   4   9
BRANCH   1  18
ATOM     17  C   UNL     1      -0.357   1.519  -0.171  0.00  0.00    +0.025 C 
ATOM     18  C   UNL     1      -0.226  -0.005  -0.114  0.00  0.00    +0.111 C 
ENDBRANCH   1  18
BRANCH   3  19
ATOM     19  C   UNL     1      -3.785  -1.571   2.761  0.00  0.00    +0.339 C 
ATOM     20  O   UNL     1      -3.711  -2.674   3.271  0.00  0.00    -0.245 OA
BRANCH  19  21
ATOM     21  O   UNL     1      -4.356  -0.552   3.437  0.00  0.00    -0.462 OA
BRANCH  21  22
ATOM     22  C   UNL     1      -4.853  -0.840   4.745  0.00  0.00    +0.229 C 
ATOM     23  C   UNL     1      -5.460   0.428   5.350  0.00  0.00    +0.048 C 
ENDBRANCH  21  22
ENDBRANCH  19  21
ENDBRANCH   3  19
BRANCH   2  24
ATOM     24  C   UNL     1      -1.223  -0.417   2.469  0.00  0.00    +0.136 C 
BRANCH  24  25
ATOM     25  N   UNL     1      -0.034  -1.277   2.543  0.00  0.00    -0.294 NA
ATOM     26  C   UNL     1      -0.409  -2.672   2.811  0.00  0.00    +0.104 C 
ATOM     27  C   UNL     1       0.834  -3.562   2.701  0.00  0.00    +0.123 C 
ATOM     28  N   UNL     1       1.877  -3.018   3.585  0.00  0.00    -0.293 N 
ATOM     29  C   UNL     1       2.211  -1.590   3.470  0.00  0.00    +0.123 C 
ATOM     30  C   UNL     1       0.914  -0.778   3.549  0.00  0.00    +0.104 C 
ATOM     31  C   UNL     1       2.509  -3.807   4.476  0.00  0.00    +0.282 C 
ATOM     32  O   UNL     1       2.268  -4.999   4.512  0.00  0.00    -0.267 OA
BRANCH  31  33
ATOM     33  C   UNL     1       3.488  -3.229   5.402  0.00  0.00    +0.189 A 
ATOM     34  C   UNL     1       4.092  -3.879   6.440  0.00  0.00    +0.054 A 
ATOM     35  C   UNL     1       4.949  -2.952   7.053  0.00  0.00    +0.042 A 
ATOM     36  C   UNL     1       4.831  -1.791   6.372  0.00  0.00    +0.196 A 
ATOM     37  O   UNL     1       3.954  -1.963   5.375  0.00  0.00    -0.458 OA
ENDBRANCH  31  33
ENDBRANCH  24  25
ENDBRANCH   2  24
TORSDOF 9
