REMARK  Name = ZINC23373060
REMARK  6 active torsions:
REMARK  status: ('A' for Active; 'I' for Inactive)
REMARK    1  A    between atoms: C_1  and  C_2
REMARK    2  A    between atoms: C_2  and  N_3
REMARK    3  A    between atoms: N_6  and  C_9
REMARK    4  A    between atoms: C_9  and  C_10
REMARK    5  A    between atoms: N_12  and  C_13
REMARK    6  A    between atoms: N_18  and  C_20
REMARK                            x       y       z     vdW  Elec       q    Type
REMARK                         _______ _______ _______ _____ _____    ______ ____
ROOT
ATOM      1  C   UNL     1       3.231  -4.101  -3.611  0.00  0.00    +0.227 C 
ATOM      2  O   UNL     1       2.827  -4.731  -2.656  0.00  0.00    -0.274 OA
ATOM      3  N   UNL     1       3.877  -4.734  -4.610  0.00  0.00    -0.313 N 
ATOM      4  H   UNL     1       4.200  -4.231  -5.374  0.00  0.00    +0.149 HD
ENDROOT
BRANCH   3   5
ATOM      5  C   UNL     1       4.092  -6.182  -4.543  0.00  0.00    +0.056 C 
ATOM      6  C   UNL     1       5.362  -6.473  -3.737  0.00  0.00    +0.018 C 
ATOM      7  C   UNL     1       5.620  -7.982  -3.739  0.00  0.00    -0.017 C 
ATOM      8  C   UNL     1       5.725  -8.475  -5.184  0.00  0.00    -0.078 C 
ATOM      9  N   UNL     1       4.471  -8.191  -5.893  0.00  0.00    +0.383 N 
ATOM     10  C   UNL     1       4.252  -6.741  -5.958  0.00  0.00    -0.056 C 
ATOM     11  H   UNL     1       3.703  -8.624  -5.402  0.00  0.00    -0.081 HD
BRANCH   9  12
ATOM     12  C   UNL     1       4.547  -8.735  -7.255  0.00  0.00    -0.069 C 
ATOM     13  C   UNL     1       4.554 -10.275  -7.178  0.00  0.00    -0.015 C 
ATOM     14  C   UNL     1       4.122 -10.822  -8.512  0.00  0.00    -0.002 C 
ATOM     15  C   UNL     1       5.315 -11.148  -9.430  0.00  0.00    -0.000 C 
ATOM     16  C   UNL     1       6.418 -10.073  -9.381  0.00  0.00    -0.000 C 
ATOM     17  C   UNL     1       5.860  -8.676  -9.372  0.00  0.00    -0.002 C 
ATOM     18  C   UNL     1       5.736  -8.207  -7.908  0.00  0.00    -0.015 C 
ENDBRANCH   9  12
ENDBRANCH   3   5
BRANCH   1  19
ATOM     19  C   UNL     1       3.010  -2.612  -3.681  0.00  0.00    +0.180 C 
BRANCH  19  23
ATOM     20  N   UNL     1       0.185  -0.814  -1.101  0.00  0.00    +0.381 N 
ATOM     21  C   UNL     1       1.554  -0.281  -1.105  0.00  0.00    -0.063 C 
ATOM     22  C   UNL     1       2.261  -0.701  -2.396  0.00  0.00    +0.066 C 
ATOM     23  N   UNL     1       2.288  -2.168  -2.481  0.00  0.00    -0.298 NA
ATOM     24  C   UNL     1       0.925  -2.718  -2.452  0.00  0.00    +0.066 C 
ATOM     25  C   UNL     1       0.229  -2.281  -1.161  0.00  0.00    -0.063 C 
ATOM     26  H   UNL     1      -0.316  -0.459  -1.901  0.00  0.00    -0.082 HD
BRANCH  20  28
ATOM     27  C   UNL     1      -0.655   1.127   0.134  0.00  0.00    -0.017 C 
ATOM     28  C   UNL     1      -0.498  -0.395   0.130  0.00  0.00    -0.082 C 
ENDBRANCH  20  28
ENDBRANCH  19  23
ENDBRANCH   1  19
TORSDOF 5
