REMARK  Name = ZINC66988689
REMARK  5 active torsions:
REMARK  status: ('A' for Active; 'I' for Inactive)
REMARK    1  A    between atoms: C_3  and  C_13
REMARK    2  A    between atoms: C_5  and  N_7
REMARK    3  A    between atoms: C_13  and  N_14
REMARK    4  A    between atoms: N_14  and  C_15
REMARK    5  A    between atoms: C_15  and  C_16
REMARK                            x       y       z     vdW  Elec       q    Type
REMARK                         _______ _______ _______ _____ _____    ______ ____
ROOT
ATOM      1  N   UNL     1       4.104   2.438   1.360  0.00  0.00    +0.384 N 
ATOM      2  H   UNL     1       3.396   2.968   1.846  0.00  0.00    -0.085 HD
ATOM      3  H   UNL     1       4.245   1.556   1.830  0.00  0.00    -0.085 HD
ENDROOT
BRANCH   1   4
ATOM      4  C   UNL     1       3.671   2.192  -0.022  0.00  0.00    -0.046 C 
BRANCH   4   7
ATOM      5  C   UNL     1      -0.017   1.377   0.010  0.00  0.00    +0.002 A 
ATOM      6  C   UNL     1       1.171   2.086   0.002  0.00  0.00    +0.002 A 
ATOM      7  C   UNL     1       2.380   1.415  -0.013  0.00  0.00    -0.063 A 
ATOM      8  C   UNL     1       2.405   0.034  -0.021  0.00  0.00    +0.025 A 
ATOM      9  C   UNL     1       1.215  -0.681  -0.013  0.00  0.00    +0.040 A 
ATOM     10  C   UNL     1       0.002  -0.004   0.002  0.00  0.00    +0.023 A 
BRANCH   9  11
ATOM     11  N   UNL     1       1.237  -2.080  -0.021  0.00  0.00    -0.234 N 
ATOM     12  C   UNL     1       0.059  -2.969  -0.021  0.00  0.00    +0.158 C 
ATOM     13  C   UNL     1       0.677  -4.332  -0.414  0.00  0.00    +0.253 C 
ATOM     14  O   UNL     1       2.049  -4.168  -0.004  0.00  0.00    -0.448 OA
ATOM     15  C   UNL     1       2.337  -2.856  -0.037  0.00  0.00    +0.407 C 
ATOM     16  O   UNL     1       3.470  -2.417  -0.073  0.00  0.00    -0.226 OA
ENDBRANCH   9  11
ENDBRANCH   4   7
ENDBRANCH   1   4
BRANCH   1  17
ATOM     17  C   UNL     1       5.363   3.195   1.352  0.00  0.00    -0.046 C 
BRANCH  17  18
ATOM     18  C   UNL     1       5.807   3.446   2.770  0.00  0.00    -0.059 A 
ATOM     19  C   UNL     1       5.389   4.585   3.432  0.00  0.00    +0.051 A 
ATOM     20  C   UNL     1       5.795   4.820   4.737  0.00  0.00    +0.164 A 
ATOM     21  C   UNL     1       6.623   3.906   5.378  0.00  0.00    +0.180 A 
ATOM     22  C   UNL     1       7.041   2.765   4.708  0.00  0.00    +0.086 A 
ATOM     23  C   UNL     1       6.628   2.535   3.408  0.00  0.00    +0.025 A 
ATOM     24 CL   UNL     1       8.078   1.623   5.503  0.00  0.00    -0.080 Cl
ATOM     25  O   UNL     1       7.027   4.113   6.662  0.00  0.00    -0.483 OA
ATOM     26  C   UNL     1       6.893   5.444   7.172  0.00  0.00    +0.270 C 
ATOM     27  C   UNL     1       5.497   5.962   6.801  0.00  0.00    +0.270 C 
ATOM     28  O   UNL     1       5.378   5.948   5.374  0.00  0.00    -0.485 OA
ENDBRANCH  17  18
ENDBRANCH   1  17
TORSDOF 5
