REMARK  Name = ZINC16534196
REMARK  6 active torsions:
REMARK  status: ('A' for Active; 'I' for Inactive)
REMARK    1  A    between atoms: C_4  and  C_7
REMARK    2  A    between atoms: C_8  and  C_20
REMARK    3  A    between atoms: C_9  and  O_19
REMARK    4  A    between atoms: N_10  and  C_12
REMARK    5  A    between atoms: N_24  and  C_28
REMARK    6  A    between atoms: C_28  and  C_29
REMARK                            x       y       z     vdW  Elec       q    Type
REMARK                         _______ _______ _______ _____ _____    ______ ____
ROOT
ATOM      1  C   UNL     1      -3.378  -1.099   0.004  0.00  0.00    +0.104 A 
ATOM      2  C   UNL     1      -2.660  -2.362  -0.212  0.00  0.00    +0.066 A 
ATOM      3  C   UNL     1      -1.305  -2.064  -0.093  0.00  0.00    +0.224 A 
ATOM      4  N   UNL     1      -1.200  -0.745   0.171  0.00  0.00    -0.198 N 
ATOM      5  N   UNL     1      -2.474  -0.174   0.232  0.00  0.00    -0.163 NA
ENDROOT
BRANCH   2   6
ATOM      6  C   UNL     1      -3.250  -3.670  -0.495  0.00  0.00    +0.044 C 
ATOM      7  C   UNL     1      -2.793  -4.410  -1.542  0.00  0.00    +0.099 C 
ATOM      8  C   UNL     1      -3.253  -5.690  -1.950  0.00  0.00    +0.269 C 
ATOM      9  O   UNL     1      -4.140  -6.341  -1.426  0.00  0.00    -0.268 OA
ATOM     10  N   UNL     1      -2.525  -6.049  -3.025  0.00  0.00    -0.216 N 
ATOM     11  C   UNL     1      -1.642  -5.079  -3.316  0.00  0.00    +0.313 C 
ATOM     12  O   UNL     1      -0.845  -5.112  -4.234  0.00  0.00    -0.252 OA
ATOM     13  N   UNL     1      -1.774  -4.062  -2.443  0.00  0.00    -0.265 N 
ATOM     14  H   UNL     1      -1.258  -3.241  -2.437  0.00  0.00    +0.157 HD
BRANCH  10  15
ATOM     15  C   UNL     1      -2.674  -7.304  -3.765  0.00  0.00    +0.156 C 
BRANCH  15  16
ATOM     16  C   UNL     1      -3.681  -7.120  -4.871  0.00  0.00    +0.008 A 
ATOM     17  C   UNL     1      -3.255  -7.008  -6.181  0.00  0.00    +0.008 A 
ATOM     18  C   UNL     1      -4.178  -6.839  -7.197  0.00  0.00    +0.003 A 
ATOM     19  C   UNL     1      -5.527  -6.782  -6.904  0.00  0.00    +0.041 A 
ATOM     20  C   UNL     1      -5.956  -6.893  -5.593  0.00  0.00    +0.159 A 
ATOM     21  C   UNL     1      -5.031  -7.068  -4.575  0.00  0.00    +0.163 A 
ATOM     22  F   UNL     1      -5.448  -7.184  -3.295  0.00  0.00    -0.202 F 
ATOM     23  F   UNL     1      -7.275  -6.837  -5.306  0.00  0.00    -0.202 F 
ENDBRANCH  15  16
ENDBRANCH  10  15
ENDBRANCH   2   6
BRANCH   4  24
ATOM     24  C   UNL     1       0.004  -0.054   0.360  0.00  0.00    +0.087 A 
ATOM     25  C   UNL     1       1.052  -0.223  -0.534  0.00  0.00    +0.029 A 
ATOM     26  C   UNL     1       2.238   0.459  -0.344  0.00  0.00    +0.002 A 
ATOM     27  C   UNL     1       2.382   1.311   0.736  0.00  0.00    +0.002 A 
ATOM     28  C   UNL     1       1.341   1.483   1.629  0.00  0.00    +0.022 A 
ATOM     29  C   UNL     1       0.151   0.803   1.445  0.00  0.00    +0.066 A 
ATOM     30 CL   UNL     1      -1.156   1.019   2.566  0.00  0.00    -0.081 Cl
ENDBRANCH   4  24
BRANCH   1  34
ATOM     31  C   UNL     1      -7.592  -0.545  -0.074  0.00  0.00    +0.000 A 
ATOM     32  C   UNL     1      -6.817   0.188   0.807  0.00  0.00    +0.001 A 
ATOM     33  C   UNL     1      -5.448   0.013   0.837  0.00  0.00    +0.010 A 
ATOM     34  C   UNL     1      -4.847  -0.906  -0.023  0.00  0.00    +0.003 A 
ATOM     35  C   UNL     1      -5.633  -1.639  -0.911  0.00  0.00    +0.010 A 
ATOM     36  C   UNL     1      -7.001  -1.458  -0.928  0.00  0.00    +0.001 A 
ENDBRANCH   1  34
BRANCH   3  37
ATOM     37  O   UNL     1      -0.280  -2.939  -0.219  0.00  0.00    -0.492 OA
ATOM     38  H   UNL     1       0.016  -3.322   0.618  0.00  0.00    +0.294 HD
ENDBRANCH   3  37
TORSDOF 6
