REMARK  Name = ZINC14548245
REMARK  7 active torsions:
REMARK  status: ('A' for Active; 'I' for Inactive)
REMARK    1  A    between atoms: C_1  and  C_2
REMARK    2  A    between atoms: C_2  and  C_3
REMARK    3  A    between atoms: C_3  and  C_5
REMARK    4  A    between atoms: C_3  and  N_6
REMARK    5  A    between atoms: C_7  and  C_9
REMARK    6  A    between atoms: C_16  and  C_25
REMARK    7  A    between atoms: C_34  and  O_35
REMARK                            x       y       z     vdW  Elec       q    Type
REMARK                         _______ _______ _______ _____ _____    ______ ____
ROOT
ATOM      1  C   UNL     1      -1.600   6.477  -1.635  0.00  0.00    +0.058 A 
ATOM      2  C   UNL     1      -2.981   6.349  -1.767  0.00  0.00    +0.015 A 
ATOM      3  C   UNL     1      -3.615   5.212  -1.317  0.00  0.00    +0.001 A 
ATOM      4  C   UNL     1      -2.877   4.200  -0.724  0.00  0.00    +0.006 A 
ATOM      5  C   UNL     1      -1.512   4.313  -0.579  0.00  0.00    -0.019 A 
ATOM      6  C   UNL     1      -0.840   5.449  -1.040  0.00  0.00    +0.044 A 
ATOM      7  N   UNL     1       0.532   5.623  -0.973  0.00  0.00    -0.336 N 
ATOM      8  C   UNL     1       1.310   4.570  -0.264  0.00  0.00    +0.109 C 
ATOM      9  C   UNL     1       0.680   3.247  -0.649  0.00  0.00    +0.029 C 
ATOM     10  C   UNL     1      -0.708   3.251   0.064  0.00  0.00    +0.049 C 
ATOM     11  C   UNL     1      -1.111   1.824   0.017  0.00  0.00    -0.023 C 
ATOM     12  C   UNL     1      -0.013   1.076   0.008  0.00  0.00    -0.030 C 
ATOM     13  C   UNL     1       1.229   1.972   0.001  0.00  0.00    +0.033 C 
ATOM     14  H   UNL     1       0.763   6.538  -0.617  0.00  0.00    +0.147 HD
ENDROOT
BRANCH   8  15
ATOM     15  C   UNL     1       2.748   4.604  -0.714  0.00  0.00    +0.022 A 
ATOM     16  C   UNL     1       3.784   4.459   0.223  0.00  0.00    -0.009 A 
ATOM     17  C   UNL     1       3.511   4.268   1.589  0.00  0.00    +0.009 A 
ATOM     18  C   UNL     1       4.540   4.124   2.467  0.00  0.00    +0.001 A 
ATOM     19  C   UNL     1       5.864   4.158   2.034  0.00  0.00    +0.001 A 
ATOM     20  C   UNL     1       6.166   4.337   0.719  0.00  0.00    +0.008 A 
ATOM     21  C   UNL     1       5.131   4.489  -0.219  0.00  0.00    -0.017 A 
ATOM     22  C   UNL     1       5.406   4.674  -1.585  0.00  0.00    +0.012 A 
ATOM     23  C   UNL     1       4.380   4.818  -2.466  0.00  0.00    +0.046 A 
ATOM     24  C   UNL     1       3.051   4.783  -2.034  0.00  0.00    +0.122 A 
BRANCH  24  25
ATOM     25  O   UNL     1       2.047   4.928  -2.938  0.00  0.00    -0.506 OA
ATOM     26  H   UNL     1       1.773   5.845  -3.078  0.00  0.00    +0.292 HD
ENDBRANCH  24  25
ENDBRANCH   8  15
BRANCH   1  28
ATOM     27  N   UNL     1      -1.649   8.682  -2.689  0.00  0.00    -0.309 N 
ATOM     28  C   UNL     1      -0.928   7.697  -2.120  0.00  0.00    +0.246 C 
ATOM     29  O   UNL     1       0.277   7.813  -2.007  0.00  0.00    -0.270 OA
ATOM     30  H   UNL     1      -2.611   8.590  -2.780  0.00  0.00    +0.149 HD
BRANCH  27  31
ATOM     31  C   UNL     1      -0.982   9.894  -3.172  0.00  0.00    +0.070 C 
ATOM     32  C   UNL     1      -0.459   9.658  -4.590  0.00  0.00    +0.028 C 
BRANCH  31  34
ATOM     33  C   UNL     1      -2.406  11.373  -1.748  0.00  0.00    +0.005 C 
ATOM     34  C   UNL     1      -1.978  11.055  -3.182  0.00  0.00    +0.018 C 
ENDBRANCH  31  34
ENDBRANCH  27  31
ENDBRANCH   1  28
TORSDOF 5
