REMARK  Name = ZINC09515952
REMARK  9 active torsions:
REMARK  status: ('A' for Active; 'I' for Inactive)
REMARK    1  A    between atoms: C_1  and  N_68
REMARK    2  A    between atoms: C_2  and  C_3
REMARK    3  A    between atoms: C_2  and  N_68
REMARK    4  A    between atoms: C_8  and  N_9
REMARK    5  A    between atoms: C_14  and  C_15
REMARK    6  A    between atoms: C_14  and  N_68
REMARK    7  A    between atoms: N_17  and  N_18
REMARK    8  A    between atoms: C_21  and  C_25
REMARK    9  A    between atoms: C_21  and  C_31
REMARK                            x       y       z     vdW  Elec       q    Type
REMARK                         _______ _______ _______ _____ _____    ______ ____
ROOT
ATOM      1  C   UNL     1       0.412  -0.350   0.498  0.00  0.00    +0.213 C 
ATOM      2  O   UNL     1       0.169  -1.427  -0.004  0.00  0.00    -0.276 OA
ATOM      3  N   UNL     1       1.667   0.141   0.464  0.00  0.00    -0.225 N 
ATOM      4  H   UNL     1       1.861   1.002   0.866  0.00  0.00    +0.173 HD
ENDROOT
BRANCH   3   5
ATOM      5  N   UNL     1       2.690  -0.592  -0.152  0.00  0.00    -0.137 N 
ATOM      6  C   UNL     1       3.650  -1.261   0.517  0.00  0.00    +0.272 C 
ATOM      7  O   UNL     1       3.786  -1.339   1.719  0.00  0.00    -0.270 OA
ATOM      8  C   UNL     1       4.523  -1.897  -0.546  0.00  0.00    +0.165 C 
ATOM      9  N   UNL     1       3.899  -1.466  -1.810  0.00  0.00    -0.276 N 
ATOM     10  C   UNL     1       2.837  -0.710  -1.476  0.00  0.00    +0.327 C 
ATOM     11  O   UNL     1       2.096  -0.191  -2.288  0.00  0.00    -0.251 OA
ATOM     12  H   UNL     1       4.195  -1.685  -2.707  0.00  0.00    +0.152 HD
BRANCH   8  13
ATOM     13  C   UNL     1       4.499  -3.399  -0.429  0.00  0.00    -0.011 A 
ATOM     14  C   UNL     1       4.431  -4.181  -1.567  0.00  0.00    +0.006 A 
ATOM     15  C   UNL     1       4.414  -5.559  -1.459  0.00  0.00    +0.000 A 
ATOM     16  C   UNL     1       4.456  -6.155  -0.213  0.00  0.00    +0.000 A 
ATOM     17  C   UNL     1       4.519  -5.373   0.926  0.00  0.00    +0.000 A 
ATOM     18  C   UNL     1       4.541  -3.995   0.818  0.00  0.00    +0.006 A 
ENDBRANCH   8  13
BRANCH   8  19
ATOM     19  C   UNL     1       5.935  -1.381  -0.450  0.00  0.00    -0.011 A 
ATOM     20  C   UNL     1       6.802  -1.911   0.487  0.00  0.00    +0.006 A 
ATOM     21  C   UNL     1       8.099  -1.440   0.573  0.00  0.00    +0.000 A 
ATOM     22  C   UNL     1       8.527  -0.434  -0.273  0.00  0.00    +0.000 A 
ATOM     23  C   UNL     1       7.658   0.099  -1.207  0.00  0.00    +0.000 A 
ATOM     24  C   UNL     1       6.363  -0.374  -1.296  0.00  0.00    +0.006 A 
ENDBRANCH   8  19
ENDBRANCH   3   5
BRANCH   1  25
ATOM     25  C   UNL     1      -0.690   0.441   1.155  0.00  0.00    +0.020 C 
BRANCH  25  27
ATOM     26  C   UNL     1      -1.898  -1.543   1.839  0.00  0.00    -0.095 C 
ATOM     27  N   UNL     1      -1.957  -0.309   1.027  0.00  0.00    +0.386 N 
ATOM     28  H   UNL     1      -2.095  -0.565   0.042  0.00  0.00    -0.081 HD
BRANCH  27  29
ATOM     29  C   UNL     1      -3.089   0.533   1.468  0.00  0.00    -0.041 C 
BRANCH  29  30
ATOM     30  C   UNL     1      -4.377  -0.131   1.053  0.00  0.00    -0.043 A 
ATOM     31  C   UNL     1      -5.199  -0.701   2.006  0.00  0.00    +0.003 A 
ATOM     32  C   UNL     1      -6.383  -1.306   1.627  0.00  0.00    +0.000 A 
ATOM     33  C   UNL     1      -6.744  -1.351   0.292  0.00  0.00    +0.002 A 
ATOM     34  C   UNL     1      -5.924  -0.787  -0.665  0.00  0.00    +0.023 A 
ATOM     35  C   UNL     1      -4.736  -0.174  -0.287  0.00  0.00    +0.031 A 
BRANCH  35  36
ATOM     36  N   UNL     1      -3.905   0.397  -1.254  0.00  0.00    -0.330 N 
ATOM     37  C   UNL     1      -4.398   0.101  -2.623  0.00  0.00    +0.105 C 
ATOM     38  C   UNL     1      -3.722   1.194  -3.488  0.00  0.00    +0.020 C 
ATOM     39  C   UNL     1      -3.756   2.434  -2.566  0.00  0.00    +0.020 C 
ATOM     40  C   UNL     1      -3.894   1.872  -1.140  0.00  0.00    +0.105 C 
ENDBRANCH  35  36
ENDBRANCH  29  30
ENDBRANCH  27  29
ENDBRANCH  25  27
ENDBRANCH   1  25
TORSDOF 8
