REMARK  Name = ZINC06778477
REMARK  8 active torsions:
REMARK  status: ('A' for Active; 'I' for Inactive)
REMARK    1  A    between atoms: C_1  and  C_2
REMARK    2  A    between atoms: C_2  and  C_3
REMARK    3  A    between atoms: C_6  and  N_9
REMARK    4  A    between atoms: N_9  and  S_10
REMARK    5  A    between atoms: S_10  and  C_13
REMARK    6  A    between atoms: C_19  and  C_24
REMARK    7  A    between atoms: C_19  and  C_25
REMARK    8  A    between atoms: N_22  and  C_23
REMARK                            x       y       z     vdW  Elec       q    Type
REMARK                         _______ _______ _______ _____ _____    ______ ____
ROOT
ATOM      1  S   UNL     1      -1.718   3.600   5.845  0.00  0.00    +0.072 S 
ATOM      2  O   UNL     1      -2.591   3.979   6.901  0.00  0.00    -0.150 OA
ATOM      3  O   UNL     1      -0.617   2.724   6.045  0.00  0.00    -0.150 OA
ENDROOT
BRANCH   1   4
ATOM      4  C   UNL     1      -1.060   5.092   5.176  0.00  0.00    +0.109 A 
ATOM      5  C   UNL     1       0.095   5.060   4.416  0.00  0.00    +0.030 A 
ATOM      6  C   UNL     1       0.611   6.224   3.884  0.00  0.00    +0.026 A 
ATOM      7  C   UNL     1      -0.022   7.442   4.120  0.00  0.00    +0.040 A 
ATOM      8  C   UNL     1      -1.178   7.461   4.890  0.00  0.00    -0.010 A 
ATOM      9  C   UNL     1      -1.695   6.298   5.415  0.00  0.00    +0.035 A 
ATOM     10  C   UNL     1      -1.618   8.905   4.962  0.00  0.00    +0.068 C 
ATOM     11  C   UNL     1      -0.577   9.648   4.151  0.00  0.00    +0.230 C 
ATOM     12  O   UNL     1      -0.542  10.842   3.944  0.00  0.00    -0.274 OA
ATOM     13  N   UNL     1       0.302   8.734   3.705  0.00  0.00    -0.273 N 
ATOM     14  C   UNL     1       1.466   9.058   2.876  0.00  0.00    +0.138 C 
ATOM     15  C   UNL     1      -3.004   9.075   4.338  0.00  0.00    +0.025 C 
ATOM     16  C   UNL     1      -1.617   9.395   6.412  0.00  0.00    +0.025 C 
ENDBRANCH   1   4
BRANCH   1  17
ATOM     17  N   UNL     1      -2.663   2.912   4.672  0.00  0.00    -0.216 N 
ATOM     18  H   UNL     1      -2.439   2.037   4.321  0.00  0.00    +0.174 HD
BRANCH  17  22
ATOM     19  C   UNL     1      -6.002   4.943   3.234  0.00  0.00    -0.048 A 
ATOM     20  C   UNL     1      -5.771   4.872   4.596  0.00  0.00    +0.005 A 
ATOM     21  C   UNL     1      -4.668   4.195   5.076  0.00  0.00    +0.025 A 
ATOM     22  C   UNL     1      -3.783   3.593   4.190  0.00  0.00    +0.048 A 
ATOM     23  C   UNL     1      -4.015   3.671   2.822  0.00  0.00    +0.025 A 
ATOM     24  C   UNL     1      -5.123   4.345   2.349  0.00  0.00    +0.005 A 
BRANCH  19  26
ATOM     25  C   UNL     1      -8.387   4.707   2.598  0.00  0.00    +0.009 C 
ATOM     26  C   UNL     1      -7.210   5.678   2.713  0.00  0.00    +0.032 C 
ENDBRANCH  19  26
ENDBRANCH  17  22
ENDBRANCH   1  17
TORSDOF 4
