REMARK  Name = ZINC04974918
REMARK  8 active torsions:
REMARK  status: ('A' for Active; 'I' for Inactive)
REMARK    1  A    between atoms: C_4  and  C_7
REMARK    2  A    between atoms: C_7  and  C_9
REMARK    3  A    between atoms: C_7  and  O_27
REMARK    4  A    between atoms: C_9  and  C_10
REMARK    5  A    between atoms: C_15  and  C_17
REMARK    6  A    between atoms: C_17  and  C_18
REMARK    7  A    between atoms: C_18  and  C_20
REMARK    8  A    between atoms: C_18  and  O_26
REMARK                            x       y       z     vdW  Elec       q    Type
REMARK                         _______ _______ _______ _____ _____    ______ ____
ROOT
ATOM      1  C   UNL     1       1.329   1.682  -2.497  0.00  0.00    -0.069 C 
ATOM      2  C   UNL     1       2.008   1.145  -3.759  0.00  0.00    -0.016 C 
ATOM      3  C   UNL     1       1.307   1.718  -4.994  0.00  0.00    -0.003 C 
ATOM      4  C   UNL     1       1.354   3.248  -4.934  0.00  0.00    -0.016 C 
ATOM      5  C   UNL     1       0.694   3.723  -3.638  0.00  0.00    -0.069 C 
ATOM      6  N   UNL     1       1.408   3.155  -2.478  0.00  0.00    +0.383 N 
ATOM      7  H   UNL     1       2.393   3.442  -2.514  0.00  0.00    -0.085 HD
ATOM      8  H   UNL     1       0.980   3.506  -1.613  0.00  0.00    -0.085 HD
ENDROOT
BRANCH   1   9
ATOM      9  C   UNL     1       2.040   1.127  -1.261  0.00  0.00    +0.020 C 
BRANCH   9  10
ATOM     10  C   UNL     1       1.286   1.562  -0.002  0.00  0.00    +0.143 C 
BRANCH  10  14
ATOM     11  C   UNL     1       3.456   0.312   3.459  0.00  0.00    +0.000 A 
ATOM     12  C   UNL     1       3.548   1.619   3.021  0.00  0.00    +0.000 A 
ATOM     13  C   UNL     1       2.846   2.024   1.901  0.00  0.00    +0.006 A 
ATOM     14  C   UNL     1       2.052   1.121   1.219  0.00  0.00    -0.019 A 
ATOM     15  C   UNL     1       1.956  -0.186   1.661  0.00  0.00    +0.006 A 
ATOM     16  C   UNL     1       2.662  -0.592   2.777  0.00  0.00    +0.000 A 
ENDBRANCH  10  14
BRANCH  10  17
ATOM     17  O   UNL     1      -0.011   0.963   0.007  0.00  0.00    -0.387 OA
ATOM     18  H   UNL     1       0.002  -0.004   0.002  0.00  0.00    +0.210 HD
ENDBRANCH  10  17
ENDBRANCH   9  10
ENDBRANCH   1   9
BRANCH   5  19
ATOM     19  C   UNL     1       0.757   5.250  -3.564  0.00  0.00    +0.020 C 
BRANCH  19  20
ATOM     20  C   UNL     1      -0.011   5.734  -2.332  0.00  0.00    +0.143 C 
BRANCH  20  21
ATOM     21  C   UNL     1       0.153   7.225  -2.191  0.00  0.00    -0.019 A 
ATOM     22  C   UNL     1      -0.678   8.081  -2.888  0.00  0.00    +0.006 A 
ATOM     23  C   UNL     1      -0.530   9.449  -2.755  0.00  0.00    +0.000 A 
ATOM     24  C   UNL     1       0.455   9.961  -1.932  0.00  0.00    +0.000 A 
ATOM     25  C   UNL     1       1.290   9.105  -1.239  0.00  0.00    +0.000 A 
ATOM     26  C   UNL     1       1.139   7.737  -1.369  0.00  0.00    +0.006 A 
ENDBRANCH  20  21
BRANCH  20  27
ATOM     27  O   UNL     1      -1.397   5.419  -2.482  0.00  0.00    -0.387 OA
ATOM     28  H   UNL     1      -1.812   5.827  -3.255  0.00  0.00    +0.210 HD
ENDBRANCH  20  27
ENDBRANCH  19  20
ENDBRANCH   5  19
TORSDOF 8
