REMARK  Name = ZINC39637030
REMARK  13 active torsions:
REMARK  status: ('A' for Active; 'I' for Inactive)
REMARK    1  A    between atoms: C_1  and  O_2
REMARK    2  A    between atoms: O_2  and  C_3
REMARK    3  A    between atoms: C_5  and  C_13
REMARK    4  A    between atoms: C_7  and  O_11
REMARK    5  A    between atoms: C_8  and  O_9
REMARK    6  A    between atoms: O_9  and  C_10
REMARK    7  A    between atoms: O_11  and  C_12
REMARK    8  A    between atoms: C_13  and  N_14
REMARK    9  A    between atoms: C_15  and  C_17
REMARK   10  A    between atoms: C_28  and  C_30
REMARK   11  A    between atoms: C_30  and  C_31
REMARK   12  A    between atoms: C_31  and  C_32
REMARK   13  A    between atoms: C_32  and  C_33
REMARK                            x       y       z     vdW  Elec       q    Type
REMARK                         _______ _______ _______ _____ _____    ______ ____
ROOT
ATOM      1  C   UNL     1      -6.850   1.507  -2.994  0.00  0.00    +0.100 C 
ATOM      2  C   UNL     1      -7.052   0.180  -3.757  0.00  0.00    +0.121 C 
ATOM      3  N   UNL     1      -8.501  -0.108  -3.632  0.00  0.00    -0.300 N 
ATOM      4  C   UNL     1      -9.153   1.216  -3.773  0.00  0.00    +0.115 C 
ATOM      5  C   UNL     1      -8.230   2.187  -3.010  0.00  0.00    -0.004 C 
ATOM      6  C   UNL     1      -8.152   3.525  -3.738  0.00  0.00    -0.010 C 
ATOM      7  C   UNL     1      -9.521   4.208  -3.690  0.00  0.00    -0.082 C 
ATOM      8  N   UNL     1      -9.920   4.411  -2.292  0.00  0.00    +0.379 N 
ATOM      9  C   UNL     1     -10.084   3.114  -1.624  0.00  0.00    -0.082 C 
ATOM     10  C   UNL     1      -8.738   2.385  -1.585  0.00  0.00    -0.010 C 
ATOM     11  C   UNL     1      -9.092  -1.303  -3.434  0.00  0.00    +0.216 C 
ATOM     12  O   UNL     1     -10.300  -1.376  -3.352  0.00  0.00    -0.276 OA
ATOM     13  H   UNL     1      -9.210   4.946  -1.815  0.00  0.00    -0.086 HD
ATOM     14  H   UNL     1     -10.794   4.915  -2.263  0.00  0.00    -0.086 HD
ENDROOT
BRANCH   1  16
ATOM     15  N   UNL     1      -5.659   2.139  -0.919  0.00  0.00    -0.311 N 
ATOM     16  C   UNL     1      -6.415   1.236  -1.576  0.00  0.00    +0.218 C 
ATOM     17  O   UNL     1      -6.745   0.207  -1.027  0.00  0.00    -0.275 OA
ATOM     18  H   UNL     1      -5.395   2.962  -1.359  0.00  0.00    +0.149 HD
BRANCH  15  19
ATOM     19  C   UNL     1      -5.237   1.875   0.459  0.00  0.00    +0.139 C 
BRANCH  19  22
ATOM     20  C   UNL     1      -4.263   5.158   2.058  0.00  0.00    +0.165 A 
ATOM     21  C   UNL     1      -5.021   4.093   1.595  0.00  0.00    +0.054 A 
ATOM     22  C   UNL     1      -4.408   3.030   0.959  0.00  0.00    -0.023 A 
ATOM     23  C   UNL     1      -3.037   3.023   0.782  0.00  0.00    +0.054 A 
ATOM     24  C   UNL     1      -2.272   4.084   1.242  0.00  0.00    +0.165 A 
ATOM     25  C   UNL     1      -2.885   5.158   1.876  0.00  0.00    +0.204 A 
BRANCH  20  27
ATOM     26  C   UNL     1      -6.286   6.137   2.834  0.00  0.00    +0.277 C 
ATOM     27  O   UNL     1      -4.867   6.204   2.683  0.00  0.00    -0.491 OA
ENDBRANCH  20  27
BRANCH  25  28
ATOM     28  O   UNL     1      -2.137   6.203   2.324  0.00  0.00    -0.488 OA
ATOM     29  C   UNL     1      -1.634   6.116   3.658  0.00  0.00    +0.277 C 
ENDBRANCH  25  28
BRANCH  24  30
ATOM     30  O   UNL     1      -0.923   4.076   1.067  0.00  0.00    -0.491 OA
ATOM     31  C   UNL     1      -0.361   2.943   0.402  0.00  0.00    +0.277 C 
ENDBRANCH  24  30
ENDBRANCH  19  22
ENDBRANCH  15  19
ENDBRANCH   1  16
BRANCH  11  32
ATOM     32  C   UNL     1      -8.252  -2.548  -3.314  0.00  0.00    +0.096 C 
BRANCH  32  33
ATOM     33  C   UNL     1      -9.162  -3.758  -3.095  0.00  0.00    +0.014 C 
BRANCH  33  34
ATOM     34  C   UNL     1      -8.310  -5.022  -2.973  0.00  0.00    +0.035 C 
BRANCH  34  35
ATOM     35  C   UNL     1      -9.206  -6.214  -2.757  0.00  0.00    -0.047 A 
ATOM     36  C   UNL     1      -9.552  -6.596  -1.475  0.00  0.00    +0.003 A 
ATOM     37  C   UNL     1     -10.374  -7.689  -1.277  0.00  0.00    +0.000 A 
ATOM     38  C   UNL     1     -10.852  -8.400  -2.362  0.00  0.00    +0.000 A 
ATOM     39  C   UNL     1     -10.507  -8.018  -3.645  0.00  0.00    +0.000 A 
ATOM     40  C   UNL     1      -9.688  -6.922  -3.843  0.00  0.00    +0.003 A 
ENDBRANCH  34  35
ENDBRANCH  33  34
ENDBRANCH  32  33
ENDBRANCH  11  32
TORSDOF 10
