REMARK  Name = ZINC01368048
REMARK  8 active torsions:
REMARK  status: ('A' for Active; 'I' for Inactive)
REMARK    1  A    between atoms: C_1  and  C_2
REMARK    2  A    between atoms: C_15  and  S_17
REMARK    3  A    between atoms: S_17  and  C_18
REMARK    4  A    between atoms: C_18  and  C_19
REMARK    5  A    between atoms: N_21  and  C_22
REMARK    6  A    between atoms: C_22  and  C_23
REMARK    7  A    between atoms: C_22  and  C_24
REMARK    8  A    between atoms: C_22  and  C_25
REMARK                            x       y       z     vdW  Elec       q    Type
REMARK                         _______ _______ _______ _____ _____    ______ ____
ROOT
ATOM      1  C   UNL     1       3.547   2.092  -1.320  0.00  0.00    +0.008 C 
ATOM      2  C   UNL     1       2.194   1.398  -1.156  0.00  0.00    -0.009 C 
ATOM      3  C   UNL     1       1.421   2.037  -0.001  0.00  0.00    +0.008 C 
ATOM      4  C   UNL     1      -0.019   1.522   0.010  0.00  0.00    +0.037 C 
ATOM      5  C   UNL     1       0.002  -0.004   0.002  0.00  0.00    -0.023 A 
ATOM      6  C   UNL     1       1.111  -0.674  -0.385  0.00  0.00    -0.004 A 
ATOM      7  S   UNL     1       0.691  -2.393  -0.240  0.00  0.00    -0.073 S 
ATOM      8  C   UNL     1      -0.967  -2.211   0.338  0.00  0.00    +0.117 A 
ATOM      9  C   UNL     1      -1.141  -0.809   0.400  0.00  0.00    +0.075 A 
ATOM     10  C   UNL     1      -2.415  -0.327   0.843  0.00  0.00    +0.261 A 
ATOM     11  O   UNL     1      -2.662   0.864   0.930  0.00  0.00    -0.267 OA
ATOM     12  N   UNL     1      -3.329  -1.275   1.160  0.00  0.00    -0.301 N 
ATOM     13  H   UNL     1      -4.231  -0.982   1.474  0.00  0.00    +0.171 HD
ATOM     14  C   UNL     1      -3.073  -2.610   1.070  0.00  0.00    +0.170 A 
ATOM     15  N   UNL     1      -1.906  -3.090   0.663  0.00  0.00    -0.216 NA
ATOM     16  C   UNL     1       2.413  -0.088  -0.838  0.00  0.00    +0.046 C 
ENDROOT
BRANCH  14  17
ATOM     17  S   UNL     1      -4.346  -3.745   1.512  0.00  0.00    -0.078 S 
BRANCH  17  18
ATOM     18  C   UNL     1      -3.489  -5.311   1.213  0.00  0.00    +0.173 C 
BRANCH  18  19
ATOM     19  C   UNL     1      -4.412  -6.458   1.534  0.00  0.00    +0.224 C 
ATOM     20  O   UNL     1      -5.538  -6.239   1.926  0.00  0.00    -0.275 OA
ATOM     21  N   UNL     1      -3.985  -7.728   1.385  0.00  0.00    -0.310 N 
ATOM     22  H   UNL     1      -3.084  -7.903   1.071  0.00  0.00    +0.149 HD
BRANCH  21  23
ATOM     23  C   UNL     1      -4.882  -8.843   1.696  0.00  0.00    +0.026 C 
ATOM     24  C   UNL     1      -6.124  -8.763   0.806  0.00  0.00    +0.031 C 
ATOM     25  C   UNL     1      -4.157 -10.166   1.443  0.00  0.00    +0.031 C 
ATOM     26  C   UNL     1      -5.303  -8.764   3.165  0.00  0.00    +0.031 C 
ENDBRANCH  21  23
ENDBRANCH  18  19
ENDBRANCH  17  18
ENDBRANCH  14  17
TORSDOF 4
