REMARK  Name = ZINC31772493
REMARK  4 active torsions:
REMARK  status: ('A' for Active; 'I' for Inactive)
REMARK    1  A    between atoms: C_4  and  C_8
REMARK    2  A    between atoms: C_8  and  N_9
REMARK    3  A    between atoms: C_10  and  N_14
REMARK    4  A    between atoms: C_15  and  C_17
REMARK                            x       y       z     vdW  Elec       q    Type
REMARK                         _______ _______ _______ _____ _____    ______ ____
ROOT
ATOM      1  N   UNL     1       4.529  -1.232   1.233  0.00  0.00    -0.246 N 
ATOM      2  C   UNL     1       4.953  -0.315   2.132  0.00  0.00    +0.123 A 
ATOM      3  C   UNL     1       4.797  -0.854   3.373  0.00  0.00    +0.065 A 
ATOM      4  C   UNL     1       4.263  -2.136   3.218  0.00  0.00    +0.136 A 
ATOM      5  N   UNL     1       4.097  -2.361   1.940  0.00  0.00    -0.178 NA
ENDROOT
BRANCH   2   6
ATOM      6  N   UNL     1       5.458   0.952   1.842  0.00  0.00    -0.270 N 
ATOM      7  C   UNL     1       5.983   1.710   2.825  0.00  0.00    +0.222 C 
ATOM      8  O   UNL     1       6.016   1.290   3.962  0.00  0.00    -0.275 OA
ATOM      9  H   UNL     1       5.431   1.288   0.932  0.00  0.00    +0.156 HD
BRANCH   7  10
ATOM     10  C   UNL     1       6.529   3.079   2.511  0.00  0.00    +0.079 C 
ATOM     11  C   UNL     1       6.657   3.917   3.803  0.00  0.00    +0.016 C 
ATOM     12  C   UNL     1       8.180   4.237   3.916  0.00  0.00    -0.010 C 
ATOM     13  C   UNL     1       8.839   2.873   4.286  0.00  0.00    +0.004 C 
ATOM     14  C   UNL     1       8.713   2.018   3.005  0.00  0.00    +0.004 C 
ATOM     15  C   UNL     1       7.984   2.971   1.961  0.00  0.00    +0.001 C 
ATOM     16  C   UNL     1       8.562   4.365   2.399  0.00  0.00    +0.008 C 
ENDBRANCH   7  10
ENDBRANCH   2   6
BRANCH   1  17
ATOM     17  C   UNL     1       4.518  -1.070  -0.223  0.00  0.00    +0.183 C 
BRANCH  17  21
ATOM     18  C   UNL     1       8.010  -2.887  -1.886  0.00  0.00    +0.003 A 
ATOM     19  C   UNL     1       6.899  -3.658  -1.603  0.00  0.00    +0.020 A 
ATOM     20  C   UNL     1       5.768  -3.071  -1.064  0.00  0.00    +0.047 A 
ATOM     21  C   UNL     1       5.750  -1.711  -0.809  0.00  0.00    +0.011 A 
ATOM     22  C   UNL     1       6.862  -0.940  -1.093  0.00  0.00    +0.047 A 
ATOM     23  C   UNL     1       7.993  -1.528  -1.632  0.00  0.00    +0.020 A 
ATOM     24 CL   UNL     1       6.840   0.766  -0.773  0.00  0.00    -0.083 Cl
ATOM     25 CL   UNL     1       4.371  -4.039  -0.709  0.00  0.00    -0.083 Cl
ENDBRANCH  17  21
ENDBRANCH   1  17
TORSDOF 4
