REMARK  Name = ZINC18053704
REMARK  4 active torsions:
REMARK  status: ('A' for Active; 'I' for Inactive)
REMARK    1  A    between atoms: C_1  and  O_2
REMARK    2  A    between atoms: O_2  and  C_3
REMARK    3  A    between atoms: C_5  and  C_11
REMARK    4  A    between atoms: C_8  and  O_9
REMARK                            x       y       z     vdW  Elec       q    Type
REMARK                         _______ _______ _______ _____ _____    ______ ____
ROOT
ATOM      1  C   UNL     1       2.402   0.380  -4.230  0.00  0.00    +0.209 C 
ATOM      2  N   UNL     1       2.155  -0.244  -5.542  0.00  0.00    -0.294 N 
ATOM      3  C   UNL     1       2.960  -1.264  -5.975  0.00  0.00    +0.160 C 
ATOM      4  N   UNL     1       2.442  -2.222  -6.804  0.00  0.00    -0.332 N 
ATOM      5  N   UNL     1       4.228  -1.342  -5.608  0.00  0.00    -0.302 N 
ATOM      6  C   UNL     1       4.706  -0.421  -4.740  0.00  0.00    +0.213 A 
ATOM      7  N   UNL     1       3.859   0.440  -4.057  0.00  0.00    -0.287 N 
ATOM      8  C   UNL     1       4.632   1.248  -3.280  0.00  0.00    +0.072 A 
ATOM      9  C   UNL     1       4.336   2.292  -2.412  0.00  0.00    +0.028 A 
ATOM     10  C   UNL     1       5.402   2.905  -1.772  0.00  0.00    +0.002 A 
ATOM     11  C   UNL     1       6.711   2.504  -1.979  0.00  0.00    +0.002 A 
ATOM     12  C   UNL     1       7.033   1.469  -2.837  0.00  0.00    +0.030 A 
ATOM     13  C   UNL     1       5.972   0.835  -3.495  0.00  0.00    +0.091 A 
ATOM     14  N   UNL     1       5.946  -0.186  -4.383  0.00  0.00    -0.212 NA
ATOM     15  H   UNL     1       1.513  -2.174  -7.079  0.00  0.00    +0.145 HD
ATOM     16  H   UNL     1       4.802  -2.043  -5.954  0.00  0.00    +0.171 HD
ATOM     17  H   UNL     1       3.003  -2.949  -7.116  0.00  0.00    +0.145 HD
ATOM     18  H   UNL     1       1.423   0.066  -6.098  0.00  0.00    +0.151 HD
ENDROOT
BRANCH   1  21
ATOM     19  C   UNL     1       0.606  -0.608  -1.056  0.00  0.00    +0.163 A 
ATOM     20  C   UNL     1       1.173   0.159  -2.062  0.00  0.00    +0.056 A 
ATOM     21  C   UNL     1       1.787  -0.456  -3.138  0.00  0.00    -0.002 A 
ATOM     22  C   UNL     1       1.837  -1.835  -3.213  0.00  0.00    +0.025 A 
ATOM     23  C   UNL     1       1.273  -2.606  -2.213  0.00  0.00    +0.059 A 
ATOM     24  C   UNL     1       0.662  -1.996  -1.129  0.00  0.00    +0.172 A 
ATOM     25  I   UNL     1       1.350  -4.696  -2.332  0.00  0.00    -0.040 I 
BRANCH  19  27
ATOM     26  C   UNL     1      -0.017   1.425   0.010  0.00  0.00    +0.277 C 
ATOM     27  O   UNL     1       0.002  -0.004   0.002  0.00  0.00    -0.491 OA
ENDBRANCH  19  27
BRANCH  24  28
ATOM     28  O   UNL     1       0.112  -2.752  -0.141  0.00  0.00    -0.503 OA
ATOM     29  H   UNL     1      -0.816  -2.979  -0.290  0.00  0.00    +0.292 HD
ENDBRANCH  24  28
ENDBRANCH   1  21
TORSDOF 3
