REMARK  Name = ZINC08789865
REMARK  5 active torsions:
REMARK  status: ('A' for Active; 'I' for Inactive)
REMARK    1  A    between atoms: C_5  and  C_7
REMARK    2  A    between atoms: C_7  and  N_8
REMARK    3  A    between atoms: C_13  and  C_29
REMARK    4  A    between atoms: C_29  and  C_30
REMARK    5  A    between atoms: C_30  and  C_31
REMARK                            x       y       z     vdW  Elec       q    Type
REMARK                         _______ _______ _______ _____ _____    ______ ____
ROOT
ATOM      1  N   UNL     1       1.510   2.488  -1.046  0.00  0.00    -0.237 N 
ATOM      2  C   UNL     1       0.419   2.540  -1.819  0.00  0.00    +0.224 C 
ATOM      3  O   UNL     1       0.311   3.192  -2.835  0.00  0.00    -0.275 OA
ATOM      4  C   UNL     1      -0.658   1.659  -1.228  0.00  0.00    +0.073 C 
ATOM      5  C   UNL     1      -1.814   2.541  -0.712  0.00  0.00    -0.057 C 
ATOM      6  C   UNL     1      -0.793   1.672   1.220  0.00  0.00    +0.050 C 
ATOM      7  C   UNL     1       0.010   1.085   0.052  0.00  0.00    +0.088 C 
ATOM      8  C   UNL     1       1.392   1.700   0.029  0.00  0.00    +0.225 C 
ATOM      9  O   UNL     1       2.258   1.508   0.855  0.00  0.00    -0.275 OA
ATOM     10  C   UNL     1       0.088   1.972   2.399  0.00  0.00    -0.028 A 
ATOM     11  C   UNL     1       1.186   2.783   2.580  0.00  0.00    +0.004 A 
ATOM     12  C   UNL     1       1.802   2.849   3.818  0.00  0.00    +0.000 A 
ATOM     13  C   UNL     1       1.312   2.098   4.871  0.00  0.00    +0.002 A 
ATOM     14  C   UNL     1       0.212   1.285   4.694  0.00  0.00    +0.023 A 
ATOM     15  C   UNL     1      -0.414   1.214   3.452  0.00  0.00    +0.036 A 
ATOM     16  N   UNL     1      -1.524   0.478   3.031  0.00  0.00    -0.286 N 
ATOM     17  C   UNL     1      -1.812   0.692   1.733  0.00  0.00    +0.211 C 
ATOM     18  O   UNL     1      -2.718   0.191   1.100  0.00  0.00    -0.277 OA
ATOM     19  H   UNL     1      -2.029  -0.118   3.606  0.00  0.00    +0.155 HD
ATOM     20  N   UNL     1      -1.419   2.877   0.659  0.00  0.00    +0.394 N 
ATOM     21  H   UNL     1      -2.244   3.138   1.211  0.00  0.00    -0.083 HD
ATOM     22  H   UNL     1      -0.750   3.655   0.654  0.00  0.00    -0.083 HD
ENDROOT
BRANCH   1  23
ATOM     23  C   UNL     1       2.733   3.234  -1.351  0.00  0.00    +0.153 C 
BRANCH  23  28
ATOM     24  C   UNL     1       4.147   0.282  -3.233  0.00  0.00    +0.000 A 
ATOM     25  C   UNL     1       5.421   0.729  -3.532  0.00  0.00    +0.001 A 
ATOM     26  C   UNL     1       5.826   1.986  -3.125  0.00  0.00    +0.020 A 
ATOM     27  C   UNL     1       4.954   2.800  -2.423  0.00  0.00    +0.046 A 
ATOM     28  C   UNL     1       3.681   2.350  -2.120  0.00  0.00    -0.011 A 
ATOM     29  C   UNL     1       3.277   1.093  -2.528  0.00  0.00    +0.006 A 
ATOM     30 CL   UNL     1       5.459   4.382  -1.918  0.00  0.00    -0.083 Cl
ENDBRANCH  23  28
ENDBRANCH   1  23
BRANCH   5  31
ATOM     31  C   UNL     1      -1.954   3.795  -1.577  0.00  0.00    -0.004 C 
BRANCH  31  32
ATOM     32  C   UNL     1      -3.180   4.592  -1.127  0.00  0.00    +0.123 C 
BRANCH  32  33
ATOM     33  C   UNL     1      -3.317   5.827  -1.979  0.00  0.00    +0.356 C 
ATOM     34  O   UNL     1      -2.517   6.047  -2.857  0.00  0.00    -0.246 OA
ATOM     35  O   UNL     1      -4.329   6.682  -1.763  0.00  0.00    -0.246 OA
ENDBRANCH  32  33
ENDBRANCH  31  32
ENDBRANCH   5  31
TORSDOF 5
