REMARK  Name = ZINC05437608
REMARK  7 active torsions:
REMARK  status: ('A' for Active; 'I' for Inactive)
REMARK    1  A    between atoms: C_1  and  O_2
REMARK    2  A    between atoms: O_2  and  C_3
REMARK    3  A    between atoms: C_13  and  O_30
REMARK    4  A    between atoms: C_16  and  O_17
REMARK    5  A    between atoms: C_18  and  O_29
REMARK    6  A    between atoms: C_21  and  C_23
REMARK    7  A    between atoms: C_21  and  O_28
REMARK                            x       y       z     vdW  Elec       q    Type
REMARK                         _______ _______ _______ _____ _____    ______ ____
ROOT
ATOM      1  C   UNL     1      -7.321   1.417   4.683  0.00  0.00    +0.132 A 
ATOM      2  C   UNL     1      -8.710   1.420   4.594  0.00  0.00    +0.046 A 
ATOM      3  C   UNL     1      -9.335   1.098   3.407  0.00  0.00    +0.004 A 
ATOM      4  C   UNL     1      -8.590   0.767   2.285  0.00  0.00    +0.012 A 
ATOM      5  C   UNL     1      -7.202   0.758   2.351  0.00  0.00    +0.037 A 
ATOM      6  C   UNL     1      -6.558   1.086   3.560  0.00  0.00    +0.075 A 
ATOM      7  C   UNL     1      -5.084   1.077   3.629  0.00  0.00    +0.202 C 
ATOM      8  O   UNL     1      -4.518   1.108   4.705  0.00  0.00    -0.286 OA
ATOM      9  C   UNL     1      -4.305   1.030   2.378  0.00  0.00    +0.078 A 
ATOM     10  C   UNL     1      -4.949   0.701   1.166  0.00  0.00    +0.078 A 
ATOM     11  C   UNL     1      -4.208   0.656  -0.012  0.00  0.00    +0.132 A 
ATOM     12  C   UNL     1      -2.834   0.937   0.002  0.00  0.00    +0.007 A 
ATOM     13  C   UNL     1      -2.210   1.261   1.179  0.00  0.00    +0.030 A 
ATOM     14  C   UNL     1      -2.941   1.307   2.374  0.00  0.00    +0.134 A 
ATOM     15  C   UNL     1      -0.739   1.584   1.256  0.00  0.00    +0.152 C 
ATOM     16  C   UNL     1      -0.013   1.086   0.008  0.00  0.00    +0.077 C 
ATOM     17  C   UNL     1      -0.765   1.599  -1.225  0.00  0.00    +0.115 C 
ATOM     18  C   UNL     1      -2.101   0.864  -1.313  0.00  0.00    +0.080 C 
ATOM     19  C   UNL     1      -6.394   0.409   1.163  0.00  0.00    +0.198 C 
ATOM     20  O   UNL     1      -6.915  -0.111   0.195  0.00  0.00    -0.286 OA
ENDROOT
BRANCH  17  21
ATOM     21  C   UNL     1       0.047   1.327  -2.466  0.00  0.00    +0.080 A 
ATOM     22  C   UNL     1      -0.365   1.775  -3.679  0.00  0.00    +0.072 A 
ATOM     23  S   UNL     1       0.956   1.170  -4.718  0.00  0.00    -0.084 S 
ATOM     24  C   UNL     1       1.887   0.399  -3.472  0.00  0.00    +0.156 A 
ATOM     25  N   UNL     1       1.170   0.643  -2.399  0.00  0.00    -0.249 NA
ENDBRANCH  17  21
BRANCH   1  27
ATOM     26  C   UNL     1      -7.557   2.060   6.957  0.00  0.00    +0.277 C 
ATOM     27  O   UNL     1      -6.711   1.733   5.852  0.00  0.00    -0.494 OA
ENDBRANCH   1  27
BRANCH  14  28
ATOM     28  O   UNL     1      -2.315   1.623   3.535  0.00  0.00    -0.506 OA
ATOM     29  H   UNL     1      -2.308   2.570   3.733  0.00  0.00    +0.292 HD
ENDBRANCH  14  28
BRANCH  17  30
ATOM     30  O   UNL     1      -0.996   3.004  -1.099  0.00  0.00    -0.382 OA
ATOM     31  H   UNL     1      -1.469   3.394  -1.847  0.00  0.00    +0.211 HD
ENDBRANCH  17  30
BRANCH  15  32
ATOM     32  O   UNL     1      -0.572   2.999   1.364  0.00  0.00    -0.387 OA
ATOM     33  H   UNL     1      -1.006   3.388   2.135  0.00  0.00    +0.210 HD
ENDBRANCH  15  32
BRANCH  11  34
ATOM     34  O   UNL     1      -4.819   0.339  -1.180  0.00  0.00    -0.506 OA
ATOM     35  H   UNL     1      -4.823  -0.608  -1.377  0.00  0.00    +0.292 HD
ENDBRANCH  11  34
TORSDOF 6
