REMARK  Name = ZINC08893394
REMARK  13 active torsions:
REMARK  status: ('A' for Active; 'I' for Inactive)
REMARK    1  A    between atoms: C_1  and  C_2
REMARK    2  A    between atoms: C_2  and  O_3
REMARK    3  A    between atoms: O_3  and  C_4
REMARK    4  A    between atoms: C_6  and  C_11
REMARK    5  A    between atoms: C_9  and  O_10
REMARK    6  A    between atoms: C_17  and  C_35
REMARK    7  A    between atoms: C_18  and  C_25
REMARK    8  A    between atoms: C_20  and  C_23
REMARK    9  A    between atoms: C_21  and  N_22
REMARK   10  A    between atoms: C_28  and  O_34
REMARK   11  A    between atoms: C_29  and  O_31
REMARK   12  A    between atoms: O_31  and  C_32
REMARK   13  A    between atoms: C_32  and  C_33
REMARK                            x       y       z     vdW  Elec       q    Type
REMARK                         _______ _______ _______ _____ _____    ______ ____
ROOT
ATOM      1  C   UNL     1       9.090  -0.328  -1.862  0.00  0.00    +0.028 C 
ATOM      2  C   UNL     1       7.908   0.234  -1.499  0.00  0.00    +0.080 A 
ATOM      3  C   UNL     1       7.253   0.259  -0.187  0.00  0.00    +0.271 A 
ATOM      4  O   UNL     1       7.769  -0.275   0.777  0.00  0.00    -0.266 OA
ATOM      5  N   UNL     1       6.066   0.887  -0.074  0.00  0.00    -0.256 N 
ATOM      6  C   UNL     1       5.539   1.472  -1.210  0.00  0.00    +0.104 A 
ATOM      7  C   UNL     1       4.357   2.137  -1.251  0.00  0.00    +0.072 C 
ATOM      8  C   UNL     1       3.553   2.254   0.029  0.00  0.00    +0.106 C 
ATOM      9  C   UNL     1       4.164   1.601   1.252  0.00  0.00    +0.080 C 
ATOM     10  C   UNL     1       5.354   0.972   1.128  0.00  0.00    +0.119 C 
ATOM     11  S   UNL     1       6.732   1.140  -2.491  0.00  0.00    -0.065 S 
ENDROOT
BRANCH   1  14
ATOM     12  C   UNL     1      11.187  -0.490  -4.967  0.00  0.00    +0.162 A 
ATOM     13  C   UNL     1      10.829  -0.447  -3.634  0.00  0.00    +0.057 A 
ATOM     14  C   UNL     1       9.477  -0.375  -3.278  0.00  0.00    -0.020 A 
ATOM     15  C   UNL     1       8.495  -0.353  -4.275  0.00  0.00    +0.012 A 
ATOM     16  C   UNL     1       8.861  -0.391  -5.603  0.00  0.00    +0.050 A 
ATOM     17  C   UNL     1      10.203  -0.462  -5.955  0.00  0.00    +0.158 A 
BRANCH  17  18
ATOM     18  O   UNL     1      10.557  -0.505  -7.265  0.00  0.00    -0.503 OA
ATOM     19  H   UNL     1      10.617  -1.400  -7.627  0.00  0.00    +0.292 HD
ENDBRANCH  17  18
BRANCH  12  20
ATOM     20  O   UNL     1      12.499  -0.561  -5.317  0.00  0.00    -0.489 OA
BRANCH  20  22
ATOM     21  C   UNL     1      14.865  -0.666  -4.838  0.00  0.00    +0.048 C 
ATOM     22  C   UNL     1      13.453  -0.586  -4.254  0.00  0.00    +0.226 C 
ENDBRANCH  20  22
ENDBRANCH  12  20
ENDBRANCH   1  14
BRANCH   8  23
ATOM     23  C   UNL     1       2.198   1.638  -0.208  0.00  0.00    -0.030 A 
ATOM     24  C   UNL     1       2.090   0.280  -0.442  0.00  0.00    +0.008 A 
ATOM     25  C   UNL     1       0.849  -0.290  -0.660  0.00  0.00    +0.049 A 
ATOM     26  C   UNL     1      -0.289   0.501  -0.645  0.00  0.00    +0.158 A 
ATOM     27  C   UNL     1      -0.179   1.868  -0.409  0.00  0.00    +0.162 A 
ATOM     28  C   UNL     1       1.067   2.433  -0.191  0.00  0.00    +0.054 A 
BRANCH  26  29
ATOM     29  O   UNL     1      -1.510  -0.058  -0.860  0.00  0.00    -0.503 OA
ATOM     30  H   UNL     1      -1.775  -0.077  -1.790  0.00  0.00    +0.292 HD
ENDBRANCH  26  29
BRANCH  27  31
ATOM     31  O   UNL     1      -1.293   2.649  -0.398  0.00  0.00    -0.489 OA
BRANCH  31  32
ATOM     32  C   UNL     1      -1.105   4.043  -0.150  0.00  0.00    +0.226 C 
ATOM     33  C   UNL     1      -2.459   4.754  -0.176  0.00  0.00    +0.048 C 
ENDBRANCH  31  32
ENDBRANCH  27  31
ENDBRANCH   8  23
BRANCH  10  34
ATOM     34  N   UNL     1       5.896   0.384   2.245  0.00  0.00    -0.343 N 
ATOM     35  H   UNL     1       5.316   0.072   2.958  0.00  0.00    +0.144 HD
ATOM     36  H   UNL     1       6.857   0.281   2.321  0.00  0.00    +0.144 HD
ENDBRANCH  10  34
BRANCH   9  37
ATOM     37  C   UNL     1       3.492   1.648   2.515  0.00  0.00    +0.099 C 
ATOM     38  N   UNL     1       2.959   1.685   3.518  0.00  0.00    -0.191 NA
ENDBRANCH   9  37
BRANCH   7  39
ATOM     39  C   UNL     1       3.882   2.716  -2.472  0.00  0.00    +0.098 C 
ATOM     40  N   UNL     1       3.506   3.174  -3.441  0.00  0.00    -0.191 NA
ENDBRANCH   7  39
TORSDOF 11
