REMARK  Name = ZINC33937020
REMARK  9 active torsions:
REMARK  status: ('A' for Active; 'I' for Inactive)
REMARK    1  A    between atoms: C_1  and  C_2
REMARK    2  A    between atoms: C_2  and  C_3
REMARK    3  A    between atoms: C_3  and  C_5
REMARK    4  A    between atoms: C_3  and  N_17
REMARK    5  A    between atoms: N_9  and  C_10
REMARK    6  A    between atoms: C_10  and  C_11
REMARK    7  A    between atoms: N_17  and  C_18
REMARK    8  A    between atoms: N_17  and  C_35
REMARK    9  A    between atoms: C_18  and  C_19
REMARK                            x       y       z     vdW  Elec       q    Type
REMARK                         _______ _______ _______ _____ _____    ______ ____
ROOT
ATOM      1  N   UNL     1      -2.124  -0.288  -0.584  0.00  0.00    +0.391 N 
ATOM      2  H   UNL     1      -1.795  -0.715  -1.436  0.00  0.00    -0.080 HD
ENDROOT
BRANCH   1   3
ATOM      3  C   UNL     1      -2.541   1.093  -0.858  0.00  0.00    -0.067 C 
ATOM      4  C   UNL     1      -1.384   1.857  -1.506  0.00  0.00    -0.015 C 
ATOM      5  C   UNL     1      -1.819   3.296  -1.791  0.00  0.00    -0.002 C 
ATOM      6  C   UNL     1      -2.210   3.980  -0.480  0.00  0.00    -0.000 C 
ATOM      7  C   UNL     1      -3.367   3.217   0.168  0.00  0.00    -0.002 C 
ATOM      8  C   UNL     1      -2.932   1.778   0.454  0.00  0.00    -0.015 C 
ENDBRANCH   1   3
BRANCH   1   9
ATOM      9  C   UNL     1      -1.043  -0.285   0.411  0.00  0.00    +0.003 C 
BRANCH   9  10
ATOM     10  C   UNL     1      -1.611   0.037   1.769  0.00  0.00    +0.138 A 
ATOM     11  N   UNL     1      -2.838  -0.179   2.175  0.00  0.00    -0.115 NA
ATOM     12  N   UNL     1      -2.933   0.231   3.393  0.00  0.00    -0.023 NA
ATOM     13  N   UNL     1      -1.797   0.703   3.774  0.00  0.00    -0.044 NA
ATOM     14  N   UNL     1      -0.955   0.596   2.803  0.00  0.00    -0.228 N 
BRANCH  14  15
ATOM     15  C   UNL     1       0.451   1.009   2.820  0.00  0.00    +0.178 C 
BRANCH  15  16
ATOM     16  C   UNL     1       0.548   2.499   2.487  0.00  0.00    +0.140 C 
ATOM     17  C   UNL     1       2.024   2.969   2.552  0.00  0.00    +0.035 C 
ATOM     18  C   UNL     1       1.983   4.200   1.606  0.00  0.00    +0.031 C 
ATOM     19  C   UNL     1       0.945   3.766   0.549  0.00  0.00    +0.160 C 
ATOM     20  O   UNL     1       0.137   2.735   1.132  0.00  0.00    -0.375 OA
ENDBRANCH  15  16
ENDBRANCH  14  15
ENDBRANCH   9  10
BRANCH   9  22
ATOM     21  C   UNL     1       0.311  -1.934  -0.889  0.00  0.00    +0.002 C 
ATOM     22  C   UNL     1      -0.380  -1.664   0.449  0.00  0.00    -0.011 C 
ENDBRANCH   9  22
ENDBRANCH   1   9
BRANCH   1  23
ATOM     23  C   UNL     1      -3.266  -1.050  -0.063  0.00  0.00    -0.036 C 
BRANCH  23  24
ATOM     24  C   UNL     1      -4.258  -1.289  -1.172  0.00  0.00    +0.001 A 
ATOM     25  C   UNL     1      -4.202  -2.438  -1.893  0.00  0.00    +0.017 A 
ATOM     26  C   UNL     1      -5.179  -2.640  -2.962  0.00  0.00    +0.002 A 
ATOM     27  C   UNL     1      -5.169  -3.804  -3.740  0.00  0.00    +0.059 A 
ATOM     28  C   UNL     1      -6.103  -3.968  -4.741  0.00  0.00    +0.163 A 
ATOM     29  C   UNL     1      -7.060  -2.977  -4.979  0.00  0.00    +0.164 A 
ATOM     30  C   UNL     1      -7.077  -1.822  -4.217  0.00  0.00    +0.075 A 
ATOM     31  C   UNL     1      -6.142  -1.641  -3.206  0.00  0.00    +0.053 A 
ATOM     32  N   UNL     1      -6.144  -0.496  -2.436  0.00  0.00    -0.322 N 
ATOM     33  H   UNL     1      -6.807   0.192  -2.604  0.00  0.00    +0.169 HD
ATOM     34  C   UNL     1      -5.244  -0.322  -1.452  0.00  0.00    +0.251 A 
ATOM     35  O   UNL     1      -5.279   0.700  -0.788  0.00  0.00    -0.268 OA
ATOM     36  O   UNL     1      -7.991  -3.135  -5.959  0.00  0.00    -0.485 OA
ATOM     37  C   UNL     1      -7.720  -4.130  -6.951  0.00  0.00    +0.270 C 
ATOM     38  C   UNL     1      -7.261  -5.409  -6.238  0.00  0.00    +0.270 C 
ATOM     39  O   UNL     1      -6.078  -5.105  -5.490  0.00  0.00    -0.485 OA
ENDBRANCH  23  24
ENDBRANCH   1  23
TORSDOF 8
