REMARK  Name = ZINC64227633
REMARK  5 active torsions:
REMARK  status: ('A' for Active; 'I' for Inactive)
REMARK    1  A    between atoms: C_1  and  C_2
REMARK    2  A    between atoms: C_2  and  C_3
REMARK    3  A    between atoms: C_8  and  N_9
REMARK    4  A    between atoms: C_10  and  C_12
REMARK    5  A    between atoms: C_15  and  O_29
REMARK                            x       y       z     vdW  Elec       q    Type
REMARK                         _______ _______ _______ _____ _____    ______ ____
ROOT
ATOM      1  C   UNL     1      -1.451  -0.272  -4.864  0.00  0.00    +0.222 C 
ATOM      2  C   UNL     1      -0.522  -1.412  -5.169  0.00  0.00    +0.071 C 
ATOM      3  C   UNL     1      -0.829  -2.323  -6.082  0.00  0.00    +0.182 C 
ATOM      4  N   UNL     1      -2.030  -2.223  -6.779  0.00  0.00    -0.259 N 
ATOM      5  C   UNL     1      -2.709  -1.026  -6.785  0.00  0.00    +0.189 C 
ATOM      6  N   UNL     1      -2.451  -0.107  -5.911  0.00  0.00    -0.238 NA
ATOM      7  N   UNL     1      -3.680  -0.803  -7.738  0.00  0.00    -0.266 N 
ATOM      8  C   UNL     1      -4.370   0.396  -7.755  0.00  0.00    +0.165 A 
ATOM      9  N   UNL     1      -4.240   1.433  -6.959  0.00  0.00    -0.225 NA
ATOM     10  C   UNL     1      -4.988   2.549  -7.093  0.00  0.00    +0.080 A 
ATOM     11  C   UNL     1      -4.949   3.726  -6.310  0.00  0.00    +0.029 A 
ATOM     12  C   UNL     1      -5.785   4.777  -6.583  0.00  0.00    +0.002 A 
ATOM     13  C   UNL     1      -6.695   4.727  -7.629  0.00  0.00    +0.001 A 
ATOM     14  C   UNL     1      -6.761   3.591  -8.416  0.00  0.00    +0.017 A 
ATOM     15  C   UNL     1      -5.927   2.534  -8.150  0.00  0.00    +0.041 A 
ATOM     16  S   UNL     1      -5.660   0.932  -8.870  0.00  0.00    -0.052 S 
ATOM     17  H   UNL     1      -3.879  -1.486  -8.397  0.00  0.00    +0.157 HD
ATOM     18  H   UNL     1      -2.385  -2.990  -7.255  0.00  0.00    +0.158 HD
ENDROOT
BRANCH   1  20
ATOM     19  N   UNL     1      -1.505  -0.315  -2.391  0.00  0.00    -0.283 N 
ATOM     20  C   UNL     1      -2.147  -0.541  -3.555  0.00  0.00    +0.246 C 
ATOM     21  O   UNL     1      -3.285  -0.961  -3.548  0.00  0.00    -0.273 OA
ATOM     22  H   UNL     1      -0.620   0.082  -2.395  0.00  0.00    +0.155 HD
BRANCH  19  28
ATOM     23  C   UNL     1      -1.349  -1.119  -0.119  0.00  0.00    -0.026 A 
ATOM     24  C   UNL     1      -1.954  -1.445   1.079  0.00  0.00    +0.005 A 
ATOM     25  C   UNL     1      -3.322  -1.313   1.222  0.00  0.00    +0.000 A 
ATOM     26  C   UNL     1      -4.090  -0.854   0.168  0.00  0.00    +0.002 A 
ATOM     27  C   UNL     1      -3.491  -0.525  -1.033  0.00  0.00    +0.023 A 
ATOM     28  C   UNL     1      -2.116  -0.652  -1.178  0.00  0.00    +0.037 A 
BRANCH  23  30
ATOM     29  C   UNL     1       0.819   0.078   0.019  0.00  0.00    +0.009 C 
ATOM     30  C   UNL     1       0.143  -1.263  -0.275  0.00  0.00    +0.033 C 
ENDBRANCH  23  30
ENDBRANCH  19  28
ENDBRANCH   1  20
BRANCH   3  31
ATOM     31  O   UNL     1       0.024  -3.347  -6.335  0.00  0.00    -0.495 OA
ATOM     32  H   UNL     1      -0.288  -3.959  -7.016  0.00  0.00    +0.293 HD
ENDBRANCH   3  31
TORSDOF 4
