REMARK  Name = ZINC08036533
REMARK  10 active torsions:
REMARK  status: ('A' for Active; 'I' for Inactive)
REMARK    1  A    between atoms: C_1  and  C_2
REMARK    2  A    between atoms: C_8  and  N_10
REMARK    3  A    between atoms: C_11  and  C_13
REMARK    4  A    between atoms: C_13  and  N_14
REMARK    5  A    between atoms: N_14  and  C_15
REMARK    6  A    between atoms: N_14  and  C_16
REMARK    7  A    between atoms: C_16  and  C_17
REMARK    8  A    between atoms: N_19  and  C_20
REMARK    9  A    between atoms: C_25  and  S_26
REMARK   10  A    between atoms: S_26  and  C_27
REMARK                            x       y       z     vdW  Elec       q    Type
REMARK                         _______ _______ _______ _____ _____    ______ ____
ROOT
ATOM      1  N   UNL     1       0.993   0.657   5.950  0.00  0.00    +0.389 N 
ATOM      2  C   UNL     1       1.446  -0.705   6.264  0.00  0.00    -0.095 C 
ATOM      3  H   UNL     1       1.787   1.225   5.694  0.00  0.00    -0.081 HD
ENDROOT
BRANCH   1   4
ATOM      4  C   UNL     1       0.043   0.611   4.831  0.00  0.00    +0.019 C 
BRANCH   4   6
ATOM      5  N   UNL     1       0.072   0.009   2.432  0.00  0.00    -0.314 N 
ATOM      6  C   UNL     1       0.750   0.131   3.590  0.00  0.00    +0.197 C 
ATOM      7  O   UNL     1       1.930  -0.147   3.634  0.00  0.00    -0.278 OA
ATOM      8  H   UNL     1      -0.872   0.231   2.397  0.00  0.00    +0.149 HD
BRANCH   5  15
ATOM      9  C   UNL     1       0.011   1.589   0.005  0.00  0.00    +0.009 C 
ATOM     10  C   UNL     1       0.026   0.059  -0.013  0.00  0.00    +0.006 C 
ATOM     11  C   UNL     1      -1.411  -0.466  -0.010  0.00  0.00    +0.005 C 
ATOM     12  C   UNL     1      -1.396  -1.995  -0.028  0.00  0.00    +0.000 C 
ATOM     13  C   UNL     1      -0.662  -2.513   1.211  0.00  0.00    +0.002 C 
ATOM     14  C   UNL     1       0.775  -1.988   1.208  0.00  0.00    +0.022 C 
ATOM     15  C   UNL     1       0.760  -0.459   1.226  0.00  0.00    +0.076 C 
ENDBRANCH   5  15
ENDBRANCH   4   6
ENDBRANCH   1   4
BRANCH   1  16
ATOM     16  C   UNL     1       0.335   1.238   7.128  0.00  0.00    +0.019 C 
BRANCH  16  17
ATOM     17  C   UNL     1       1.342   1.399   8.238  0.00  0.00    +0.201 C 
ATOM     18  O   UNL     1       2.494   1.062   8.065  0.00  0.00    -0.278 OA
ATOM     19  N   UNL     1       0.962   1.916   9.423  0.00  0.00    -0.286 N 
ATOM     20  H   UNL     1       0.057   2.245   9.540  0.00  0.00    +0.155 HD
BRANCH  19  21
ATOM     21  C   UNL     1       1.874   1.978  10.485  0.00  0.00    +0.047 A 
ATOM     22  C   UNL     1       3.216   2.217  10.235  0.00  0.00    +0.024 A 
ATOM     23  C   UNL     1       4.114   2.278  11.284  0.00  0.00    +0.002 A 
ATOM     24  C   UNL     1       3.678   2.102  12.585  0.00  0.00    +0.001 A 
ATOM     25  C   UNL     1       2.342   1.864  12.844  0.00  0.00    +0.016 A 
ATOM     26  C   UNL     1       1.432   1.807  11.797  0.00  0.00    +0.029 A 
BRANCH  26  27
ATOM     27  S   UNL     1      -0.274   1.510  12.124  0.00  0.00    -0.127 S 
ATOM     28  C   UNL     1      -0.354   1.357  13.930  0.00  0.00    +0.090 C 
ENDBRANCH  26  27
ENDBRANCH  19  21
ENDBRANCH  16  17
ENDBRANCH   1  16
TORSDOF 7
