REMARK  Name = ZINC40348182
REMARK  9 active torsions:
REMARK  status: ('A' for Active; 'I' for Inactive)
REMARK    1  A    between atoms: C_1  and  C_2
REMARK    2  A    between atoms: C_2  and  C_4
REMARK    3  A    between atoms: C_2  and  N_18
REMARK    4  A    between atoms: C_4  and  N_5
REMARK    5  A    between atoms: N_5  and  S_6
REMARK    6  A    between atoms: S_6  and  C_9
REMARK    7  A    between atoms: C_12  and  N_16
REMARK    8  A    between atoms: N_18  and  C_19
REMARK    9  A    between atoms: N_18  and  C_20
REMARK                            x       y       z     vdW  Elec       q    Type
REMARK                         _______ _______ _______ _____ _____    ______ ____
ROOT
ATOM      1  S   UNL     1      -2.175  -3.388   0.047  0.00  0.00    +0.060 S 
ATOM      2  O   UNL     1      -1.578  -4.677   0.013  0.00  0.00    -0.153 OA
ATOM      3  O   UNL     1      -2.979  -2.949   1.134  0.00  0.00    -0.153 OA
ENDROOT
BRANCH   1   4
ATOM      4  C   UNL     1      -3.171  -3.256  -1.401  0.00  0.00    +0.133 A 
ATOM      5  C   UNL     1      -4.232  -2.369  -1.430  0.00  0.00    +0.047 A 
ATOM      6  C   UNL     1      -5.015  -2.263  -2.564  0.00  0.00    +0.040 A 
ATOM      7  C   UNL     1      -4.736  -3.049  -3.675  0.00  0.00    +0.027 A 
ATOM      8  C   UNL     1      -3.670  -3.938  -3.643  0.00  0.00    +0.040 A 
ATOM      9  C   UNL     1      -2.887  -4.036  -2.508  0.00  0.00    +0.047 A 
ATOM     10 BR   UNL     1      -1.431  -5.242  -2.465  0.00  0.00    -0.048 Br
ATOM     11 BR   UNL     1      -4.612  -1.299   0.082  0.00  0.00    -0.048 Br
BRANCH   7  12
ATOM     12  N   UNL     1      -5.526  -2.945  -4.822  0.00  0.00    -0.358 N 
ATOM     13  H   UNL     1      -6.270  -2.323  -4.844  0.00  0.00    +0.142 HD
ATOM     14  H   UNL     1      -5.330  -3.494  -5.598  0.00  0.00    +0.142 HD
ENDBRANCH   7  12
ENDBRANCH   1   4
BRANCH   1  15
ATOM     15  N   UNL     1      -0.944  -2.291  -0.104  0.00  0.00    -0.191 NA
ATOM     16  H   UNL     1      -0.026  -2.599  -0.176  0.00  0.00    +0.148 HD
BRANCH  15  17
ATOM     17  C   UNL     1      -1.239  -0.857  -0.130  0.00  0.00    +0.090 C 
BRANCH  17  19
ATOM     18  C   UNL     1      -0.288   1.424   0.240  0.00  0.00    -0.012 C 
ATOM     19  C   UNL     1       0.042  -0.067   0.144  0.00  0.00    -0.057 C 
BRANCH  19  20
ATOM     20  N   UNL     1       0.635  -0.520   1.409  0.00  0.00    +0.379 N 
ATOM     21  C   UNL     1       1.934   0.138   1.604  0.00  0.00    -0.096 C 
ATOM     22  C   UNL     1      -0.260  -0.174   2.521  0.00  0.00    -0.096 C 
ATOM     23  H   UNL     1       0.766  -1.520   1.381  0.00  0.00    -0.082 HD
ENDBRANCH  19  20
ENDBRANCH  17  19
ENDBRANCH  15  17
ENDBRANCH   1  15
TORSDOF 6
