REMARK  Name = ZINC14081305
REMARK  7 active torsions:
REMARK  status: ('A' for Active; 'I' for Inactive)
REMARK    1  A    between atoms: C_1  and  C_2
REMARK    2  A    between atoms: C_5  and  C_8
REMARK    3  A    between atoms: C_8  and  N_9
REMARK    4  A    between atoms: N_12  and  C_13
REMARK    5  A    between atoms: C_13  and  C_14
REMARK    6  A    between atoms: N_16  and  N_17
REMARK    7  A    between atoms: C_18  and  C_20
REMARK                            x       y       z     vdW  Elec       q    Type
REMARK                         _______ _______ _______ _____ _____    ______ ____
ROOT
ATOM      1  C   UNL     1       2.626  -2.610  -0.037  0.00  0.00    +0.246 C 
ATOM      2  O   UNL     1       3.537  -1.809  -0.041  0.00  0.00    -0.273 OA
ATOM      3  N   UNL     1       2.890  -3.931  -0.047  0.00  0.00    -0.233 N 
ATOM      4  H   UNL     1       2.161  -4.572  -0.043  0.00  0.00    +0.173 HD
ENDROOT
BRANCH   3   5
ATOM      5  N   UNL     1       4.217  -4.380  -0.062  0.00  0.00    -0.234 N 
ATOM      6  C   UNL     1       4.481  -5.702  -0.071  0.00  0.00    +0.235 C 
ATOM      7  O   UNL     1       3.570  -6.503  -0.067  0.00  0.00    -0.274 OA
ATOM      8  H   UNL     1       4.945  -3.740  -0.065  0.00  0.00    +0.173 HD
BRANCH   6   9
ATOM      9  C   UNL     1       5.908  -6.185  -0.088  0.00  0.00    +0.049 C 
ATOM     10  C   UNL     1       6.611  -5.658  -1.341  0.00  0.00    +0.019 C 
ATOM     11  C   UNL     1       8.060  -6.149  -1.357  0.00  0.00    -0.009 C 
ATOM     12  C   UNL     1       8.081  -7.678  -1.366  0.00  0.00    +0.007 C 
ATOM     13  C   UNL     1       7.378  -8.205  -0.113  0.00  0.00    -0.009 C 
ATOM     14  C   UNL     1       5.929  -7.715  -0.096  0.00  0.00    +0.019 C 
ATOM     15  C   UNL     1       8.104  -7.692   1.133  0.00  0.00    +0.007 C 
ATOM     16  C   UNL     1       8.084  -6.162   1.141  0.00  0.00    -0.009 C 
ATOM     17  C   UNL     1       8.786  -5.636  -0.112  0.00  0.00    +0.007 C 
ATOM     18  C   UNL     1       6.635  -5.672   1.158  0.00  0.00    +0.019 C 
ENDBRANCH   6   9
ENDBRANCH   3   5
BRANCH   1  19
ATOM     19  C   UNL     1       1.198  -2.127  -0.021  0.00  0.00    +0.203 C 
BRANCH  19  23
ATOM     20  N   UNL     1      -0.016   1.344   0.009  0.00  0.00    -0.295 N 
ATOM     21  C   UNL     1       0.002  -0.004   0.002  0.00  0.00    +0.300 C 
ATOM     22  O   UNL     1      -1.042  -0.626   0.009  0.00  0.00    -0.253 OA
ATOM     23  N   UNL     1       1.178  -0.662  -0.013  0.00  0.00    -0.291 N 
ATOM     24  H   UNL     1       0.817   1.840   0.004  0.00  0.00    +0.151 HD
ATOM     25  H   UNL     1       2.012  -0.166  -0.018  0.00  0.00    +0.151 HD
BRANCH  20  26
ATOM     26  C   UNL     1      -1.295   2.059   0.019  0.00  0.00    +0.141 C 
BRANCH  26  31
ATOM     27  C   UNL     1      -0.317   7.754   0.046  0.00  0.00    +0.044 C 
ATOM     28  C   UNL     1      -0.572   6.269   0.039  0.00  0.00    -0.050 A 
ATOM     29  C   UNL     1      -0.694   5.594  -1.161  0.00  0.00    +0.003 A 
ATOM     30  C   UNL     1      -0.928   4.232  -1.168  0.00  0.00    +0.005 A 
ATOM     31  C   UNL     1      -1.040   3.544   0.026  0.00  0.00    -0.030 A 
ATOM     32  C   UNL     1      -0.922   4.220   1.226  0.00  0.00    +0.005 A 
ATOM     33  C   UNL     1      -0.684   5.581   1.233  0.00  0.00    +0.003 A 
ENDBRANCH  26  31
ENDBRANCH  20  26
ENDBRANCH  19  23
ENDBRANCH   1  19
TORSDOF 6
