REMARK  Name = ZINC11370832
REMARK  6 active torsions:
REMARK  status: ('A' for Active; 'I' for Inactive)
REMARK    1  A    between atoms: C_10  and  S_15
REMARK    2  A    between atoms: N_11  and  C_12
REMARK    3  A    between atoms: S_15  and  C_16
REMARK    4  A    between atoms: C_16  and  C_17
REMARK    5  A    between atoms: N_19  and  C_20
REMARK    6  A    between atoms: C_21  and  C_29
REMARK                            x       y       z     vdW  Elec       q    Type
REMARK                         _______ _______ _______ _____ _____    ______ ____
ROOT
ATOM      1  C   UNL     1      -1.289  -0.438  -1.257  0.00  0.00    +0.228 C 
ATOM      2  O   UNL     1      -2.214   0.343  -1.332  0.00  0.00    -0.275 OA
ATOM      3  N   UNL     1      -1.495  -1.751  -1.483  0.00  0.00    -0.279 N 
ATOM      4  H   UNL     1      -0.755  -2.376  -1.423  0.00  0.00    +0.155 HD
ENDROOT
BRANCH   3   5
ATOM      5  C   UNL     1      -2.764  -2.208  -1.803  0.00  0.00    +0.084 A 
ATOM      6  C   UNL     1      -3.170  -3.508  -2.074  0.00  0.00    +0.068 A 
ATOM      7  C   UNL     1      -4.574  -3.723  -2.381  0.00  0.00    -0.023 A 
ATOM      8  C   UNL     1      -5.340  -2.611  -2.379  0.00  0.00    -0.004 A 
ATOM      9  S   UNL     1      -4.228  -1.296  -1.969  0.00  0.00    -0.077 S 
ATOM     10  C   UNL     1      -6.808  -2.524  -2.664  0.00  0.00    +0.043 C 
ATOM     11  C   UNL     1      -7.249  -3.837  -3.328  0.00  0.00    +0.005 C 
ATOM     12  C   UNL     1      -6.691  -5.011  -2.519  0.00  0.00    +0.005 C 
ATOM     13  C   UNL     1      -5.173  -5.088  -2.695  0.00  0.00    +0.037 C 
BRANCH   6  14
ATOM     14  C   UNL     1      -2.218  -4.622  -2.046  0.00  0.00    +0.244 C 
ATOM     15  O   UNL     1      -2.028  -5.235  -1.012  0.00  0.00    -0.270 OA
ATOM     16  N   UNL     1      -1.554  -4.969  -3.167  0.00  0.00    -0.325 N 
ATOM     17  H   UNL     1      -1.705  -4.481  -3.991  0.00  0.00    +0.145 HD
ATOM     18  H   UNL     1      -0.924  -5.707  -3.148  0.00  0.00    +0.145 HD
ENDBRANCH   6  14
ENDBRANCH   3   5
BRANCH   1  19
ATOM     19  C   UNL     1       0.090   0.059  -0.909  0.00  0.00    +0.173 C 
BRANCH  19  20
ATOM     20  S   UNL     1       0.042   1.856  -0.665  0.00  0.00    -0.077 S 
BRANCH  20  30
ATOM     21  C   UNL     1       6.586   6.299   0.230  0.00  0.00    +0.003 C 
ATOM     22  C   UNL     1       6.607   5.176   1.271  0.00  0.00    +0.019 C 
ATOM     23  C   UNL     1       5.735   4.018   0.781  0.00  0.00    +0.108 C 
ATOM     24  N   UNL     1       4.361   4.492   0.573  0.00  0.00    -0.300 N 
ATOM     25  C   UNL     1       4.310   5.537  -0.457  0.00  0.00    +0.108 C 
ATOM     26  C   UNL     1       5.139   6.741  -0.004  0.00  0.00    +0.019 C 
ATOM     27  C   UNL     1       3.514   3.438   0.255  0.00  0.00    +0.221 A 
ATOM     28  N   UNL     1       3.859   2.178   0.146  0.00  0.00    -0.112 NA
ATOM     29  N   UNL     1       2.714   1.443  -0.187  0.00  0.00    -0.121 NA
ATOM     30  C   UNL     1       1.707   2.277  -0.271  0.00  0.00    +0.194 A 
ATOM     31  N   UNL     1       2.176   3.533  -0.005  0.00  0.00    -0.287 N 
BRANCH  31  32
ATOM     32  C   UNL     1       1.383   4.765   0.003  0.00  0.00    +0.093 C 
ATOM     33  C   UNL     1      -0.137   4.626   0.103  0.00  0.00    +0.027 C 
ATOM     34  C   UNL     1       0.507   5.050  -1.219  0.00  0.00    +0.027 C 
ENDBRANCH  31  32
ENDBRANCH  20  30
ENDBRANCH  19  20
ENDBRANCH   1  19
TORSDOF 6
