REMARK  Name = ZINC12466250
REMARK  4 active torsions:
REMARK  status: ('A' for Active; 'I' for Inactive)
REMARK    1  A    between atoms: C_8  and  C_10
REMARK    2  A    between atoms: C_16  and  C_18
REMARK    3  A    between atoms: N_23  and  S_24
REMARK    4  A    between atoms: S_24  and  C_27
REMARK                            x       y       z     vdW  Elec       q    Type
REMARK                         _______ _______ _______ _____ _____    ______ ____
ROOT
ATOM      1  C   UNL     1       3.220   6.316   0.005  0.00  0.00    +0.105 A 
ATOM      2  C   UNL     1       2.907   7.650   0.015  0.00  0.00    +0.079 A 
ATOM      3  S   UNL     1       4.541   8.376   0.003  0.00  0.00    -0.060 S 
ATOM      4  C   UNL     1       5.467   6.847  -0.014  0.00  0.00    +0.165 A 
ATOM      5  N   UNL     1       4.500   5.950  -0.004  0.00  0.00    -0.223 NA
ATOM      6  N   UNL     1       6.842   6.655  -0.028  0.00  0.00    -0.263 N 
ATOM      7  C   UNL     1       7.671   7.717  -0.030  0.00  0.00    +0.238 C 
ATOM      8  O   UNL     1       7.217   8.841  -0.019  0.00  0.00    -0.274 OA
ATOM      9  H   UNL     1       7.206   5.755  -0.037  0.00  0.00    +0.157 HD
ENDROOT
BRANCH   1  17
ATOM     10  C   UNL     1      -0.013   1.076   0.008  0.00  0.00    +0.002 A 
ATOM     11  C   UNL     1      -1.234   1.736   0.017  0.00  0.00    +0.001 A 
ATOM     12  C   UNL     1      -1.256   3.118   0.030  0.00  0.00    +0.017 A 
ATOM     13  C   UNL     1      -0.072   3.813   0.022  0.00  0.00    +0.040 A 
ATOM     14  C   UNL     1       1.188   3.170   0.007  0.00  0.00    +0.079 A 
ATOM     15  C   UNL     1       1.166   1.754   0.000  0.00  0.00    +0.029 A 
ATOM     16  N   UNL     1       2.261   3.986   0.002  0.00  0.00    -0.237 NA
ATOM     17  C   UNL     1       2.151   5.297   0.010  0.00  0.00    +0.128 A 
ATOM     18  S   UNL     1       0.379   5.531   0.027  0.00  0.00    -0.066 S 
ENDBRANCH   1  17
BRANCH   7  19
ATOM     19  C   UNL     1       9.164   7.508  -0.045  0.00  0.00    +0.166 C 
ATOM     20  C   UNL     1       9.575   6.756  -1.328  0.00  0.00    +0.031 C 
ATOM     21  C   UNL     1      10.912   7.441  -1.719  0.00  0.00    +0.019 C 
ATOM     22  C   UNL     1      10.644   8.908  -1.301  0.00  0.00    +0.110 C 
ATOM     23  N   UNL     1       9.851   8.808  -0.062  0.00  0.00    -0.164 NA
BRANCH  23  24
ATOM     24  S   UNL     1       9.749   9.969   1.115  0.00  0.00    +0.068 S 
ATOM     25  O   UNL     1      10.063  11.207   0.492  0.00  0.00    -0.152 OA
ATOM     26  O   UNL     1       8.522   9.749   1.797  0.00  0.00    -0.152 OA
BRANCH  24  27
ATOM     27  C   UNL     1      11.035   9.648   2.276  0.00  0.00    +0.144 A 
ATOM     28  C   UNL     1      12.309  10.109   2.286  0.00  0.00    +0.038 A 
ATOM     29  C   UNL     1      13.154   9.721   3.309  0.00  0.00    +0.030 A 
ATOM     30  C   UNL     1      12.682   8.889   4.272  0.00  0.00    +0.080 A 
ATOM     31  S   UNL     1      10.995   8.638   3.747  0.00  0.00    -0.057 S 
ATOM     32 CL   UNL     1      13.504   8.243   5.658  0.00  0.00    -0.076 Cl
ENDBRANCH  24  27
ENDBRANCH  23  24
ENDBRANCH   7  19
TORSDOF 4
