REMARK  Name = ZINC14473767
REMARK  2 active torsions:
REMARK  status: ('A' for Active; 'I' for Inactive)
REMARK    1  A    between atoms: C_4  and  O_24
REMARK    2  A    between atoms: C_5  and  C_7
REMARK                            x       y       z     vdW  Elec       q    Type
REMARK                         _______ _______ _______ _____ _____    ______ ____
ROOT
ATOM      1  C   UNL     1       3.609   1.792   0.413  0.00  0.00    +0.108 C 
ATOM      2  C   UNL     1       3.608   3.066  -0.438  0.00  0.00    +0.029 C 
ATOM      3  C   UNL     1       4.703   4.010   0.140  0.00  0.00    +0.033 C 
ATOM      4  C   UNL     1       4.007   4.684   1.306  0.00  0.00    -0.030 C 
ATOM      5  C   UNL     1       2.706   4.629   1.158  0.00  0.00    -0.023 C 
ATOM      6  C   UNL     1       2.356   3.907  -0.122  0.00  0.00    +0.049 C 
ATOM      7  C   UNL     1       1.120   3.079   0.037  0.00  0.00    -0.017 A 
ATOM      8  C   UNL     1      -0.111   3.719   0.069  0.00  0.00    +0.044 A 
ATOM      9  C   UNL     1      -1.277   2.991   0.209  0.00  0.00    +0.124 A 
ATOM     10  C   UNL     1      -1.230   1.611   0.314  0.00  0.00    +0.040 A 
ATOM     11  C   UNL     1      -0.010   0.966   0.289  0.00  0.00    +0.026 A 
ATOM     12  C   UNL     1       1.162   1.698   0.149  0.00  0.00    +0.032 A 
ATOM     13  N   UNL     1       2.392   1.027   0.125  0.00  0.00    -0.336 N 
ATOM     14  F   UNL     1      -2.469   3.628   0.239  0.00  0.00    -0.205 F 
ATOM     15  H   UNL     1       2.437   0.080  -0.078  0.00  0.00    +0.147 HD
ENDROOT
BRANCH   1  20
ATOM     16  C   UNL     1       6.990   0.130   0.651  0.00  0.00    +0.001 A 
ATOM     17  C   UNL     1       7.045  -0.565  -0.543  0.00  0.00    +0.004 A 
ATOM     18  C   UNL     1       5.988  -0.499  -1.431  0.00  0.00    +0.046 A 
ATOM     19  C   UNL     1       4.872   0.265  -1.123  0.00  0.00    +0.122 A 
ATOM     20  C   UNL     1       4.820   0.961   0.076  0.00  0.00    +0.014 A 
ATOM     21  C   UNL     1       5.881   0.896   0.958  0.00  0.00    +0.009 A 
BRANCH  19  22
ATOM     22  O   UNL     1       3.832   0.333  -1.995  0.00  0.00    -0.506 OA
ATOM     23  H   UNL     1       3.902   1.052  -2.637  0.00  0.00    +0.292 HD
ENDBRANCH  19  22
ENDBRANCH   1  20
TORSDOF 2
