REMARK  Name = ZINC38850169
REMARK  14 active torsions:
REMARK  status: ('A' for Active; 'I' for Inactive)
REMARK    1  A    between atoms: C_1  and  N_2
REMARK    2  A    between atoms: N_2  and  C_3
REMARK    3  A    between atoms: N_2  and  C_4
REMARK    4  A    between atoms: C_4  and  C_5
REMARK    5  A    between atoms: C_5  and  N_6
REMARK    6  A    between atoms: C_10  and  O_18
REMARK    7  A    between atoms: C_13  and  O_16
REMARK    8  A    between atoms: O_16  and  C_17
REMARK    9  A    between atoms: O_18  and  C_19
REMARK   10  A    between atoms: C_20  and  C_22
REMARK   11  A    between atoms: C_25  and  S_28
REMARK   12  A    between atoms: S_28  and  N_31
REMARK   13  A    between atoms: N_31  and  C_32
REMARK   14  A    between atoms: N_31  and  C_33
REMARK                            x       y       z     vdW  Elec       q    Type
REMARK                         _______ _______ _______ _____ _____    ______ ____
ROOT
ATOM      1  N   UNL     1      -2.660  -2.904   0.020  0.00  0.00    -0.248 N 
ATOM      2  C   UNL     1      -3.262  -3.046  -1.219  0.00  0.00    +0.169 A 
ATOM      3  N   UNL     1      -2.703  -3.100  -2.405  0.00  0.00    -0.221 NA
ATOM      4  C   UNL     1      -3.421  -3.243  -3.541  0.00  0.00    +0.125 A 
ATOM      5  C   UNL     1      -2.944  -3.315  -4.875  0.00  0.00    +0.147 A 
ATOM      6  C   UNL     1      -3.816  -3.461  -5.926  0.00  0.00    +0.051 A 
ATOM      7  C   UNL     1      -5.187  -3.543  -5.724  0.00  0.00    +0.050 A 
ATOM      8  C   UNL     1      -5.688  -3.477  -4.433  0.00  0.00    +0.136 A 
ATOM      9  C   UNL     1      -4.819  -3.330  -3.373  0.00  0.00    +0.086 A 
ATOM     10  S   UNL     1      -4.998  -3.209  -1.610  0.00  0.00    -0.048 S 
ATOM     11  C   UNL     1      -3.414  -2.875   1.137  0.00  0.00    +0.252 C 
ATOM     12  O   UNL     1      -4.617  -3.036   1.062  0.00  0.00    -0.270 OA
ENDROOT
BRANCH  11  13
ATOM     13  C   UNL     1      -2.779  -2.648   2.452  0.00  0.00    +0.037 A 
ATOM     14  C   UNL     1      -1.553  -1.985   2.534  0.00  0.00    +0.015 A 
ATOM     15  C   UNL     1      -0.966  -1.776   3.765  0.00  0.00    +0.029 A 
ATOM     16  C   UNL     1      -1.590  -2.223   4.916  0.00  0.00    +0.106 A 
ATOM     17  C   UNL     1      -2.804  -2.881   4.842  0.00  0.00    +0.029 A 
ATOM     18  C   UNL     1      -3.405  -3.091   3.618  0.00  0.00    +0.015 A 
BRANCH  16  19
ATOM     19  S   UNL     1      -0.833  -1.952   6.484  0.00  0.00    +0.061 S 
ATOM     20  O   UNL     1      -1.349  -2.944   7.361  0.00  0.00    -0.153 OA
ATOM     21  O   UNL     1       0.559  -1.798   6.242  0.00  0.00    -0.153 OA
BRANCH  19  22
ATOM     22  N   UNL     1      -1.380  -0.493   7.047  0.00  0.00    -0.177 NA
ATOM     23  C   UNL     1      -2.593  -0.432   7.865  0.00  0.00    +0.132 C 
BRANCH  22  24
ATOM     24  C   UNL     1      -0.650   0.736   6.726  0.00  0.00    +0.080 C 
ATOM     25  C   UNL     1      -1.083   2.020   7.435  0.00  0.00    +0.022 C 
ATOM     26  C   UNL     1      -1.400   1.821   5.951  0.00  0.00    +0.022 C 
ENDBRANCH  22  24
ENDBRANCH  19  22
ENDBRANCH  16  19
ENDBRANCH  11  13
BRANCH   8  27
ATOM     27  O   UNL     1      -7.028  -3.555  -4.213  0.00  0.00    -0.494 OA
ATOM     28  C   UNL     1      -7.866  -3.705  -5.362  0.00  0.00    +0.277 C 
ENDBRANCH   8  27
BRANCH   5  29
ATOM     29  O   UNL     1      -1.607  -3.238  -5.116  0.00  0.00    -0.493 OA
ATOM     30  C   UNL     1      -1.189  -3.317  -6.480  0.00  0.00    +0.277 C 
ENDBRANCH   5  29
BRANCH   1  31
ATOM     31  C   UNL     1      -1.203  -2.784   0.117  0.00  0.00    +0.097 C 
BRANCH  31  32
ATOM     32  C   UNL     1      -0.770  -1.401  -0.372  0.00  0.00    -0.060 C 
BRANCH  32  34
ATOM     33  C   UNL     1       1.111  -0.050  -0.998  0.00  0.00    -0.097 C 
ATOM     34  N   UNL     1       0.696  -1.330  -0.408  0.00  0.00    +0.377 N 
ATOM     35  C   UNL     1       1.226  -1.435   0.958  0.00  0.00    -0.097 C 
ATOM     36  H   UNL     1       1.056  -2.090  -0.967  0.00  0.00    -0.083 HD
ENDBRANCH  32  34
ENDBRANCH  31  32
ENDBRANCH   1  31
TORSDOF 9
