REMARK  Name = ZINC39946794
REMARK  7 active torsions:
REMARK  status: ('A' for Active; 'I' for Inactive)
REMARK    1  A    between atoms: C_1  and  C_2
REMARK    2  A    between atoms: C_2  and  C_3
REMARK    3  A    between atoms: C_10  and  C_12
REMARK    4  A    between atoms: C_12  and  S_13
REMARK    5  A    between atoms: S_13  and  C_14
REMARK    6  A    between atoms: C_18  and  C_27
REMARK    7  A    between atoms: N_19  and  C_20
REMARK                            x       y       z     vdW  Elec       q    Type
REMARK                         _______ _______ _______ _____ _____    ______ ____
ROOT
ATOM      1  C   UNL     1      -2.005   2.564   5.590  0.00  0.00    +0.241 C 
ATOM      2  N   UNL     1      -2.421   1.296   6.211  0.00  0.00    -0.237 N 
ATOM      3  N   UNL     1      -3.755   1.462   6.599  0.00  0.00    -0.169 NA
ATOM      4  C   UNL     1      -4.193   2.655   6.294  0.00  0.00    +0.151 C 
ATOM      5  N   UNL     1      -3.200   3.420   5.670  0.00  0.00    -0.254 N 
ATOM      6  H   UNL     1      -1.877   0.501   6.329  0.00  0.00    +0.171 HD
ENDROOT
BRANCH   4   7
ATOM      7  C   UNL     1      -5.493   3.113   6.559  0.00  0.00    +0.022 C 
ATOM      8  C   UNL     1      -6.494   2.447   7.268  0.00  0.00    +0.006 A 
ATOM      9  C   UNL     1      -6.533   1.189   7.907  0.00  0.00    +0.010 A 
ATOM     10  C   UNL     1      -7.668   0.789   8.536  0.00  0.00    +0.001 A 
ATOM     11  C   UNL     1      -8.809   1.594   8.569  0.00  0.00    +0.002 A 
ATOM     12  C   UNL     1      -8.841   2.813   7.977  0.00  0.00    +0.026 A 
ATOM     13  C   UNL     1      -7.693   3.300   7.301  0.00  0.00    +0.043 A 
ATOM     14  N   UNL     1      -7.473   4.430   6.657  0.00  0.00    -0.380 N 
ATOM     15  C   UNL     1      -6.101   4.434   6.142  0.00  0.00    +0.152 C 
ATOM     16  H   UNL     1      -8.117   5.147   6.546  0.00  0.00    +0.160 HD
ENDBRANCH   4   7
BRANCH   5  17
ATOM     17  C   UNL     1      -3.317   4.735   5.213  0.00  0.00    +0.038 A 
ATOM     18  C   UNL     1      -2.715   5.772   5.914  0.00  0.00    +0.025 A 
ATOM     19  C   UNL     1      -2.833   7.071   5.460  0.00  0.00    +0.022 A 
ATOM     20  C   UNL     1      -3.551   7.340   4.308  0.00  0.00    +0.041 A 
ATOM     21  C   UNL     1      -4.153   6.309   3.607  0.00  0.00    +0.022 A 
ATOM     22  C   UNL     1      -4.032   5.008   4.053  0.00  0.00    +0.025 A 
ATOM     23 CL   UNL     1      -3.698   8.974   3.740  0.00  0.00    -0.084 Cl
ENDBRANCH   5  17
BRANCH   1  24
ATOM     24  S   UNL     1      -1.531   2.297   3.859  0.00  0.00    -0.108 S 
BRANCH  24  25
ATOM     25  C   UNL     1      -3.002   1.543   3.113  0.00  0.00    +0.168 C 
BRANCH  25  32
ATOM     26  C   UNL     1      -3.423   0.327  -0.500  0.00  0.00    +0.076 C 
ATOM     27  C   UNL     1      -3.798  -1.145  -0.700  0.00  0.00    +0.022 C 
ATOM     28  C   UNL     1      -5.250  -1.360  -0.267  0.00  0.00    +0.003 C 
ATOM     29  C   UNL     1      -5.396  -1.022   1.218  0.00  0.00    +0.019 C 
ATOM     30  C   UNL     1      -5.039   0.452   1.440  0.00  0.00    +0.108 C 
ATOM     31  N   UNL     1      -3.699   0.704   0.893  0.00  0.00    -0.298 N 
ATOM     32  C   UNL     1      -2.740   1.266   1.655  0.00  0.00    +0.226 C 
ATOM     33  O   UNL     1      -1.666   1.549   1.167  0.00  0.00    -0.275 OA
BRANCH  26  35
ATOM     34  C   UNL     1      -1.649   0.119  -2.247  0.00  0.00    +0.006 C 
ATOM     35  C   UNL     1      -1.935   0.522  -0.799  0.00  0.00    +0.019 C 
ENDBRANCH  26  35
ENDBRANCH  25  32
ENDBRANCH  24  25
ENDBRANCH   1  24
TORSDOF 6
