REMARK  Name = ZINC04335459
REMARK  4 active torsions:
REMARK  status: ('A' for Active; 'I' for Inactive)
REMARK    1  A    between atoms: C_4  and  C_7
REMARK    2  A    between atoms: C_10  and  C_13
REMARK    3  A    between atoms: N_15  and  C_16
REMARK    4  A    between atoms: C_17  and  C_24
REMARK                            x       y       z     vdW  Elec       q    Type
REMARK                         _______ _______ _______ _____ _____    ______ ____
ROOT
ATOM      1  C   UNL     1       1.681   2.078  -0.003  0.00  0.00    +0.085 A 
ATOM      2  C   UNL     1       2.230   0.806  -0.015  0.00  0.00    +0.069 A 
ATOM      3  C   UNL     1       1.307  -0.329  -0.013  0.00  0.00    -0.023 A 
ATOM      4  C   UNL     1       0.002  -0.004   0.002  0.00  0.00    -0.004 A 
ATOM      5  S   UNL     1      -0.022   1.772   0.012  0.00  0.00    -0.077 S 
ATOM      6  C   UNL     1      -0.882  -1.221   0.007  0.00  0.00    +0.043 C 
ATOM      7  C   UNL     1       0.050  -2.378   0.429  0.00  0.00    +0.010 C 
ATOM      8  C   UNL     1       1.427  -1.854  -0.025  0.00  0.00    +0.037 C 
ENDROOT
BRANCH   2   9
ATOM      9  C   UNL     1       3.681   0.605  -0.030  0.00  0.00    +0.254 C 
ATOM     10  O   UNL     1       4.274   0.527  -1.090  0.00  0.00    -0.270 OA
ATOM     11  N   UNL     1       4.359   0.505   1.130  0.00  0.00    -0.236 N 
ATOM     12  C   UNL     1       5.694   0.320   1.117  0.00  0.00    +0.304 C 
ATOM     13  O   UNL     1       6.286   0.243   0.058  0.00  0.00    -0.253 OA
ATOM     14  N   UNL     1       6.372   0.221   2.277  0.00  0.00    -0.313 N 
ATOM     15  H   UNL     1       3.887   0.567   1.975  0.00  0.00    +0.159 HD
ATOM     16  H   UNL     1       5.900   0.283   3.122  0.00  0.00    +0.146 HD
ATOM     17  H   UNL     1       7.333   0.088   2.268  0.00  0.00    +0.146 HD
ENDBRANCH   2   9
BRANCH   1  20
ATOM     18  C   UNL     1       1.627   4.444   0.010  0.00  0.00    +0.249 C 
ATOM     19  O   UNL     1       0.412   4.407   0.022  0.00  0.00    -0.270 OA
ATOM     20  N   UNL     1       2.337   3.298  -0.003  0.00  0.00    -0.275 N 
ATOM     21  H   UNL     1       3.306   3.328  -0.012  0.00  0.00    +0.156 HD
BRANCH  18  25
ATOM     22  C   UNL     1       3.638   8.188   0.011  0.00  0.00    -0.018 A 
ATOM     23  C   UNL     1       2.244   8.145   0.025  0.00  0.00    +0.009 A 
ATOM     24  C   UNL     1       1.591   6.933   0.024  0.00  0.00    +0.013 A 
ATOM     25  C   UNL     1       2.326   5.745   0.011  0.00  0.00    +0.037 A 
ATOM     26  C   UNL     1       3.723   5.788   0.003  0.00  0.00    +0.013 A 
ATOM     27  C   UNL     1       4.373   7.002  -0.002  0.00  0.00    +0.009 A 
BRANCH  22  31
ATOM     28  C   UNL     1       5.650  11.933   0.012  0.00  0.00    +0.000 A 
ATOM     29  C   UNL     1       6.381  10.758  -0.002  0.00  0.00    +0.001 A 
ATOM     30  C   UNL     1       5.733   9.540  -0.002  0.00  0.00    +0.008 A 
ATOM     31  C   UNL     1       4.340   9.494   0.011  0.00  0.00    -0.018 A 
ATOM     32  C   UNL     1       3.609  10.681   0.019  0.00  0.00    +0.008 A 
ATOM     33  C   UNL     1       4.267  11.893   0.025  0.00  0.00    +0.001 A 
ENDBRANCH  22  31
ENDBRANCH  18  25
ENDBRANCH   1  20
TORSDOF 4
