REMARK  Name = ZINC14474083
REMARK  8 active torsions:
REMARK  status: ('A' for Active; 'I' for Inactive)
REMARK    1  A    between atoms: C_1  and  C_2
REMARK    2  A    between atoms: C_2  and  C_3
REMARK    3  A    between atoms: C_2  and  C_4
REMARK    4  A    between atoms: C_2  and  N_5
REMARK    5  A    between atoms: N_5  and  S_6
REMARK    6  A    between atoms: S_6  and  C_9
REMARK    7  A    between atoms: C_22  and  C_25
REMARK    8  A    between atoms: C_30  and  O_31
REMARK                            x       y       z     vdW  Elec       q    Type
REMARK                         _______ _______ _______ _____ _____    ______ ____
ROOT
ATOM      1  C   UNL     1      -5.183   3.433   2.242  0.00  0.00    +0.106 A 
ATOM      2  C   UNL     1      -5.546   2.990   3.500  0.00  0.00    +0.030 A 
ATOM      3  C   UNL     1      -4.595   2.472   4.354  0.00  0.00    +0.025 A 
ATOM      4  C   UNL     1      -3.265   2.392   3.958  0.00  0.00    +0.031 A 
ATOM      5  C   UNL     1      -2.901   2.846   2.692  0.00  0.00    -0.018 A 
ATOM      6  C   UNL     1      -3.864   3.353   1.835  0.00  0.00    +0.034 A 
ATOM      7  C   UNL     1      -1.485   2.709   2.286  0.00  0.00    +0.049 C 
ATOM      8  C   UNL     1      -0.868   3.608   1.276  0.00  0.00    -0.023 C 
ATOM      9  C   UNL     1       0.413   3.771   1.581  0.00  0.00    -0.030 C 
ATOM     10  C   UNL     1       0.748   3.005   2.862  0.00  0.00    +0.033 C 
ATOM     11  C   UNL     1      -0.618   2.954   3.558  0.00  0.00    +0.029 C 
ATOM     12  C   UNL     1      -0.889   1.768   4.467  0.00  0.00    +0.108 C 
ATOM     13  N   UNL     1      -2.315   1.877   4.848  0.00  0.00    -0.336 N 
ATOM     14  H   UNL     1      -2.596   1.587   5.730  0.00  0.00    +0.147 HD
ENDROOT
BRANCH  12  15
ATOM     15  C   UNL     1      -0.642   0.478   3.728  0.00  0.00    +0.014 A 
ATOM     16  C   UNL     1      -1.691  -0.181   3.118  0.00  0.00    +0.009 A 
ATOM     17  C   UNL     1      -1.465  -1.364   2.439  0.00  0.00    +0.001 A 
ATOM     18  C   UNL     1      -0.188  -1.891   2.370  0.00  0.00    +0.004 A 
ATOM     19  C   UNL     1       0.864  -1.236   2.979  0.00  0.00    +0.046 A 
ATOM     20  C   UNL     1       0.641  -0.045   3.656  0.00  0.00    +0.122 A 
BRANCH  20  21
ATOM     21  O   UNL     1       1.675   0.604   4.251  0.00  0.00    -0.506 OA
ATOM     22  H   UNL     1       1.832   0.339   5.168  0.00  0.00    +0.292 HD
ENDBRANCH  20  21
ENDBRANCH  12  15
BRANCH   1  23
ATOM     23  S   UNL     1      -6.401   4.100   1.157  0.00  0.00    +0.059 S 
ATOM     24  O   UNL     1      -6.062   3.663  -0.152  0.00  0.00    -0.153 OA
ATOM     25  O   UNL     1      -7.664   3.828   1.748  0.00  0.00    -0.153 OA
BRANCH  23  26
ATOM     26  N   UNL     1      -6.217   5.746   1.168  0.00  0.00    -0.185 NA
ATOM     27  H   UNL     1      -5.918   6.206   0.368  0.00  0.00    +0.149 HD
BRANCH  26  29
ATOM     28  C   UNL     1      -5.636   5.990   3.531  0.00  0.00    +0.029 C 
ATOM     29  C   UNL     1      -6.508   6.507   2.385  0.00  0.00    +0.032 C 
ATOM     30  C   UNL     1      -6.208   7.988   2.145  0.00  0.00    +0.029 C 
ATOM     31  C   UNL     1      -7.984   6.339   2.752  0.00  0.00    +0.029 C 
ENDBRANCH  26  29
ENDBRANCH  23  26
ENDBRANCH   1  23
TORSDOF 5
