REMARK  Name = ZINC40176957
REMARK  4 active torsions:
REMARK  status: ('A' for Active; 'I' for Inactive)
REMARK    1  A    between atoms: C_12  and  C_14
REMARK    2  A    between atoms: C_16  and  S_21
REMARK    3  A    between atoms: C_19  and  O_20
REMARK    4  A    between atoms: S_21  and  N_24
REMARK                            x       y       z     vdW  Elec       q    Type
REMARK                         _______ _______ _______ _____ _____    ______ ____
ROOT
ATOM      1  C   UNL     1       7.711   3.569  -0.050  0.00  0.00    +0.080 A 
ATOM      2  C   UNL     1       8.761   2.648  -0.070  0.00  0.00    +0.045 A 
ATOM      3  C   UNL     1      10.065   3.094  -0.079  0.00  0.00    +0.106 A 
ATOM      4  C   UNL     1      10.340   4.452  -0.068  0.00  0.00    +0.032 A 
ATOM      5  C   UNL     1       9.312   5.373  -0.048  0.00  0.00    +0.048 A 
ATOM      6  C   UNL     1       7.993   4.942  -0.045  0.00  0.00    +0.129 A 
ENDROOT
BRANCH   1  18
ATOM      7  C   UNL     1      -0.017   1.385   0.010  0.00  0.00    +0.040 A 
ATOM      8  C   UNL     1       1.142   2.116   0.003  0.00  0.00    +0.032 A 
ATOM      9  C   UNL     1       2.402   1.475  -0.013  0.00  0.00    +0.080 A 
ATOM     10  C   UNL     1       2.384   0.061  -0.020  0.00  0.00    +0.043 A 
ATOM     11  C   UNL     1       1.219  -0.665  -0.013  0.00  0.00    +0.055 A 
ATOM     12  C   UNL     1       0.002  -0.004   0.002  0.00  0.00    +0.125 A 
ATOM     13  F   UNL     1      -1.154  -0.703   0.010  0.00  0.00    -0.205 F 
ATOM     14  S   UNL     1       4.114  -0.339  -0.038  0.00  0.00    -0.052 S 
ATOM     15  C   UNL     1       4.733   1.337  -0.035  0.00  0.00    +0.166 A 
ATOM     16  N   UNL     1       3.628   2.044  -0.021  0.00  0.00    -0.225 NA
ATOM     17  N   UNL     1       6.046   1.778  -0.044  0.00  0.00    -0.261 N 
ATOM     18  C   UNL     1       6.313   3.099  -0.040  0.00  0.00    +0.253 C 
ATOM     19  O   UNL     1       5.401   3.904  -0.028  0.00  0.00    -0.270 OA
ATOM     20  H   UNL     1       6.773   1.137  -0.054  0.00  0.00    +0.157 HD
ENDBRANCH   1  18
BRANCH   3  21
ATOM     21  S   UNL     1      11.389   1.931  -0.104  0.00  0.00    +0.061 S 
ATOM     22  O   UNL     1      12.522   2.594   0.442  0.00  0.00    -0.153 OA
ATOM     23  O   UNL     1      10.878   0.722   0.441  0.00  0.00    -0.153 OA
BRANCH  21  24
ATOM     24  N   UNL     1      11.741   1.624  -1.692  0.00  0.00    -0.177 NA
ATOM     25  C   UNL     1      11.130   0.571  -2.517  0.00  0.00    +0.109 C 
ATOM     26  C   UNL     1      11.782   0.646  -3.913  0.00  0.00    +0.018 C 
ATOM     27  C   UNL     1      13.126   1.367  -3.631  0.00  0.00    +0.018 C 
ATOM     28  C   UNL     1      12.713   2.365  -2.516  0.00  0.00    +0.109 C 
ENDBRANCH  21  24
ENDBRANCH   3  21
BRANCH   6  29
ATOM     29  O   UNL     1       6.981   5.846  -0.032  0.00  0.00    -0.506 OA
ATOM     30  H   UNL     1       6.696   6.103   0.856  0.00  0.00    +0.292 HD
ENDBRANCH   6  29
TORSDOF 4
