REMARK  Name = ZINC39359178
REMARK  9 active torsions:
REMARK  status: ('A' for Active; 'I' for Inactive)
REMARK    1  A    between atoms: C_1  and  O_2
REMARK    2  A    between atoms: O_2  and  C_3
REMARK    3  A    between atoms: C_5  and  C_13
REMARK    4  A    between atoms: C_6  and  O_11
REMARK    5  A    between atoms: C_8  and  O_9
REMARK    6  A    between atoms: O_9  and  C_10
REMARK    7  A    between atoms: O_11  and  C_12
REMARK    8  A    between atoms: C_16  and  O_35
REMARK    9  A    between atoms: C_27  and  C_30
REMARK                            x       y       z     vdW  Elec       q    Type
REMARK                         _______ _______ _______ _____ _____    ______ ____
ROOT
ATOM      1  C   UNL     1       2.401   0.384  -4.230  0.00  0.00    +0.092 C 
ATOM      2  C   UNL     1       3.456   1.281  -3.655  0.00  0.00    +0.049 C 
ATOM      3  C   UNL     1       4.770   1.251  -3.613  0.00  0.00    +0.235 C 
ATOM      4  N   UNL     1       5.250   2.404  -3.071  0.00  0.00    -0.114 NA
ATOM      5  N   UNL     1       4.375   3.197  -2.700  0.00  0.00    -0.157 NA
ATOM      6  C   UNL     1       3.070   2.576  -2.933  0.00  0.00    +0.245 C 
ATOM      7  N   UNL     1       2.261   3.301  -3.915  0.00  0.00    -0.321 N 
ATOM      8  C   UNL     1       1.326   2.618  -4.654  0.00  0.00    +0.014 C 
ATOM      9  C   UNL     1       1.343   1.282  -4.854  0.00  0.00    +0.024 C 
ATOM     10  C   UNL     1       0.379   0.647  -5.655  0.00  0.00    +0.162 C 
ATOM     11  O   UNL     1       0.431  -0.558  -5.803  0.00  0.00    -0.292 OA
ATOM     12  C   UNL     1      -0.716   1.423  -6.333  0.00  0.00    +0.088 C 
ATOM     13  C   UNL     1      -0.220   2.849  -6.595  0.00  0.00    +0.039 C 
ATOM     14  C   UNL     1       0.221   3.461  -5.258  0.00  0.00    +0.060 C 
ATOM     15  H   UNL     1       2.383   4.255  -4.042  0.00  0.00    +0.148 HD
ENDROOT
BRANCH   1  18
ATOM     16  C   UNL     1       0.607  -0.608  -1.057  0.00  0.00    +0.162 A 
ATOM     17  C   UNL     1       1.173   0.160  -2.062  0.00  0.00    +0.057 A 
ATOM     18  C   UNL     1       1.787  -0.453  -3.138  0.00  0.00    +0.010 A 
ATOM     19  C   UNL     1       1.838  -1.837  -3.214  0.00  0.00    +0.128 A 
ATOM     20  C   UNL     1       1.272  -2.609  -2.211  0.00  0.00    +0.095 A 
ATOM     21  C   UNL     1       0.661  -1.996  -1.129  0.00  0.00    +0.165 A 
BRANCH  16  23
ATOM     22  C   UNL     1      -0.017   1.425   0.010  0.00  0.00    +0.277 C 
ATOM     23  O   UNL     1       0.002  -0.004   0.002  0.00  0.00    -0.491 OA
ENDBRANCH  16  23
BRANCH  21  24
ATOM     24  O   UNL     1       0.112  -2.751  -0.140  0.00  0.00    -0.491 OA
ATOM     25  C   UNL     1       0.205  -4.170  -0.279  0.00  0.00    +0.277 C 
ENDBRANCH  21  24
BRANCH  19  26
ATOM     26  O   UNL     1       2.442  -2.437  -4.274  0.00  0.00    -0.495 OA
ATOM     27  C   UNL     1       2.458  -3.866  -4.288  0.00  0.00    +0.277 C 
ENDBRANCH  19  26
ENDBRANCH   1  18
BRANCH  13  28
ATOM     28  C   UNL     1      -1.334   3.673  -7.187  0.00  0.00    -0.006 A 
ATOM     29  C   UNL     1      -1.383   4.308  -8.384  0.00  0.00    +0.011 A 
ATOM     30  C   UNL     1      -2.522   5.013  -8.723  0.00  0.00    +0.008 A 
ATOM     31  C   UNL     1      -3.558   5.049  -7.849  0.00  0.00    +0.045 A 
ATOM     32  S   UNL     1      -2.935   4.060  -6.499  0.00  0.00    -0.101 S 
ENDBRANCH  13  28
BRANCH   3  33
ATOM     33  O   UNL     1       5.538   0.217  -4.047  0.00  0.00    -0.491 OA
ATOM     34  H   UNL     1       6.488   0.361  -3.941  0.00  0.00    +0.294 HD
ENDBRANCH   3  33
TORSDOF 6
