REMARK  Name = ZINC02946022
REMARK  11 active torsions:
REMARK  status: ('A' for Active; 'I' for Inactive)
REMARK    1  A    between atoms: C_1  and  C_2
REMARK    2  A    between atoms: C_2  and  O_3
REMARK    3  A    between atoms: O_3  and  C_4
REMARK    4  A    between atoms: C_7  and  C_26
REMARK    5  A    between atoms: C_9  and  C_10
REMARK    6  A    between atoms: C_10  and  N_68
REMARK    7  A    between atoms: N_27  and  N_28
REMARK    8  A    between atoms: C_29  and  C_31
REMARK    9  A    between atoms: C_33  and  O_39
REMARK   10  A    between atoms: C_34  and  O_38
REMARK   11  A    between atoms: C_35  and  O_37
REMARK                            x       y       z     vdW  Elec       q    Type
REMARK                         _______ _______ _______ _____ _____    ______ ____
ROOT
ATOM      1  C   UNL     1      -4.271  -0.885   1.458  0.00  0.00    +0.122 A 
ATOM      2  C   UNL     1      -4.372  -2.260   1.625  0.00  0.00    +0.046 A 
ATOM      3  C   UNL     1      -4.605  -3.073   0.536  0.00  0.00    +0.013 A 
ATOM      4  C   UNL     1      -4.739  -2.511  -0.736  0.00  0.00    -0.005 A 
ATOM      5  C   UNL     1      -4.641  -1.127  -0.898  0.00  0.00    +0.014 A 
ATOM      6  C   UNL     1      -4.403  -0.322   0.195  0.00  0.00    -0.022 A 
ENDROOT
BRANCH   4   7
ATOM      7  C   UNL     1      -4.989  -3.376  -1.903  0.00  0.00    +0.138 C 
ATOM      8  N   UNL     1      -5.085  -4.662  -1.750  0.00  0.00    -0.187 NA
BRANCH   8   9
ATOM      9  N   UNL     1      -5.323  -5.484  -2.859  0.00  0.00    -0.203 N 
ATOM     10  C   UNL     1      -5.422  -6.818  -2.700  0.00  0.00    +0.263 C 
ATOM     11  O   UNL     1      -5.306  -7.309  -1.593  0.00  0.00    -0.268 OA
ATOM     12  H   UNL     1      -5.416  -5.092  -3.742  0.00  0.00    +0.178 HD
BRANCH  10  13
ATOM     13  C   UNL     1      -5.672  -7.684  -3.868  0.00  0.00    +0.045 A 
ATOM     14  C   UNL     1      -5.812  -7.121  -5.139  0.00  0.00    +0.062 A 
ATOM     15  C   UNL     1      -6.041  -7.935  -6.233  0.00  0.00    +0.163 A 
ATOM     16  C   UNL     1      -6.143  -9.314  -6.067  0.00  0.00    +0.201 A 
ATOM     17  C   UNL     1      -6.010  -9.877  -4.801  0.00  0.00    +0.163 A 
ATOM     18  C   UNL     1      -5.776  -9.068  -3.705  0.00  0.00    +0.062 A 
BRANCH  17  19
ATOM     19  O   UNL     1      -6.111 -11.224  -4.642  0.00  0.00    -0.503 OA
ATOM     20  H   UNL     1      -7.011 -11.533  -4.469  0.00  0.00    +0.292 HD
ENDBRANCH  17  19
BRANCH  16  21
ATOM     21  O   UNL     1      -6.373 -10.111  -7.143  0.00  0.00    -0.501 OA
ATOM     22  H   UNL     1      -7.310 -10.262  -7.328  0.00  0.00    +0.292 HD
ENDBRANCH  16  21
BRANCH  15  23
ATOM     23  O   UNL     1      -6.171  -7.388  -7.472  0.00  0.00    -0.503 OA
ATOM     24  H   UNL     1      -7.079  -7.150  -7.703  0.00  0.00    +0.292 HD
ENDBRANCH  15  23
ENDBRANCH  10  13
ENDBRANCH   8   9
ENDBRANCH   4   7
BRANCH   1  25
ATOM     25  O   UNL     1      -4.042  -0.087   2.534  0.00  0.00    -0.492 OA
BRANCH  25  27
ATOM     26  C   UNL     1      -3.662   0.320   4.886  0.00  0.00    +0.048 C 
ATOM     27  C   UNL     1      -3.916  -0.731   3.804  0.00  0.00    +0.225 C 
ENDBRANCH  25  27
ENDBRANCH   1  25
BRANCH   6  28
ATOM     28  C   UNL     1      -4.292   1.171   0.021  0.00  0.00    -0.039 C 
BRANCH  28  42
ATOM     29  C   UNL     1      -2.203   1.140   1.240  0.00  0.00    -0.073 C 
ATOM     30  C   UNL     1      -0.748   1.589   1.253  0.00  0.00    -0.007 C 
ATOM     31  C   UNL     1      -0.013   1.086   0.008  0.00  0.00    +0.011 C 
ATOM     32  C   UNL     1      -0.773   1.603  -1.219  0.00  0.00    +0.020 C 
ATOM     33  C   UNL     1      -2.194   1.016  -1.180  0.00  0.00    -0.069 C 
ATOM     34  C   UNL     1      -0.901   3.107  -1.127  0.00  0.00    +0.023 A 
ATOM     35  C   UNL     1      -1.021   3.795  -2.293  0.00  0.00    +0.022 A 
ATOM     36  C   UNL     1      -1.206   5.182  -2.285  0.00  0.00    +0.007 A 
ATOM     37  C   UNL     1      -1.283   5.829  -1.086  0.00  0.00    +0.070 A 
ATOM     38  C   UNL     1      -1.152   5.090   0.099  0.00  0.00    +0.251 A 
ATOM     39  O   UNL     1      -1.265   5.651   1.177  0.00  0.00    -0.268 OA
ATOM     40  N   UNL     1      -0.901   3.757   0.061  0.00  0.00    -0.312 N 
ATOM     41  C   UNL     1      -0.621   3.100   1.338  0.00  0.00    +0.126 C 
ATOM     42  N   UNL     1      -2.875   1.587   0.004  0.00  0.00    +0.383 N 
ATOM     43  H   UNL     1      -2.829   2.612  -0.048  0.00  0.00    -0.081 HD
ENDBRANCH  28  42
ENDBRANCH   6  28
TORSDOF 10
