REMARK  Name = ZINC12887884
REMARK  7 active torsions:
REMARK  status: ('A' for Active; 'I' for Inactive)
REMARK    1  A    between atoms: C_1  and  C_2
REMARK    2  A    between atoms: C_13  and  C_15
REMARK    3  A    between atoms: C_15  and  C_16
REMARK    4  A    between atoms: N_28  and  C_31
REMARK    5  A    between atoms: C_31  and  C_32
REMARK    6  A    between atoms: C_32  and  O_33
REMARK    7  A    between atoms: O_33  and  C_34
REMARK                            x       y       z     vdW  Elec       q    Type
REMARK                         _______ _______ _______ _____ _____    ______ ____
ROOT
ATOM      1  C   UNL     1      -1.488   1.392  -4.444  0.00  0.00    +0.044 C 
ATOM      2  C   UNL     1      -0.892   0.143  -3.846  0.00  0.00    -0.050 A 
ATOM      3  C   UNL     1      -1.358  -1.100  -4.231  0.00  0.00    +0.005 A 
ATOM      4  C   UNL     1      -0.817  -2.246  -3.686  0.00  0.00    +0.024 A 
ATOM      5  C   UNL     1       0.205  -2.159  -2.744  0.00  0.00    +0.036 A 
ATOM      6  C   UNL     1       0.667  -0.902  -2.364  0.00  0.00    -0.027 A 
ATOM      7  C   UNL     1       0.122   0.239  -2.910  0.00  0.00    +0.008 A 
ATOM      8  C   UNL     1       1.751  -1.151  -1.354  0.00  0.00    +0.050 C 
ATOM      9  C   UNL     1       1.435  -0.487  -0.009  0.00  0.00    +0.088 C 
ATOM     10  C   UNL     1       2.257   0.831  -0.017  0.00  0.00    +0.073 C 
ATOM     11  C   UNL     1       2.967   0.845  -1.388  0.00  0.00    -0.053 C 
ATOM     12  C   UNL     1       1.194   1.906   0.001  0.00  0.00    +0.224 C 
ATOM     13  O   UNL     1       1.404   3.100   0.007  0.00  0.00    -0.275 OA
ATOM     14  N   UNL     1      -0.016   1.334   0.009  0.00  0.00    -0.240 N 
ATOM     15  C   UNL     1       0.002  -0.004   0.002  0.00  0.00    +0.225 C 
ATOM     16  O   UNL     1      -0.978  -0.718   0.004  0.00  0.00    -0.275 OA
ATOM     17  C   UNL     1       1.827  -2.648  -1.223  0.00  0.00    +0.211 C 
ATOM     18  O   UNL     1       2.577  -3.274  -0.505  0.00  0.00    -0.277 OA
ATOM     19  N   UNL     1       0.902  -3.157  -2.059  0.00  0.00    -0.286 N 
ATOM     20  H   UNL     1       0.740  -4.106  -2.173  0.00  0.00    +0.155 HD
ATOM     21  N   UNL     1       3.012  -0.567  -1.776  0.00  0.00    +0.394 N 
ATOM     22  H   UNL     1       3.120  -0.652  -2.794  0.00  0.00    -0.083 HD
ATOM     23  H   UNL     1       3.796  -1.038  -1.309  0.00  0.00    -0.083 HD
ENDROOT
BRANCH  11  24
ATOM     24  C   UNL     1       4.373   1.432  -1.254  0.00  0.00    +0.022 C 
BRANCH  24  25
ATOM     25  C   UNL     1       5.030   1.478  -2.609  0.00  0.00    -0.024 A 
ATOM     26  C   UNL     1       5.852   0.553  -3.130  0.00  0.00    +0.087 A 
ATOM     27  N   UNL     1       6.252   0.936  -4.381  0.00  0.00    -0.360 N 
ATOM     28  H   UNL     1       6.848   0.429  -4.955  0.00  0.00    +0.165 HD
ATOM     29  C   UNL     1       5.683   2.147  -4.704  0.00  0.00    +0.047 A 
ATOM     30  C   UNL     1       4.888   2.537  -3.611  0.00  0.00    +0.003 A 
ATOM     31  C   UNL     1       4.179   3.738  -3.659  0.00  0.00    +0.010 A 
ATOM     32  C   UNL     1       4.257   4.528  -4.771  0.00  0.00    +0.001 A 
ATOM     33  C   UNL     1       5.037   4.146  -5.854  0.00  0.00    +0.002 A 
ATOM     34  C   UNL     1       5.752   2.969  -5.824  0.00  0.00    +0.026 A 
ENDBRANCH  24  25
ENDBRANCH  11  24
BRANCH  14  35
ATOM     35  C   UNL     1      -1.259   2.109   0.020  0.00  0.00    +0.144 C 
BRANCH  35  36
ATOM     36  C   UNL     1      -1.685   2.371   1.466  0.00  0.00    +0.179 C 
BRANCH  36  37
ATOM     37  O   UNL     1      -0.715   3.204   2.104  0.00  0.00    -0.381 OA
ATOM     38  C   UNL     1      -1.019   3.511   3.466  0.00  0.00    +0.194 C 
ENDBRANCH  36  37
ENDBRANCH  35  36
ENDBRANCH  14  35
TORSDOF 5
