REMARK  Name = ZINC08992424
REMARK  7 active torsions:
REMARK  status: ('A' for Active; 'I' for Inactive)
REMARK    1  A    between atoms: C_1  and  C_2
REMARK    2  A    between atoms: C_5  and  N_17
REMARK    3  A    between atoms: C_14  and  C_16
REMARK    4  A    between atoms: N_17  and  C_18
REMARK    5  A    between atoms: C_24  and  C_26
REMARK    6  A    between atoms: C_26  and  N_65
REMARK    7  A    between atoms: C_29  and  C_32
REMARK                            x       y       z     vdW  Elec       q    Type
REMARK                         _______ _______ _______ _____ _____    ______ ____
ROOT
ATOM      1  N   UNL     1       2.364   3.969  -0.788  0.00  0.00    -0.265 N 
ATOM      2  C   UNL     1       3.248   3.263  -0.056  0.00  0.00    +0.204 C 
ATOM      3  O   UNL     1       4.169   3.829   0.494  0.00  0.00    -0.277 OA
ENDROOT
BRANCH   1   7
ATOM      4  C   UNL     1       5.401   7.332  -2.770  0.00  0.00    +0.028 C 
ATOM      5  C   UNL     1       4.173   7.100  -1.888  0.00  0.00    +0.081 C 
ATOM      6  C   UNL     1       3.845   5.602  -1.838  0.00  0.00    +0.050 C 
ATOM      7  C   UNL     1       2.575   5.402  -1.011  0.00  0.00    +0.115 C 
ATOM      8  C   UNL     1       2.696   6.098   0.319  0.00  0.00    -0.005 A 
ATOM      9  C   UNL     1       1.875   5.700   1.361  0.00  0.00    +0.007 A 
ATOM     10  C   UNL     1       1.959   6.322   2.591  0.00  0.00    +0.000 A 
ATOM     11  C   UNL     1       2.866   7.348   2.791  0.00  0.00    +0.002 A 
ATOM     12  C   UNL     1       3.689   7.748   1.758  0.00  0.00    +0.024 A 
ATOM     13  C   UNL     1       3.607   7.123   0.519  0.00  0.00    +0.041 A 
ATOM     14  N   UNL     1       4.454   7.544  -0.516  0.00  0.00    -0.268 N 
ATOM     15  C   UNL     1       5.508   8.342  -0.256  0.00  0.00    +0.217 C 
ATOM     16  O   UNL     1       6.019   8.982  -1.151  0.00  0.00    -0.276 OA
ATOM     17  C   UNL     1       6.054   8.437   1.145  0.00  0.00    +0.109 C 
ENDBRANCH   1   7
BRANCH   1  18
ATOM     18  C   UNL     1       1.244   3.333  -1.337  0.00  0.00    +0.037 A 
ATOM     19  C   UNL     1       1.402   2.399  -2.352  0.00  0.00    +0.023 A 
ATOM     20  C   UNL     1       0.295   1.774  -2.892  0.00  0.00    +0.002 A 
ATOM     21  C   UNL     1      -0.970   2.082  -2.426  0.00  0.00    +0.000 A 
ATOM     22  C   UNL     1      -1.130   3.008  -1.411  0.00  0.00    +0.002 A 
ATOM     23  C   UNL     1      -0.027   3.636  -0.868  0.00  0.00    +0.023 A 
ENDBRANCH   1  18
BRANCH   2  24
ATOM     24  C   UNL     1       3.092   1.770   0.081  0.00  0.00    +0.019 C 
BRANCH  24  30
ATOM     25  C   UNL     1       3.942   1.941   2.341  0.00  0.00    -0.077 C 
ATOM     26  C   UNL     1       5.070   1.492   3.272  0.00  0.00    -0.006 C 
ATOM     27  C   UNL     1       4.996  -0.025   3.461  0.00  0.00    +0.071 C 
ATOM     28  C   UNL     1       5.088  -0.707   2.094  0.00  0.00    -0.006 C 
ATOM     29  C   UNL     1       3.960  -0.195   1.196  0.00  0.00    -0.077 C 
ATOM     30  N   UNL     1       4.102   1.268   1.034  0.00  0.00    +0.385 N 
ATOM     31  H   UNL     1       5.038   1.473   0.667  0.00  0.00    -0.081 HD
BRANCH  27  32
ATOM     32  C   UNL     1       6.140  -0.482   4.330  0.00  0.00    +0.213 C 
ATOM     33  O   UNL     1       6.950  -1.275   3.899  0.00  0.00    -0.276 OA
ATOM     34  N   UNL     1       6.263  -0.009   5.586  0.00  0.00    -0.329 N 
ATOM     35  H   UNL     1       5.615   0.625   5.931  0.00  0.00    +0.145 HD
ATOM     36  H   UNL     1       6.999  -0.303   6.145  0.00  0.00    +0.145 HD
ENDBRANCH  27  32
ENDBRANCH  24  30
ENDBRANCH   2  24
TORSDOF 5
