REMARK  Name = ZINC17915703
REMARK  11 active torsions:
REMARK  status: ('A' for Active; 'I' for Inactive)
REMARK    1  A    between atoms: C_1  and  C_2
REMARK    2  A    between atoms: C_2  and  C_3
REMARK    3  A    between atoms: C_3  and  N_4
REMARK    4  A    between atoms: N_4  and  C_5
REMARK    5  A    between atoms: C_5  and  C_6
REMARK    6  A    between atoms: N_8  and  C_9
REMARK    7  A    between atoms: C_18  and  C_20
REMARK    8  A    between atoms: C_20  and  C_21
REMARK    9  A    between atoms: C_21  and  C_22
REMARK   10  A    between atoms: C_22  and  N_23
REMARK   11  A    between atoms: C_27  and  N_33
REMARK                            x       y       z     vdW  Elec       q    Type
REMARK                         _______ _______ _______ _____ _____    ______ ____
ROOT
ATOM      1  N   UNL     1      -4.447   8.580  -3.010  0.00  0.00    -0.293 N 
ATOM      2  C   UNL     1      -3.982   7.339  -2.769  0.00  0.00    +0.216 C 
ATOM      3  O   UNL     1      -3.711   6.602  -3.694  0.00  0.00    -0.276 OA
ENDROOT
BRANCH   1   4
ATOM      4  C   UNL     1      -4.774   9.470  -1.893  0.00  0.00    +0.108 C 
BRANCH   4   6
ATOM      5  C   UNL     1      -3.878  11.213  -0.344  0.00  0.00    +0.005 C 
ATOM      6  C   UNL     1      -3.536  10.284  -1.511  0.00  0.00    +0.016 C 
ENDBRANCH   4   6
ENDBRANCH   1   4
BRANCH   1   7
ATOM      7  C   UNL     1      -4.626   9.041  -4.389  0.00  0.00    +0.203 C 
BRANCH   7   8
ATOM      8  C   UNL     1      -6.018   8.701  -4.855  0.00  0.00    +0.235 C 
ATOM      9  O   UNL     1      -6.785   8.130  -4.109  0.00  0.00    -0.274 OA
ATOM     10  N   UNL     1      -6.411   9.031  -6.102  0.00  0.00    -0.282 N 
ATOM     11  H   UNL     1      -5.821   9.544  -6.676  0.00  0.00    +0.155 HD
BRANCH  10  12
ATOM     12  C   UNL     1      -7.672   8.633  -6.568  0.00  0.00    +0.072 A 
ATOM     13  C   UNL     1      -8.749   8.574  -5.694  0.00  0.00    +0.029 A 
ATOM     14  C   UNL     1      -9.992   8.187  -6.155  0.00  0.00    +0.043 A 
ATOM     15  C   UNL     1     -10.164   7.847  -7.486  0.00  0.00    +0.161 A 
ATOM     16  C   UNL     1      -9.091   7.899  -8.361  0.00  0.00    +0.195 A 
ATOM     17  C   UNL     1      -7.844   8.292  -7.904  0.00  0.00    +0.182 A 
ATOM     18  F   UNL     1      -6.796   8.345  -8.756  0.00  0.00    -0.200 F 
ATOM     19  F   UNL     1      -9.260   7.567  -9.659  0.00  0.00    -0.199 F 
ATOM     20  F   UNL     1     -11.380   7.464  -7.932  0.00  0.00    -0.202 F 
ENDBRANCH  10  12
ENDBRANCH   7   8
ENDBRANCH   1   7
BRANCH   2  21
ATOM     21  C   UNL     1      -3.797   6.865  -1.351  0.00  0.00    +0.098 C 
BRANCH  21  22
ATOM     22  C   UNL     1      -3.261   5.432  -1.357  0.00  0.00    +0.031 C 
BRANCH  22  23
ATOM     23  C   UNL     1      -3.074   4.951   0.084  0.00  0.00    +0.129 C 
BRANCH  23  24
ATOM     24  N   UNL     1      -2.561   3.579   0.078  0.00  0.00    -0.274 N 
ATOM     25  C   UNL     1      -1.219   3.200   0.069  0.00  0.00    +0.090 A 
ATOM     26  C   UNL     1      -0.030   3.912   0.064  0.00  0.00    +0.032 A 
ATOM     27  C   UNL     1       1.175   3.236   0.056  0.00  0.00    +0.035 A 
ATOM     28  C   UNL     1       1.197   1.852   0.052  0.00  0.00    +0.130 A 
ATOM     29  C   UNL     1       0.015   1.136   0.057  0.00  0.00    +0.081 A 
ATOM     30  C   UNL     1      -1.198   1.806   0.060  0.00  0.00    +0.159 A 
ATOM     31  O   UNL     1      -2.487   1.384   0.072  0.00  0.00    -0.407 OA
ATOM     32  C   UNL     1      -3.300   2.452   0.079  0.00  0.00    +0.421 A 
ATOM     33  O   UNL     1      -4.516   2.409   0.087  0.00  0.00    -0.223 OA
BRANCH  28  34
ATOM     34  N   UNL     1       2.492   1.135   0.043  0.00  0.00    +0.057 N 
ATOM     35  O   UNL     1       2.514  -0.082   0.040  0.00  0.00    -0.126 OA
ATOM     36  O   UNL     1       3.535   1.764   0.039  0.00  0.00    -0.126 OA
ENDBRANCH  28  34
ENDBRANCH  23  24
ENDBRANCH  22  23
ENDBRANCH  21  22
ENDBRANCH   2  21
TORSDOF 10
