REMARK  Name = ZINC39674210
REMARK  7 active torsions:
REMARK  status: ('A' for Active; 'I' for Inactive)
REMARK    1  A    between atoms: C_1  and  C_2
REMARK    2  A    between atoms: C_4  and  C_9
REMARK    3  A    between atoms: C_5  and  C_8
REMARK    4  A    between atoms: C_9  and  C_11
REMARK    5  A    between atoms: C_9  and  N_12
REMARK    6  A    between atoms: C_13  and  C_15
REMARK    7  A    between atoms: C_26  and  C_28
REMARK                            x       y       z     vdW  Elec       q    Type
REMARK                         _______ _______ _______ _____ _____    ______ ____
ROOT
ATOM      1  C   UNL     1      -2.891  -0.603  -4.475  0.00  0.00    +0.100 C 
ATOM      2  C   UNL     1      -2.101   0.443  -5.295  0.00  0.00    +0.121 C 
ATOM      3  N   UNL     1      -2.588   0.274  -6.684  0.00  0.00    -0.296 N 
ATOM      4  C   UNL     1      -4.044   0.036  -6.538  0.00  0.00    +0.115 C 
ATOM      5  C   UNL     1      -4.165  -0.866  -5.294  0.00  0.00    -0.004 C 
ATOM      6  C   UNL     1      -5.401  -0.485  -4.485  0.00  0.00    -0.010 C 
ATOM      7  C   UNL     1      -6.658  -0.811  -5.297  0.00  0.00    -0.082 C 
ATOM      8  N   UNL     1      -6.679  -2.243  -5.615  0.00  0.00    +0.379 N 
ATOM      9  C   UNL     1      -5.537  -2.583  -6.472  0.00  0.00    -0.082 C 
ATOM     10  C   UNL     1      -4.233  -2.333  -5.709  0.00  0.00    -0.010 C 
ATOM     11  C   UNL     1      -1.870   0.326  -7.823  0.00  0.00    +0.247 C 
ATOM     12  O   UNL     1      -0.659   0.416  -7.774  0.00  0.00    -0.270 OA
ATOM     13  H   UNL     1      -6.628  -2.777  -4.761  0.00  0.00    -0.086 HD
ATOM     14  H   UNL     1      -7.537  -2.466  -6.098  0.00  0.00    -0.086 HD
ENDROOT
BRANCH  11  15
ATOM     15  C   UNL     1      -2.554   0.272  -9.132  0.00  0.00    +0.037 A 
ATOM     16  C   UNL     1      -3.914   0.619  -9.223  0.00  0.00    +0.013 A 
ATOM     17  C   UNL     1      -4.565   0.578 -10.413  0.00  0.00    +0.009 A 
ATOM     18  C   UNL     1      -3.880   0.183 -11.576  0.00  0.00    -0.018 A 
ATOM     19  C   UNL     1      -4.532   0.132 -12.820  0.00  0.00    +0.008 A 
ATOM     20  C   UNL     1      -3.842  -0.253 -13.928  0.00  0.00    +0.001 A 
ATOM     21  C   UNL     1      -2.495  -0.601 -13.851  0.00  0.00    +0.001 A 
ATOM     22  C   UNL     1      -1.829  -0.564 -12.665  0.00  0.00    +0.008 A 
ATOM     23  C   UNL     1      -2.509  -0.170 -11.498  0.00  0.00    -0.017 A 
ATOM     24  C   UNL     1      -1.851  -0.115 -10.260  0.00  0.00    +0.021 A 
ENDBRANCH  11  15
BRANCH   1  26
ATOM     25  N   UNL     1      -3.480  -0.885  -2.089  0.00  0.00    -0.309 N 
ATOM     26  C   UNL     1      -3.243  -0.048  -3.119  0.00  0.00    +0.219 C 
ATOM     27  O   UNL     1      -3.314   1.151  -2.953  0.00  0.00    -0.275 OA
ATOM     28  H   UNL     1      -3.424  -1.845  -2.221  0.00  0.00    +0.149 HD
BRANCH  25  29
ATOM     29  C   UNL     1      -3.823  -0.346  -0.771  0.00  0.00    +0.100 C 
ATOM     30  C   UNL     1      -2.540  -0.008  -0.009  0.00  0.00    +0.033 C 
BRANCH  29  33
ATOM     31  C   UNL     1      -2.950  -2.942   1.037  0.00  0.00    +0.039 C 
ATOM     32  C   UNL     1      -4.258  -2.829   0.251  0.00  0.00    +0.154 C 
ATOM     33  C   UNL     1      -4.610  -1.373   0.002  0.00  0.00    -0.001 C 
ATOM     34  C   UNL     1      -5.779  -1.214   0.627  0.00  0.00    +0.063 C 
ATOM     35  N   UNL     1      -6.172  -2.367   1.212  0.00  0.00    -0.159 NA
ATOM     36  N   UNL     1      -5.393  -3.315   1.055  0.00  0.00    -0.180 NA
ATOM     37  C   UNL     1      -6.555   0.077   0.674  0.00  0.00    +0.067 C 
ENDBRANCH  29  33
ENDBRANCH  25  29
ENDBRANCH   1  26
TORSDOF 4
