REMARK  Name = ZINC21025256
REMARK  9 active torsions:
REMARK  status: ('A' for Active; 'I' for Inactive)
REMARK    1  A    between atoms: C_1  and  C_2
REMARK    2  A    between atoms: C_5  and  N_8
REMARK    3  A    between atoms: C_9  and  C_26
REMARK    4  A    between atoms: C_10  and  C_17
REMARK    5  A    between atoms: C_11  and  C_14
REMARK    6  A    between atoms: C_12  and  C_13
REMARK    7  A    between atoms: C_17  and  N_18
REMARK    8  A    between atoms: N_18  and  C_19
REMARK    9  A    between atoms: C_22  and  C_25
REMARK                            x       y       z     vdW  Elec       q    Type
REMARK                         _______ _______ _______ _____ _____    ______ ____
ROOT
ATOM      1  N   UNL     1       0.932   0.501  -6.661  0.00  0.00    -0.317 N 
ATOM      2  C   UNL     1       0.383   1.316  -5.711  0.00  0.00    +0.023 A 
ATOM      3  C   UNL     1      -0.251   0.561  -4.798  0.00  0.00    -0.029 A 
ATOM      4  C   UNL     1      -0.086  -0.833  -5.226  0.00  0.00    +0.085 A 
ATOM      5  C   UNL     1       0.657  -0.790  -6.386  0.00  0.00    +0.035 A 
ATOM      6  C   UNL     1       1.087  -1.979  -7.205  0.00  0.00    +0.065 C 
ATOM      7  C   UNL     1       0.476   2.820  -5.690  0.00  0.00    +0.064 C 
ENDROOT
BRANCH   1  12
ATOM      8  C   UNL     1       3.923   2.298 -11.137  0.00  0.00    +0.044 C 
ATOM      9  C   UNL     1       3.129   1.821  -9.949  0.00  0.00    -0.050 A 
ATOM     10  C   UNL     1       1.911   1.194 -10.139  0.00  0.00    +0.005 A 
ATOM     11  C   UNL     1       1.181   0.755  -9.052  0.00  0.00    +0.026 A 
ATOM     12  C   UNL     1       1.671   0.945  -7.767  0.00  0.00    +0.047 A 
ATOM     13  C   UNL     1       2.892   1.579  -7.579  0.00  0.00    +0.026 A 
ATOM     14  C   UNL     1       3.620   2.011  -8.670  0.00  0.00    +0.005 A 
ENDBRANCH   1  12
BRANCH   4  15
ATOM     15  C   UNL     1      -0.607  -2.033  -4.553  0.00  0.00    +0.388 C 
ATOM     16  O   UNL     1      -1.708  -2.460  -4.839  0.00  0.00    -0.241 OA
ATOM     17  O   UNL     1       0.137  -2.659  -3.619  0.00  0.00    -0.241 OA
ENDBRANCH   4  15
BRANCH   3  18
ATOM     18  C   UNL     1      -0.990   1.050  -3.579  0.00  0.00    -0.044 C 
BRANCH  18  19
ATOM     19  N   UNL     1      -0.065   1.119  -2.440  0.00  0.00    +0.384 N 
ATOM     20  H   UNL     1       0.348   0.119  -2.242  0.00  0.00    -0.085 HD
ATOM     21  H   UNL     1       0.754   1.814  -2.675  0.00  0.00    -0.085 HD
BRANCH  19  22
ATOM     22  C   UNL     1      -0.753   1.593  -1.232  0.00  0.00    -0.071 C 
ATOM     23  C   UNL     1      -0.013   1.086   0.008  0.00  0.00    -0.015 C 
ATOM     24  C   UNL     1      -0.729   1.579   1.267  0.00  0.00    +0.002 C 
ATOM     25  C   UNL     1      -0.750   3.109   1.275  0.00  0.00    -0.014 C 
ATOM     26  C   UNL     1      -1.490   3.616   0.036  0.00  0.00    +0.002 C 
ATOM     27  C   UNL     1      -0.773   3.123  -1.223  0.00  0.00    -0.015 C 
ATOM     28  C   UNL     1      -1.466   3.603   2.534  0.00  0.00    +0.007 C 
ENDBRANCH  19  22
ENDBRANCH  18  19
ENDBRANCH   3  18
TORSDOF 5
