REMARK  Name = ZINC57565676
REMARK  5 active torsions:
REMARK  status: ('A' for Active; 'I' for Inactive)
REMARK    1  A    between atoms: C_1  and  C_2
REMARK    2  A    between atoms: C_6  and  N_8
REMARK    3  A    between atoms: C_16  and  S_17
REMARK    4  A    between atoms: S_17  and  C_18
REMARK    5  A    between atoms: C_18  and  C_19
REMARK                            x       y       z     vdW  Elec       q    Type
REMARK                         _______ _______ _______ _____ _____    ______ ____
ROOT
ATOM      1  N   UNL     1       0.051  -2.798   2.394  0.00  0.00    -0.287 N 
ATOM      2  C   UNL     1      -0.945  -3.639   2.867  0.00  0.00    +0.074 A 
ATOM      3  C   UNL     1      -2.178  -4.040   2.376  0.00  0.00    +0.028 A 
ATOM      4  C   UNL     1      -2.958  -4.913   3.107  0.00  0.00    +0.002 A 
ATOM      5  C   UNL     1      -2.517  -5.393   4.331  0.00  0.00    +0.002 A 
ATOM      6  C   UNL     1      -1.295  -5.005   4.834  0.00  0.00    +0.030 A 
ATOM      7  C   UNL     1      -0.493  -4.122   4.107  0.00  0.00    +0.091 A 
ATOM      8  N   UNL     1       0.728  -3.570   4.332  0.00  0.00    -0.222 NA
ATOM      9  C   UNL     1       1.054  -2.795   3.326  0.00  0.00    +0.175 A 
ENDROOT
BRANCH   1  15
ATOM     10  C   UNL     1      -0.018   1.503   0.010  0.00  0.00    +0.044 C 
ATOM     11  C   UNL     1       0.002  -0.004   0.002  0.00  0.00    -0.048 A 
ATOM     12  C   UNL     1       0.006  -0.688  -1.200  0.00  0.00    +0.003 A 
ATOM     13  C   UNL     1       0.025  -2.071  -1.212  0.00  0.00    +0.002 A 
ATOM     14  C   UNL     1       0.040  -2.773  -0.022  0.00  0.00    +0.026 A 
ATOM     15  C   UNL     1       0.036  -2.089   1.186  0.00  0.00    +0.049 A 
ATOM     16  C   UNL     1       0.023  -0.700   1.194  0.00  0.00    +0.029 A 
ENDBRANCH   1  15
BRANCH   9  17
ATOM     17  S   UNL     1       2.556  -1.884   3.195  0.00  0.00    -0.079 S 
BRANCH  17  18
ATOM     18  C   UNL     1       3.452  -2.292   4.718  0.00  0.00    +0.153 C 
BRANCH  18  19
ATOM     19  C   UNL     1       4.773  -1.567   4.733  0.00  0.00    +0.146 A 
ATOM     20  N   UNL     1       5.843  -2.138   4.207  0.00  0.00    -0.199 NA
ATOM     21  C   UNL     1       7.012  -1.501   4.218  0.00  0.00    +0.217 A 
ATOM     22  N   UNL     1       7.102  -0.291   4.759  0.00  0.00    -0.181 NA
ATOM     23  C   UNL     1       6.025   0.279   5.287  0.00  0.00    +0.217 A 
ATOM     24  N   UNL     1       4.858  -0.362   5.268  0.00  0.00    -0.199 NA
ATOM     25  N   UNL     1       6.113   1.536   5.850  0.00  0.00    -0.327 N 
ATOM     26  N   UNL     1       8.129  -2.097   3.669  0.00  0.00    -0.327 N 
ATOM     27  H   UNL     1       6.963   2.004   5.861  0.00  0.00    +0.145 HD
ATOM     28  H   UNL     1       5.326   1.951   6.236  0.00  0.00    +0.145 HD
ATOM     29  H   UNL     1       8.062  -2.981   3.275  0.00  0.00    +0.145 HD
ATOM     30  H   UNL     1       8.980  -1.633   3.678  0.00  0.00    +0.145 HD
ENDBRANCH  18  19
ENDBRANCH  17  18
ENDBRANCH   9  17
TORSDOF 4
