REMARK  Name = ZINC12156300
REMARK  13 active torsions:
REMARK  status: ('A' for Active; 'I' for Inactive)
REMARK    1  A    between atoms: C_1  and  C_2
REMARK    2  A    between atoms: C_3  and  C_9
REMARK    3  A    between atoms: N_5  and  C_7
REMARK    4  A    between atoms: C_9  and  N_71
REMARK    5  A    between atoms: C_21  and  N_30
REMARK    6  A    between atoms: C_23  and  O_25
REMARK    7  A    between atoms: O_25  and  C_26
REMARK    8  A    between atoms: C_26  and  C_27
REMARK    9  A    between atoms: C_27  and  O_28
REMARK   10  A    between atoms: O_28  and  C_29
REMARK   11  A    between atoms: C_31  and  C_33
REMARK   12  A    between atoms: C_33  and  C_34
REMARK   13  A    between atoms: C_33  and  C_35
REMARK                            x       y       z     vdW  Elec       q    Type
REMARK                         _______ _______ _______ _____ _____    ______ ____
ROOT
ATOM      1  C   UNL     1       5.868   3.926  -0.741  0.00  0.00    -0.077 C 
ATOM      2  C   UNL     1       5.633   2.946   0.412  0.00  0.00    -0.005 C 
ATOM      3  C   UNL     1       4.133   2.749   0.609  0.00  0.00    +0.021 C 
ATOM      4  C   UNL     1       3.450   4.092   0.855  0.00  0.00    -0.005 C 
ATOM      5  C   UNL     1       3.754   5.035  -0.313  0.00  0.00    -0.077 C 
ATOM      6  C   UNL     1       3.870   1.805   1.757  0.00  0.00    -0.034 A 
ATOM      7  C   UNL     1       4.442   1.735   3.017  0.00  0.00    +0.004 A 
ATOM      8  C   UNL     1       4.033   0.769   3.914  0.00  0.00    +0.000 A 
ATOM      9  C   UNL     1       3.048  -0.133   3.556  0.00  0.00    +0.000 A 
ATOM     10  C   UNL     1       2.476  -0.066   2.301  0.00  0.00    +0.006 A 
ATOM     11  C   UNL     1       2.885   0.902   1.399  0.00  0.00    -0.021 A 
ATOM     12  C   UNL     1       2.422   1.183  -0.015  0.00  0.00    +0.133 C 
ATOM     13  C   UNL     1       3.525   2.071  -0.633  0.00  0.00    +0.153 C 
ATOM     14  N   UNL     1       5.218   5.214  -0.414  0.00  0.00    +0.383 N 
ATOM     15  H   UNL     1       5.576   5.548   0.488  0.00  0.00    -0.081 HD
ENDROOT
BRANCH  12  16
ATOM     16  N   UNL     1       1.143   1.898   0.001  0.00  0.00    -0.306 N 
ATOM     17  C   UNL     1      -0.014   1.209   0.009  0.00  0.00    +0.216 C 
ATOM     18  O   UNL     1       0.002  -0.004   0.002  0.00  0.00    -0.276 OA
ATOM     19  H   UNL     1       1.130   2.868   0.007  0.00  0.00    +0.149 HD
BRANCH  17  20
ATOM     20  C   UNL     1      -1.330   1.944   0.019  0.00  0.00    +0.069 C 
ATOM     21  C   UNL     1      -2.479   0.934   0.019  0.00  0.00    +0.017 C 
ATOM     22  C   UNL     1      -1.417   2.816   1.273  0.00  0.00    +0.017 C 
ENDBRANCH  17  20
ENDBRANCH  12  16
BRANCH  14  23
ATOM     23  C   UNL     1       5.532   6.215  -1.454  0.00  0.00    -0.038 C 
BRANCH  23  26
ATOM     24  C   UNL     1       7.186   8.303   0.263  0.00  0.00    +0.068 C 
ATOM     25  C   UNL     1       5.775   8.486  -0.233  0.00  0.00    +0.063 A 
ATOM     26  C   UNL     1       5.046   7.564  -0.991  0.00  0.00    -0.005 A 
ATOM     27  C   UNL     1       3.827   8.101  -1.239  0.00  0.00    +0.128 A 
ATOM     28  N   UNL     1       3.785   9.316  -0.652  0.00  0.00    -0.256 N 
ATOM     29  N   UNL     1       5.021   9.536  -0.029  0.00  0.00    -0.175 NA
ATOM     30  C   UNL     1       2.650  10.242  -0.668  0.00  0.00    +0.174 C 
ATOM     31 CL   UNL     1       2.547   7.358  -2.147  0.00  0.00    -0.062 Cl
ENDBRANCH  23  26
ENDBRANCH  14  23
BRANCH  13  32
ATOM     32  O   UNL     1       4.501   1.274  -1.306  0.00  0.00    -0.371 OA
BRANCH  32  33
ATOM     33  C   UNL     1       4.225   1.065  -2.692  0.00  0.00    +0.188 C 
BRANCH  33  34
ATOM     34  C   UNL     1       5.329   0.203  -3.308  0.00  0.00    +0.187 C 
BRANCH  34  35
ATOM     35  O   UNL     1       5.304  -1.098  -2.718  0.00  0.00    -0.381 OA
ATOM     36  C   UNL     1       6.301  -1.986  -3.226  0.00  0.00    +0.194 C 
ENDBRANCH  34  35
ENDBRANCH  33  34
ENDBRANCH  32  33
ENDBRANCH  13  32
TORSDOF 8
