REMARK  Name = ZINC38689234
REMARK  12 active torsions:
REMARK  status: ('A' for Active; 'I' for Inactive)
REMARK    1  A    between atoms: C_1  and  C_2
REMARK    2  A    between atoms: C_4  and  C_12
REMARK    3  A    between atoms: C_12  and  C_14
REMARK    4  A    between atoms: C_14  and  O_15
REMARK    5  A    between atoms: O_15  and  C_16
REMARK    6  A    between atoms: C_16  and  C_18
REMARK    7  A    between atoms: C_21  and  S_24
REMARK    8  A    between atoms: S_24  and  N_27
REMARK    9  A    between atoms: N_27  and  C_28
REMARK   10  A    between atoms: N_27  and  C_29
REMARK   11  A    between atoms: C_34  and  O_35
REMARK   12  A    between atoms: O_35  and  C_36
REMARK                            x       y       z     vdW  Elec       q    Type
REMARK                         _______ _______ _______ _____ _____    ______ ____
ROOT
ATOM      1  C   UNL     1      -6.832  -0.745  -2.885  0.00  0.00    +0.059 A 
ATOM      2  C   UNL     1      -6.412   0.055  -3.949  0.00  0.00    +0.017 A 
ATOM      3  C   UNL     1      -7.290   0.357  -4.969  0.00  0.00    +0.029 A 
ATOM      4  C   UNL     1      -8.585  -0.130  -4.938  0.00  0.00    +0.109 A 
ATOM      5  C   UNL     1      -9.008  -0.923  -3.886  0.00  0.00    +0.029 A 
ATOM      6  C   UNL     1      -8.138  -1.239  -2.863  0.00  0.00    +0.017 A 
ENDROOT
BRANCH   4   7
ATOM      7  S   UNL     1      -9.700   0.262  -6.245  0.00  0.00    +0.075 S 
ATOM      8  O   UNL     1     -11.011   0.137  -5.711  0.00  0.00    -0.150 OA
ATOM      9  O   UNL     1      -9.229   1.466  -6.834  0.00  0.00    -0.150 OA
BRANCH   7  10
ATOM     10  N   UNL     1      -9.543  -0.920  -7.394  0.00  0.00    -0.203 N 
ATOM     11  C   UNL     1     -10.381  -2.120  -7.330  0.00  0.00    +0.158 C 
BRANCH  10  12
ATOM     12  C   UNL     1      -8.609  -0.773  -8.426  0.00  0.00    +0.092 A 
ATOM     13  C   UNL     1      -9.000  -0.245  -9.648  0.00  0.00    +0.028 A 
ATOM     14  C   UNL     1      -8.076  -0.100 -10.665  0.00  0.00    +0.002 A 
ATOM     15  C   UNL     1      -6.761  -0.480 -10.469  0.00  0.00    +0.004 A 
ATOM     16  C   UNL     1      -6.364  -1.008  -9.254  0.00  0.00    +0.047 A 
ATOM     17  C   UNL     1      -7.283  -1.151  -8.227  0.00  0.00    +0.143 A 
BRANCH  17  18
ATOM     18  O   UNL     1      -6.893  -1.665  -7.030  0.00  0.00    -0.493 OA
ATOM     19  C   UNL     1      -5.517  -2.031  -6.898  0.00  0.00    +0.277 C 
ENDBRANCH  17  18
ENDBRANCH  10  12
ENDBRANCH   7  10
ENDBRANCH   4   7
BRANCH   1  20
ATOM     20  C   UNL     1      -5.897  -1.074  -1.789  0.00  0.00    +0.340 C 
ATOM     21  O   UNL     1      -6.263  -1.774  -0.867  0.00  0.00    -0.245 OA
BRANCH  20  22
ATOM     22  O   UNL     1      -4.637  -0.596  -1.813  0.00  0.00    -0.453 OA
BRANCH  22  23
ATOM     23  C   UNL     1      -3.787  -0.953  -0.721  0.00  0.00    +0.311 C 
BRANCH  23  24
ATOM     24  C   UNL     1      -2.428  -0.333  -0.919  0.00  0.00    +0.199 C 
ATOM     25  O   UNL     1      -2.209   0.349  -1.899  0.00  0.00    -0.289 OA
BRANCH  24  28
ATOM     26  C   UNL     1      -0.019   1.526   0.010  0.00  0.00    +0.035 C 
ATOM     27  C   UNL     1       0.002  -0.004   0.002  0.00  0.00    +0.111 C 
ATOM     28  C   UNL     1      -1.411  -0.544   0.036  0.00  0.00    +0.029 C 
ATOM     29  C   UNL     1      -1.496  -1.289   1.198  0.00  0.00    +0.007 A 
ATOM     30  C   UNL     1      -2.543  -2.035   1.788  0.00  0.00    +0.010 A 
ATOM     31  C   UNL     1      -2.344  -2.680   2.960  0.00  0.00    +0.001 A 
ATOM     32  C   UNL     1      -1.116  -2.646   3.640  0.00  0.00    +0.002 A 
ATOM     33  C   UNL     1      -0.053  -1.963   3.162  0.00  0.00    +0.026 A 
ATOM     34  C   UNL     1      -0.185  -1.232   1.891  0.00  0.00    +0.043 A 
ATOM     35  N   UNL     1       0.660  -0.506   1.212  0.00  0.00    -0.377 N 
ATOM     36  H   UNL     1       1.578  -0.327   1.468  0.00  0.00    +0.160 HD
ENDBRANCH  24  28
ENDBRANCH  23  24
ENDBRANCH  22  23
ENDBRANCH  20  22
ENDBRANCH   1  20
TORSDOF 9
