REMARK  Name = ZINC03612261
REMARK  9 active torsions:
REMARK  status: ('A' for Active; 'I' for Inactive)
REMARK    1  A    between atoms: C_1  and  C_2
REMARK    2  A    between atoms: C_5  and  N_9
REMARK    3  A    between atoms: C_6  and  C_8
REMARK    4  A    between atoms: N_9  and  S_10
REMARK    5  A    between atoms: S_10  and  C_13
REMARK    6  A    between atoms: C_16  and  N_19
REMARK    7  A    between atoms: N_19  and  S_20
REMARK    8  A    between atoms: S_20  and  C_23
REMARK    9  A    between atoms: C_26  and  N_29
REMARK                            x       y       z     vdW  Elec       q    Type
REMARK                         _______ _______ _______ _____ _____    ______ ____
ROOT
ATOM      1  C   UNL     1       4.012   3.498  -0.442  0.00  0.00    +0.109 A 
ATOM      2  C   UNL     1       2.849   3.787  -1.131  0.00  0.00    +0.030 A 
ATOM      3  C   UNL     1       1.754   2.952  -1.023  0.00  0.00    +0.026 A 
ATOM      4  C   UNL     1       1.823   1.820  -0.221  0.00  0.00    +0.048 A 
ATOM      5  C   UNL     1       2.991   1.535   0.474  0.00  0.00    +0.026 A 
ATOM      6  C   UNL     1       4.084   2.372   0.358  0.00  0.00    +0.030 A 
ENDROOT
BRANCH   1   7
ATOM      7  S   UNL     1       5.406   4.566  -0.582  0.00  0.00    +0.072 S 
ATOM      8  O   UNL     1       6.551   3.784  -0.270  0.00  0.00    -0.150 OA
ATOM      9  O   UNL     1       5.268   5.254  -1.818  0.00  0.00    -0.150 OA
BRANCH   7  10
ATOM     10  N   UNL     1       5.272   5.706   0.612  0.00  0.00    -0.216 N 
ATOM     11  H   UNL     1       5.216   6.646   0.380  0.00  0.00    +0.174 HD
BRANCH  10  16
ATOM     12  C   UNL     1       5.148   4.113   6.053  0.00  0.00    +0.044 C 
ATOM     13  C   UNL     1       5.181   4.536   4.606  0.00  0.00    -0.050 A 
ATOM     14  C   UNL     1       5.892   3.789   3.685  0.00  0.00    +0.005 A 
ATOM     15  C   UNL     1       5.925   4.175   2.360  0.00  0.00    +0.025 A 
ATOM     16  C   UNL     1       5.241   5.313   1.952  0.00  0.00    +0.051 A 
ATOM     17  C   UNL     1       4.531   6.063   2.880  0.00  0.00    -0.028 A 
ATOM     18  C   UNL     1       4.499   5.670   4.204  0.00  0.00    +0.008 A 
ATOM     19  C   UNL     1       3.793   7.302   2.443  0.00  0.00    +0.046 C 
ENDBRANCH  10  16
ENDBRANCH   7  10
ENDBRANCH   1   7
BRANCH   4  20
ATOM     20  N   UNL     1       0.718   0.973  -0.109  0.00  0.00    -0.216 N 
ATOM     21  H   UNL     1      -0.167   1.346   0.028  0.00  0.00    +0.174 HD
BRANCH  20  22
ATOM     22  S   UNL     1       0.917  -0.667  -0.218  0.00  0.00    +0.072 S 
ATOM     23  O   UNL     1       1.961  -1.010   0.682  0.00  0.00    -0.150 OA
ATOM     24  O   UNL     1      -0.381  -1.240  -0.135  0.00  0.00    -0.150 OA
BRANCH  22  25
ATOM     25  C   UNL     1       1.516  -1.012  -1.839  0.00  0.00    +0.109 A 
ATOM     26  C   UNL     1       0.628  -1.152  -2.889  0.00  0.00    +0.031 A 
ATOM     27  C   UNL     1       1.099  -1.418  -4.162  0.00  0.00    +0.034 A 
ATOM     28  C   UNL     1       2.457  -1.555  -4.382  0.00  0.00    +0.126 A 
ATOM     29  C   UNL     1       3.345  -1.420  -3.330  0.00  0.00    +0.034 A 
ATOM     30  C   UNL     1       2.874  -1.149  -2.059  0.00  0.00    +0.031 A 
BRANCH  28  31
ATOM     31  N   UNL     1       2.961  -1.845  -5.743  0.00  0.00    +0.056 N 
ATOM     32  O   UNL     1       4.157  -1.965  -5.937  0.00  0.00    -0.126 OA
ATOM     33  O   UNL     1       2.179  -1.963  -6.669  0.00  0.00    -0.126 OA
ENDBRANCH  28  31
ENDBRANCH  22  25
ENDBRANCH  20  22
ENDBRANCH   4  20
TORSDOF 7
