REMARK  Name = ZINC43222357
REMARK  7 active torsions:
REMARK  status: ('A' for Active; 'I' for Inactive)
REMARK    1  A    between atoms: C_1  and  C_2
REMARK    2  A    between atoms: C_2  and  C_4
REMARK    3  A    between atoms: C_2  and  C_29
REMARK    4  A    between atoms: C_4  and  N_5
REMARK    5  A    between atoms: C_6  and  C_8
REMARK    6  A    between atoms: C_13  and  C_15
REMARK    7  A    between atoms: N_17  and  C_18
REMARK                            x       y       z     vdW  Elec       q    Type
REMARK                         _______ _______ _______ _____ _____    ______ ____
ROOT
ATOM      1  C   UNL     1      -0.315  -0.103   4.898  0.00  0.00    +0.068 C 
ATOM      2  C   UNL     1      -1.700  -0.785   4.897  0.00  0.00    -0.069 C 
ATOM      3  N   UNL     1      -1.510  -2.020   5.700  0.00  0.00    +0.380 N 
ATOM      4  C   UNL     1      -0.622  -1.598   6.814  0.00  0.00    -0.069 C 
ATOM      5  C   UNL     1       0.396  -0.635   6.159  0.00  0.00    +0.068 C 
ATOM      6  H   UNL     1      -2.394  -2.348   6.059  0.00  0.00    -0.086 HD
ATOM      7  H   UNL     1      -1.065  -2.736   5.146  0.00  0.00    -0.086 HD
ENDROOT
BRANCH   1   9
ATOM      8  N   UNL     1      -0.008  -0.140   2.444  0.00  0.00    -0.315 N 
ATOM      9  C   UNL     1       0.457  -0.484   3.661  0.00  0.00    +0.215 C 
ATOM     10  O   UNL     1       1.496  -1.101   3.761  0.00  0.00    -0.276 OA
ATOM     11  H   UNL     1      -0.840   0.353   2.364  0.00  0.00    +0.149 HD
BRANCH   8  12
ATOM     12  C   UNL     1       0.742  -0.511   1.242  0.00  0.00    +0.112 C 
BRANCH  12  14
ATOM     13  C   UNL     1      -0.019   1.526   0.010  0.00  0.00    +0.014 C 
ATOM     14  C   UNL     1       0.002  -0.004   0.002  0.00  0.00    +0.033 C 
BRANCH  14  15
ATOM     15  C   UNL     1       0.707  -0.490  -1.238  0.00  0.00    -0.043 A 
ATOM     16  C   UNL     1       2.026  -0.142  -1.464  0.00  0.00    +0.004 A 
ATOM     17  C   UNL     1       2.673  -0.587  -2.602  0.00  0.00    +0.000 A 
ATOM     18  C   UNL     1       2.002  -1.382  -3.512  0.00  0.00    +0.000 A 
ATOM     19  C   UNL     1       0.684  -1.731  -3.285  0.00  0.00    +0.000 A 
ATOM     20  C   UNL     1       0.038  -1.289  -2.146  0.00  0.00    +0.004 A 
ENDBRANCH  14  15
ENDBRANCH  12  14
ENDBRANCH   8  12
ENDBRANCH   1   9
BRANCH   5  21
ATOM     21  C   UNL     1       0.723   0.500   7.095  0.00  0.00    +0.215 C 
ATOM     22  O   UNL     1       0.422   1.636   6.798  0.00  0.00    -0.276 OA
ATOM     23  N   UNL     1       1.349   0.252   8.262  0.00  0.00    -0.308 N 
ATOM     24  H   UNL     1       1.589  -0.658   8.500  0.00  0.00    +0.149 HD
BRANCH  23  25
ATOM     25  C   UNL     1       1.666   1.355   9.172  0.00  0.00    +0.103 C 
ATOM     26  C   UNL     1       2.861   0.964  10.040  0.00  0.00    +0.027 C 
ATOM     27  C   UNL     1       3.040   2.032  11.125  0.00  0.00    +0.007 C 
ATOM     28  C   UNL     1       1.878   1.918  12.110  0.00  0.00    +0.035 C 
ATOM     29  C   UNL     1       0.561   1.916  11.377  0.00  0.00    -0.042 A 
ATOM     30  C   UNL     1       0.464   1.653  10.030  0.00  0.00    -0.024 A 
ATOM     31  C   UNL     1      -0.782   1.661   9.417  0.00  0.00    +0.006 A 
ATOM     32  C   UNL     1      -1.921   1.931  10.147  0.00  0.00    +0.000 A 
ATOM     33  C   UNL     1      -1.822   2.198  11.499  0.00  0.00    +0.000 A 
ATOM     34  C   UNL     1      -0.586   2.191  12.109  0.00  0.00    +0.004 A 
ENDBRANCH  23  25
ENDBRANCH   5  21
TORSDOF 6
