REMARK  Name = ZINC34981052
REMARK  5 active torsions:
REMARK  status: ('A' for Active; 'I' for Inactive)
REMARK    1  A    between atoms: C_1  and  C_2
REMARK    2  A    between atoms: C_2  and  C_4
REMARK    3  A    between atoms: C_2  and  N_11
REMARK    4  A    between atoms: N_11  and  C_12
REMARK    5  A    between atoms: C_17  and  N_18
REMARK                            x       y       z     vdW  Elec       q    Type
REMARK                         _______ _______ _______ _____ _____    ______ ____
ROOT
ATOM      1  N   UNL     1       0.608  -0.990  -1.155  0.00  0.00    -0.335 N 
ATOM      2  H   UNL     1       1.549  -1.224  -1.136  0.00  0.00    +0.147 HD
ENDROOT
BRANCH   1   3
ATOM      3  C   UNL     1      -0.059  -0.869  -2.377  0.00  0.00    +0.058 A 
ATOM      4  C   UNL     1      -1.431  -0.650  -2.403  0.00  0.00    +0.026 A 
ATOM      5  C   UNL     1      -2.086  -0.531  -3.612  0.00  0.00    +0.017 A 
ATOM      6  C   UNL     1      -1.379  -0.629  -4.797  0.00  0.00    +0.020 A 
ATOM      7  C   UNL     1      -0.013  -0.847  -4.774  0.00  0.00    +0.050 A 
ATOM      8  C   UNL     1       0.650  -0.960  -3.568  0.00  0.00    +0.148 A 
ATOM      9 BR   UNL     1      -2.281  -0.466  -6.451  0.00  0.00    -0.050 Br
BRANCH   8  10
ATOM     10  N   UNL     1       2.112  -1.187  -3.544  0.00  0.00    +0.058 N 
ATOM     11  O   UNL     1       2.792  -0.656  -2.697  0.00  0.00    -0.126 OA
ATOM     12  O   UNL     1       2.627  -1.902  -4.371  0.00  0.00    -0.126 OA
ENDBRANCH   8  10
ENDBRANCH   1   3
BRANCH   1  14
ATOM     13  C   UNL     1      -0.125   0.732   0.420  0.00  0.00    +0.033 C 
ATOM     14  C   UNL     1      -0.115  -0.764   0.100  0.00  0.00    +0.099 C 
BRANCH  14  15
ATOM     15  C   UNL     1       0.568  -1.512   1.215  0.00  0.00    -0.009 A 
ATOM     16  C   UNL     1       1.913  -1.814   1.122  0.00  0.00    +0.007 A 
ATOM     17  C   UNL     1       2.540  -2.501   2.145  0.00  0.00    +0.000 A 
ATOM     18  C   UNL     1       1.821  -2.885   3.262  0.00  0.00    +0.001 A 
ATOM     19  C   UNL     1       0.476  -2.584   3.356  0.00  0.00    +0.020 A 
ATOM     20  C   UNL     1      -0.150  -1.892   2.335  0.00  0.00    +0.046 A 
ATOM     21 CL   UNL     1      -1.839  -1.507   2.455  0.00  0.00    -0.083 Cl
ENDBRANCH  14  15
ENDBRANCH   1  14
TORSDOF 4
