REMARK  Name = ZINC14710997
REMARK  6 active torsions:
REMARK  status: ('A' for Active; 'I' for Inactive)
REMARK    1  A    between atoms: C_1  and  N_2
REMARK    2  A    between atoms: N_2  and  C_3
REMARK    3  A    between atoms: N_2  and  S_4
REMARK    4  A    between atoms: S_4  and  C_7
REMARK    5  A    between atoms: C_11  and  C_13
REMARK    6  A    between atoms: C_18  and  C_21
REMARK                            x       y       z     vdW  Elec       q    Type
REMARK                         _______ _______ _______ _____ _____    ______ ____
ROOT
ATOM      1  C   UNL     1      -2.800   8.739   0.071  0.00  0.00    +0.251 C 
ATOM      2  O   UNL     1      -3.959   8.373   0.082  0.00  0.00    -0.270 OA
ATOM      3  N   UNL     1      -1.806   7.828   0.057  0.00  0.00    -0.261 N 
ATOM      4  C   UNL     1      -2.106   6.473   0.054  0.00  0.00    +0.165 A 
ATOM      5  N   UNL     1      -1.282   5.445   0.041  0.00  0.00    -0.225 NA
ATOM      6  C   UNL     1      -1.737   4.200   0.040  0.00  0.00    +0.082 A 
ATOM      7  C   UNL     1      -3.091   4.011   0.046  0.00  0.00    +0.077 A 
ATOM      8  S   UNL     1      -3.663   5.704   0.066  0.00  0.00    -0.060 S 
ATOM      9  H   UNL     1      -0.881   8.120   0.049  0.00  0.00    +0.157 HD
ENDROOT
BRANCH   6  10
ATOM     10  C   UNL     1      -0.805   3.046   0.025  0.00  0.00    +0.026 A 
ATOM     11  C   UNL     1      -1.143   1.734   0.016  0.00  0.00    +0.093 A 
ATOM     12  N   UNL     1      -0.011   0.966   0.007  0.00  0.00    -0.360 N 
ATOM     13  H   UNL     1       0.002  -0.004   0.002  0.00  0.00    +0.165 HD
ATOM     14  C   UNL     1       1.107   1.770   0.001  0.00  0.00    +0.047 A 
ATOM     15  C   UNL     1       0.665   3.105   0.012  0.00  0.00    +0.009 A 
ATOM     16  C   UNL     1       1.591   4.146   0.008  0.00  0.00    +0.010 A 
ATOM     17  C   UNL     1       2.929   3.865  -0.006  0.00  0.00    +0.001 A 
ATOM     18  C   UNL     1       3.372   2.550  -0.016  0.00  0.00    +0.002 A 
ATOM     19  C   UNL     1       2.473   1.506  -0.013  0.00  0.00    +0.026 A 
ENDBRANCH   6  10
BRANCH   1  24
ATOM     20  C   UNL     1      -0.858  11.952   0.066  0.00  0.00    +0.106 A 
ATOM     21  C   UNL     1      -1.880  12.886   0.081  0.00  0.00    +0.030 A 
ATOM     22  C   UNL     1      -3.200  12.475   0.093  0.00  0.00    +0.022 A 
ATOM     23  C   UNL     1      -3.507  11.128   0.083  0.00  0.00    +0.053 A 
ATOM     24  C   UNL     1      -2.480  10.181   0.074  0.00  0.00    +0.057 A 
ATOM     25  C   UNL     1      -1.149  10.605   0.063  0.00  0.00    +0.043 A 
ATOM     26 CL   UNL     1      -5.165  10.613   0.090  0.00  0.00    -0.083 Cl
BRANCH  20  27
ATOM     27  S   UNL     1       0.821  12.488   0.051  0.00  0.00    +0.060 S 
ATOM     28  O   UNL     1       0.835  13.796   0.607  0.00  0.00    -0.153 OA
ATOM     29  O   UNL     1       1.592  11.423   0.589  0.00  0.00    -0.153 OA
BRANCH  27  31
ATOM     30  C   UNL     1       1.084  13.922  -2.228  0.00  0.00    +0.131 C 
ATOM     31  N   UNL     1       1.270  12.644  -1.536  0.00  0.00    -0.183 NA
ATOM     32  C   UNL     1       1.855  11.505  -2.247  0.00  0.00    +0.131 C 
ENDBRANCH  27  31
ENDBRANCH  20  27
ENDBRANCH   1  24
TORSDOF 4
