REMARK  Name = ZINC43746479
REMARK  5 active torsions:
REMARK  status: ('A' for Active; 'I' for Inactive)
REMARK    1  A    between atoms: C_1  and  C_2
REMARK    2  A    between atoms: C_18  and  C_20
REMARK    3  A    between atoms: C_20  and  N_21
REMARK    4  A    between atoms: C_24  and  C_27
REMARK    5  A    between atoms: C_24  and  O_34
REMARK                            x       y       z     vdW  Elec       q    Type
REMARK                         _______ _______ _______ _____ _____    ______ ____
ROOT
ATOM      1  C   UNL     1      -0.504   1.697   0.465  0.00  0.00    +0.011 C 
ATOM      2  C   UNL     1      -0.384   0.177   0.338  0.00  0.00    -0.023 C 
ATOM      3  C   UNL     1       0.320  -0.168  -0.973  0.00  0.00    +0.007 C 
ATOM      4  C   UNL     1       1.671   0.549  -1.033  0.00  0.00    +0.003 C 
ATOM      5  C   UNL     1       2.565   0.058   0.109  0.00  0.00    +0.037 C 
ATOM      6  C   UNL     1       1.837   0.257   1.440  0.00  0.00    +0.096 C 
ATOM      7  C   UNL     1       0.439  -0.368   1.514  0.00  0.00    +0.030 C 
ATOM      8  C   UNL     1       0.578  -1.880   1.348  0.00  0.00    +0.014 C 
ATOM      9  C   UNL     1      -0.787  -2.569   1.372  0.00  0.00    +0.042 C 
ATOM     10  C   UNL     1      -1.731  -1.936   0.330  0.00  0.00    +0.181 C 
ATOM     11  C   UNL     1      -1.774  -0.445   0.371  0.00  0.00    +0.052 C 
ATOM     12  O   UNL     1      -1.238  -2.431  -0.920  0.00  0.00    -0.461 OA
ATOM     13  C   UNL     1      -0.930  -3.736  -0.744  0.00  0.00    +0.309 C 
ATOM     14  O   UNL     1      -0.931  -4.580  -1.608  0.00  0.00    -0.251 OA
ATOM     15  C   UNL     1      -0.578  -3.978   0.737  0.00  0.00    +0.088 C 
ATOM     16  C   UNL     1       2.080   1.555   2.206  0.00  0.00    +0.196 C 
ATOM     17  O   UNL     1       2.614   0.299   2.634  0.00  0.00    -0.368 OA
ENDROOT
BRANCH  15  18
ATOM     18  C   UNL     1      -1.531  -4.997   1.365  0.00  0.00    -0.064 C 
BRANCH  18  19
ATOM     19  N   UNL     1      -1.188  -5.179   2.782  0.00  0.00    +0.380 N 
ATOM     20  C   UNL     1       0.142  -5.792   2.887  0.00  0.00    -0.076 C 
ATOM     21  C   UNL     1       0.539  -5.910   4.360  0.00  0.00    +0.021 C 
ATOM     22  C   UNL     1      -0.486  -6.783   5.091  0.00  0.00    +0.088 C 
ATOM     23  C   UNL     1      -1.880  -6.173   4.912  0.00  0.00    +0.021 C 
ATOM     24  C   UNL     1      -2.187  -6.046   3.419  0.00  0.00    -0.076 C 
ATOM     25  H   UNL     1      -1.179  -4.282   3.243  0.00  0.00    -0.082 HD
BRANCH  22  26
ATOM     26  C   UNL     1      -0.145  -6.839   6.557  0.00  0.00    -0.016 A 
ATOM     27  C   UNL     1       0.485  -5.768   7.162  0.00  0.00    +0.008 A 
ATOM     28  C   UNL     1       0.798  -5.819   8.507  0.00  0.00    +0.020 A 
ATOM     29  C   UNL     1       0.481  -6.943   9.249  0.00  0.00    +0.041 A 
ATOM     30  C   UNL     1      -0.150  -8.015   8.643  0.00  0.00    +0.020 A 
ATOM     31  C   UNL     1      -0.468  -7.960   7.299  0.00  0.00    +0.008 A 
ATOM     32 CL   UNL     1       0.875  -7.008  10.938  0.00  0.00    -0.084 Cl
ENDBRANCH  22  26
BRANCH  22  33
ATOM     33  O   UNL     1      -0.468  -8.102   4.543  0.00  0.00    -0.384 OA
ATOM     34  H   UNL     1      -1.094  -8.710   4.960  0.00  0.00    +0.211 HD
ENDBRANCH  22  33
ENDBRANCH  18  19
ENDBRANCH  15  18
TORSDOF 4
