REMARK  Name = ZINC64110608
REMARK  12 active torsions:
REMARK  status: ('A' for Active; 'I' for Inactive)
REMARK    1  A    between atoms: C_1  and  C_2
REMARK    2  A    between atoms: C_7  and  C_12
REMARK    3  A    between atoms: C_12  and  C_14
REMARK    4  A    between atoms: C_12  and  N_15
REMARK    5  A    between atoms: C_16  and  C_18
REMARK    6  A    between atoms: N_20  and  C_29
REMARK    7  A    between atoms: C_22  and  C_25
REMARK    8  A    between atoms: N_27  and  C_28
REMARK    9  A    between atoms: C_29  and  C_30
REMARK   10  A    between atoms: C_30  and  C_31
REMARK   11  A    between atoms: C_31  and  C_32
REMARK   12  A    between atoms: C_31  and  C_33
REMARK                            x       y       z     vdW  Elec       q    Type
REMARK                         _______ _______ _______ _____ _____    ______ ____
ROOT
ATOM      1  N   UNL     1      -1.138  -6.468   1.387  0.00  0.00    -0.305 N 
ATOM      2  C   UNL     1      -1.782  -7.482   1.998  0.00  0.00    +0.250 C 
ATOM      3  O   UNL     1      -2.353  -7.290   3.055  0.00  0.00    -0.270 OA
ATOM      4  H   UNL     1      -0.620  -6.636   0.584  0.00  0.00    +0.149 HD
ENDROOT
BRANCH   2   5
ATOM      5  C   UNL     1      -1.794  -8.822   1.387  0.00  0.00    +0.100 A 
ATOM      6  C   UNL     1      -2.539  -9.842   1.935  0.00  0.00    +0.102 A 
ATOM      7  N   UNL     1      -2.558 -11.068   1.388  0.00  0.00    -0.352 N 
ATOM      8  C   UNL     1      -1.867 -11.394   0.284  0.00  0.00    +0.102 A 
ATOM      9  C   UNL     1      -1.079 -10.472  -0.369  0.00  0.00    +0.100 A 
ATOM     10  C   UNL     1      -1.013  -9.103   0.170  0.00  0.00    +0.206 A 
ATOM     11  O   UNL     1      -0.338  -8.241  -0.365  0.00  0.00    -0.286 OA
BRANCH   9  12
ATOM     12  C   UNL     1      -0.325 -10.844  -1.579  0.00  0.00    +0.249 C 
ATOM     13  O   UNL     1      -0.473 -11.945  -2.073  0.00  0.00    -0.270 OA
ATOM     14  N   UNL     1       0.529  -9.963  -2.138  0.00  0.00    -0.314 N 
ATOM     15  C   UNL     1       1.360 -10.370  -3.273  0.00  0.00    +0.128 C 
ATOM     16  H   UNL     1       0.593  -9.060  -1.789  0.00  0.00    +0.149 HD
ENDBRANCH   9  12
BRANCH   7  17
ATOM     17  C   UNL     1      -3.374 -12.103   2.028  0.00  0.00    +0.121 C 
BRANCH  17  18
ATOM     18  C   UNL     1      -4.784 -12.081   1.434  0.00  0.00    +0.024 C 
BRANCH  18  19
ATOM     19  C   UNL     1      -5.636 -13.162   2.103  0.00  0.00    -0.016 C 
ATOM     20  C   UNL     1      -5.816 -12.825   3.584  0.00  0.00    +0.007 C 
ATOM     21  C   UNL     1      -7.005 -13.224   1.424  0.00  0.00    +0.007 C 
ENDBRANCH  18  19
ENDBRANCH  17  18
ENDBRANCH   7  17
ENDBRANCH   2   5
BRANCH   1  22
ATOM     22  C   UNL     1      -1.220  -5.111   1.935  0.00  0.00    +0.113 C 
ATOM     23  C   UNL     1      -2.486  -4.427   1.415  0.00  0.00    +0.032 C 
BRANCH  22  30
ATOM     24  C   UNL     1      -0.159   1.517  -0.065  0.00  0.00    +0.044 C 
ATOM     25  C   UNL     1      -0.120   0.010  -0.065  0.00  0.00    -0.048 A 
ATOM     26  C   UNL     1      -0.117  -0.665  -1.298  0.00  0.00    +0.005 A 
ATOM     27  C   UNL     1      -0.084  -2.010  -1.391  0.00  0.00    +0.027 A 
ATOM     28  C   UNL     1      -0.049  -2.820  -0.165  0.00  0.00    +0.060 A 
ATOM     29  N   UNL     1      -0.014  -4.104   0.046  0.00  0.00    -0.362 N 
ATOM     30  C   UNL     1       0.008  -4.310   1.500  0.00  0.00    +0.194 C 
ATOM     31  N   UNL     1      -0.018  -2.974   2.108  0.00  0.00    -0.362 N 
ATOM     32  C   UNL     1      -0.052  -2.105   1.140  0.00  0.00    +0.060 A 
ATOM     33  C   UNL     1      -0.085  -0.636   1.118  0.00  0.00    +0.030 A 
ATOM     34  H   UNL     1      -0.004  -4.797  -0.632  0.00  0.00    +0.162 HD
ATOM     35  H   UNL     1      -0.013  -2.776   3.058  0.00  0.00    +0.162 HD
ENDBRANCH  22  30
ENDBRANCH   1  22
TORSDOF 7
