REMARK  Name = ZINC36309313
REMARK  17 active torsions:
REMARK  status: ('A' for Active; 'I' for Inactive)
REMARK    1  A    between atoms: C_1  and  C_2
REMARK    2  A    between atoms: C_2  and  C_3
REMARK    3  A    between atoms: C_2  and  O_4
REMARK    4  A    between atoms: O_4  and  C_5
REMARK    5  A    between atoms: C_5  and  C_6
REMARK    6  A    between atoms: C_6  and  C_8
REMARK    7  A    between atoms: C_6  and  O_37
REMARK    8  A    between atoms: C_8  and  N_9
REMARK    9  A    between atoms: N_9  and  C_10
REMARK   10  A    between atoms: N_9  and  C_14
REMARK   11  A    between atoms: C_10  and  C_11
REMARK   12  A    between atoms: C_14  and  C_15
REMARK   13  A    between atoms: C_25  and  C_27
REMARK   14  A    between atoms: C_27  and  O_28
REMARK   15  A    between atoms: O_28  and  C_29
REMARK   16  A    between atoms: C_33  and  O_35
REMARK   17  A    between atoms: O_35  and  C_36
REMARK                            x       y       z     vdW  Elec       q    Type
REMARK                         _______ _______ _______ _____ _____    ______ ____
ROOT
ATOM      1  C   UNL     1      -7.516  -1.966  -3.384  0.00  0.00    +0.200 C 
ATOM      2  O   UNL     1      -8.015  -2.091  -2.286  0.00  0.00    -0.278 OA
ATOM      3  N   UNL     1      -8.285  -2.049  -4.488  0.00  0.00    -0.292 N 
ATOM      4  C   UNL     1      -7.689  -1.904  -5.825  0.00  0.00    +0.113 C 
ATOM      5  C   UNL     1      -7.844  -3.240  -6.569  0.00  0.00    +0.061 C 
ATOM      6  C   UNL     1      -9.222  -3.765  -6.327  0.00  0.00    -0.004 A 
ATOM      7  C   UNL     1     -10.104  -3.385  -5.364  0.00  0.00    -0.014 A 
ATOM      8  C   UNL     1     -11.333  -4.043  -5.347  0.00  0.00    +0.013 A 
ATOM      9  C   UNL     1     -11.600  -5.002  -6.263  0.00  0.00    +0.046 A 
ATOM     10  S   UNL     1     -10.092  -5.026  -7.220  0.00  0.00    -0.101 S 
ATOM     11  C   UNL     1      -9.729  -2.290  -4.373  0.00  0.00    +0.144 C 
ENDROOT
BRANCH   1  12
ATOM     12  C   UNL     1      -6.035  -1.718  -3.515  0.00  0.00    +0.019 C 
BRANCH  12  13
ATOM     13  N   UNL     1      -5.404  -1.818  -2.192  0.00  0.00    +0.387 N 
ATOM     14  H   UNL     1      -5.882  -1.210  -1.544  0.00  0.00    -0.081 HD
BRANCH  13  15
ATOM     15  C   UNL     1      -5.486  -3.204  -1.714  0.00  0.00    -0.044 C 
BRANCH  15  16
ATOM     16  C   UNL     1      -4.941  -3.285  -0.286  0.00  0.00    +0.124 C 
BRANCH  16  17
ATOM     17  O   UNL     1      -5.785  -2.532   0.588  0.00  0.00    -0.391 OA
ATOM     18  H   UNL     1      -6.700  -2.842   0.615  0.00  0.00    +0.210 HD
ENDBRANCH  16  17
BRANCH  16  19
ATOM     19  C   UNL     1      -4.911  -4.746   0.167  0.00  0.00    +0.189 C 
BRANCH  19  20
ATOM     20  O   UNL     1      -4.295  -4.833   1.453  0.00  0.00    -0.375 OA
BRANCH  20  22
ATOM     21  C   UNL     1      -2.901  -6.805   1.528  0.00  0.00    +0.037 C 
ATOM     22  C   UNL     1      -4.217  -6.163   1.971  0.00  0.00    +0.112 C 
ATOM     23  C   UNL     1      -4.274  -6.119   3.499  0.00  0.00    +0.037 C 
ENDBRANCH  20  22
ENDBRANCH  19  20
ENDBRANCH  16  19
ENDBRANCH  15  16
ENDBRANCH  13  15
BRANCH  13  24
ATOM     24  C   UNL     1      -3.994  -1.417  -2.291  0.00  0.00    -0.075 C 
BRANCH  24  25
ATOM     25  C   UNL     1      -3.910   0.061  -2.678  0.00  0.00    -0.028 C 
ATOM     26  C   UNL     1      -3.242   0.405  -4.011  0.00  0.00    +0.002 C 
ATOM     27  C   UNL     1      -2.524   0.709  -2.694  0.00  0.00    +0.002 C 
ENDBRANCH  24  25
ENDBRANCH  13  24
ENDBRANCH  12  13
ENDBRANCH   1  12
BRANCH  11  28
ATOM     28  C   UNL     1     -10.497  -1.010  -4.707  0.00  0.00    +0.256 C 
BRANCH  28  29
ATOM     29  O   UNL     1     -10.282  -0.670  -6.078  0.00  0.00    -0.490 OA
BRANCH  29  30
ATOM     30  C   UNL     1     -10.899   0.450  -6.540  0.00  0.00    +0.124 A 
ATOM     31  C   UNL     1     -11.689   1.209  -5.689  0.00  0.00    +0.046 A 
ATOM     32  C   UNL     1     -12.316   2.348  -6.157  0.00  0.00    +0.007 A 
ATOM     33  C   UNL     1     -12.158   2.733  -7.475  0.00  0.00    +0.046 A 
ATOM     34  C   UNL     1     -11.368   1.978  -8.330  0.00  0.00    +0.124 A 
ATOM     35  C   UNL     1     -10.733   0.838  -7.861  0.00  0.00    +0.091 A 
BRANCH  34  36
ATOM     36  O   UNL     1     -11.213   2.358  -9.626  0.00  0.00    -0.495 OA
ATOM     37  C   UNL     1     -11.892   3.546 -10.039  0.00  0.00    +0.277 C 
ENDBRANCH  34  36
ENDBRANCH  29  30
ENDBRANCH  28  29
ENDBRANCH  11  28
TORSDOF 14
