REMARK  Name = ZINC08456244
REMARK  8 active torsions:
REMARK  status: ('A' for Active; 'I' for Inactive)
REMARK    1  A    between atoms: C_1  and  C_2
REMARK    2  A    between atoms: C_2  and  O_3
REMARK    3  A    between atoms: O_3  and  C_4
REMARK    4  A    between atoms: C_9  and  C_10
REMARK    5  A    between atoms: C_12  and  C_32
REMARK    6  A    between atoms: C_13  and  N_31
REMARK    7  A    between atoms: C_20  and  C_22
REMARK    8  A    between atoms: C_20  and  C_23
REMARK                            x       y       z     vdW  Elec       q    Type
REMARK                         _______ _______ _______ _____ _____    ______ ____
ROOT
ATOM      1  C   UNL     1       6.034  -1.753   0.803  0.00  0.00    +0.101 C 
ATOM      2  C   UNL     1       5.960  -0.321   0.360  0.00  0.00    +0.077 C 
ATOM      3  C   UNL     1       4.786   0.230  -0.048  0.00  0.00    +0.108 C 
ATOM      4  N   UNL     1       3.637  -0.529  -0.057  0.00  0.00    -0.245 N 
ATOM      5  C   UNL     1       3.707  -1.899  -0.065  0.00  0.00    +0.026 C 
ATOM      6  C   UNL     1       4.831  -2.531   0.334  0.00  0.00    +0.025 C 
ATOM      7  C   UNL     1       4.913  -3.935   0.328  0.00  0.00    +0.162 C 
ATOM      8  O   UNL     1       5.946  -4.474   0.675  0.00  0.00    -0.292 OA
ATOM      9  C   UNL     1       3.746  -4.783  -0.099  0.00  0.00    +0.086 C 
ATOM     10  C   UNL     1       2.446  -4.024   0.190  0.00  0.00    -0.023 C 
ATOM     11  C   UNL     1       2.502  -2.676  -0.533  0.00  0.00    +0.058 C 
ATOM     12  C   UNL     1       2.310  -3.794   1.697  0.00  0.00    +0.011 C 
ATOM     13  C   UNL     1       1.250  -4.831  -0.318  0.00  0.00    +0.011 C 
ATOM     14  C   UNL     1       2.391   0.100  -0.064  0.00  0.00    +0.131 A 
ATOM     15  C   UNL     1       1.769   0.409   1.140  0.00  0.00    +0.045 A 
ATOM     16  C   UNL     1       0.534   1.033   1.119  0.00  0.00    +0.020 A 
ATOM     17  C   UNL     1      -0.038   1.328  -0.112  0.00  0.00    +0.036 A 
ATOM     18  C   UNL     1       0.638   0.992  -1.270  0.00  0.00    +0.128 A 
ATOM     19  N   UNL     1       1.814   0.398  -1.218  0.00  0.00    -0.239 NA
ATOM     20 BR   UNL     1      -1.727   2.173  -0.203  0.00  0.00    -0.049 Br
ENDROOT
BRANCH   1  26
ATOM     21  C   UNL     1       7.204  -2.352   2.938  0.00  0.00    +0.125 A 
ATOM     22  C   UNL     1       7.260  -2.394   4.324  0.00  0.00    +0.046 A 
ATOM     23  C   UNL     1       6.214  -1.889   5.072  0.00  0.00    +0.004 A 
ATOM     24  C   UNL     1       5.112  -1.341   4.441  0.00  0.00    +0.001 A 
ATOM     25  C   UNL     1       5.056  -1.293   3.061  0.00  0.00    +0.008 A 
ATOM     26  C   UNL     1       6.097  -1.801   2.308  0.00  0.00    +0.007 A 
BRANCH  21  27
ATOM     27  O   UNL     1       8.231  -2.848   2.200  0.00  0.00    -0.492 OA
BRANCH  27  29
ATOM     28  C   UNL     1      10.387  -3.904   1.924  0.00  0.00    +0.048 C 
ATOM     29  C   UNL     1       9.338  -3.399   2.917  0.00  0.00    +0.225 C 
ENDBRANCH  27  29
ENDBRANCH  21  27
ENDBRANCH   1  26
BRANCH   3  30
ATOM     30  N   UNL     1       4.744   1.544  -0.447  0.00  0.00    -0.345 N 
ATOM     31  H   UNL     1       3.892   1.962  -0.649  0.00  0.00    +0.144 HD
ATOM     32  H   UNL     1       5.565   2.054  -0.526  0.00  0.00    +0.144 HD
ENDBRANCH   3  30
BRANCH   2  33
ATOM     33  C   UNL     1       7.149   0.478   0.361  0.00  0.00    +0.099 C 
ATOM     34  N   UNL     1       8.091   1.112   0.362  0.00  0.00    -0.191 NA
ENDBRANCH   2  33
TORSDOF 5
