REMARK  Name = ZINC39461400
REMARK  11 active torsions:
REMARK  status: ('A' for Active; 'I' for Inactive)
REMARK    1  A    between atoms: C_1  and  C_2
REMARK    2  A    between atoms: C_4  and  C_9
REMARK    3  A    between atoms: C_5  and  C_8
REMARK    4  A    between atoms: C_9  and  C_10
REMARK    5  A    between atoms: C_10  and  N_11
REMARK    6  A    between atoms: N_11  and  C_12
REMARK    7  A    between atoms: C_12  and  C_13
REMARK    8  A    between atoms: N_16  and  C_27
REMARK    9  A    between atoms: C_18  and  C_20
REMARK   10  A    between atoms: C_30  and  O_33
REMARK   11  A    between atoms: O_33  and  C_34
REMARK                            x       y       z     vdW  Elec       q    Type
REMARK                         _______ _______ _______ _____ _____    ______ ____
ROOT
ATOM      1  C   UNL     1      -6.203   2.571  -2.276  0.00  0.00    +0.014 C 
ATOM      2  C   UNL     1      -5.656   2.876  -3.692  0.00  0.00    +0.127 C 
ATOM      3  N   UNL     1      -5.725   4.339  -3.831  0.00  0.00    -0.266 N 
ATOM      4  N   UNL     1      -6.172   4.897  -2.661  0.00  0.00    -0.232 NA
ATOM      5  C   UNL     1      -6.998   3.870  -1.974  0.00  0.00    +0.107 C 
ATOM      6  H   UNL     1      -6.708   5.732  -2.840  0.00  0.00    +0.145 HD
ENDROOT
BRANCH   5   7
ATOM      7  C   UNL     1      -7.062   4.130  -0.491  0.00  0.00    -0.010 A 
ATOM      8  C   UNL     1      -6.209   5.052   0.086  0.00  0.00    +0.006 A 
ATOM      9  C   UNL     1      -6.268   5.292   1.446  0.00  0.00    +0.000 A 
ATOM     10  C   UNL     1      -7.179   4.609   2.230  0.00  0.00    +0.001 A 
ATOM     11  C   UNL     1      -8.033   3.687   1.654  0.00  0.00    +0.020 A 
ATOM     12  C   UNL     1      -7.979   3.451   0.291  0.00  0.00    +0.046 A 
ATOM     13 CL   UNL     1      -9.055   2.298  -0.434  0.00  0.00    -0.083 Cl
ENDBRANCH   5   7
BRANCH   3  14
ATOM     14  C   UNL     1      -5.386   5.054  -4.985  0.00  0.00    +0.045 A 
ATOM     15  C   UNL     1      -4.948   4.379  -6.117  0.00  0.00    +0.028 A 
ATOM     16  C   UNL     1      -4.614   5.086  -7.255  0.00  0.00    +0.047 A 
ATOM     17  C   UNL     1      -4.714   6.469  -7.269  0.00  0.00    +0.120 A 
ATOM     18  C   UNL     1      -5.151   7.144  -6.138  0.00  0.00    +0.047 A 
ATOM     19  C   UNL     1      -5.491   6.439  -5.000  0.00  0.00    +0.028 A 
BRANCH  17  20
ATOM     20  O   UNL     1      -4.385   7.164  -8.390  0.00  0.00    -0.495 OA
ATOM     21  C   UNL     1      -4.512   8.586  -8.333  0.00  0.00    +0.277 C 
ENDBRANCH  17  20
ENDBRANCH   3  14
BRANCH   1  22
ATOM     22  C   UNL     1      -5.063   2.378  -1.275  0.00  0.00    -0.076 C 
BRANCH  22  23
ATOM     23  N   UNL     1      -4.360   1.122  -1.569  0.00  0.00    +0.380 N 
ATOM     24  H   UNL     1      -3.983   1.159  -2.505  0.00  0.00    -0.086 HD
ATOM     25  H   UNL     1      -5.005   0.350  -1.496  0.00  0.00    -0.086 HD
BRANCH  23  26
ATOM     26  C   UNL     1      -3.265   0.937  -0.608  0.00  0.00    -0.078 C 
BRANCH  26  27
ATOM     27  C   UNL     1      -2.532  -0.371  -0.914  0.00  0.00    +0.016 C 
BRANCH  27  30
ATOM     28  C   UNL     1      -0.019   1.526   0.010  0.00  0.00    +0.039 C 
ATOM     29  C   UNL     1       0.002  -0.004   0.002  0.00  0.00    +0.153 C 
ATOM     30  C   UNL     1      -1.409  -0.561   0.072  0.00  0.00    -0.023 C 
ATOM     31  C   UNL     1      -1.423  -1.257   1.211  0.00  0.00    +0.061 C 
ATOM     32  N   UNL     1      -0.222  -1.193   1.828  0.00  0.00    -0.159 NA
ATOM     33  N   UNL     1       0.629  -0.523   1.230  0.00  0.00    -0.180 NA
ATOM     34  C   UNL     1      -2.617  -2.011   1.738  0.00  0.00    +0.067 C 
ENDBRANCH  27  30
ENDBRANCH  26  27
ENDBRANCH  23  26
ENDBRANCH  22  23
ENDBRANCH   1  22
TORSDOF 8
