REMARK  Name = ZINC16806260
REMARK  10 active torsions:
REMARK  status: ('A' for Active; 'I' for Inactive)
REMARK    1  A    between atoms: C_1  and  N_57
REMARK    2  A    between atoms: C_2  and  N_57
REMARK    3  A    between atoms: C_3  and  C_4
REMARK    4  A    between atoms: C_3  and  N_57
REMARK    5  A    between atoms: C_4  and  C_5
REMARK    6  A    between atoms: C_5  and  N_6
REMARK    7  A    between atoms: C_7  and  C_23
REMARK    8  A    between atoms: C_26  and  O_29
REMARK    9  A    between atoms: O_29  and  C_30
REMARK   10  A    between atoms: C_30  and  C_31
REMARK                            x       y       z     vdW  Elec       q    Type
REMARK                         _______ _______ _______ _____ _____    ______ ____
ROOT
ATOM      1  N   UNL     1      -1.038  -0.529   0.895  0.00  0.00    -0.284 N 
ATOM      2  C   UNL     1       0.002  -0.004   0.002  0.00  0.00    +0.144 C 
ATOM      3  C   UNL     1      -0.333  -0.520  -1.373  0.00  0.00    +0.072 A 
ATOM      4  C   UNL     1       0.310  -0.353  -2.680  0.00  0.00    +0.199 A 
ATOM      5  O   UNL     1       1.322   0.311  -2.815  0.00  0.00    -0.287 OA
ATOM      6  C   UNL     1      -0.331  -1.030  -3.825  0.00  0.00    +0.066 A 
ATOM      7  C   UNL     1       0.196  -0.937  -5.112  0.00  0.00    +0.035 A 
ATOM      8  C   UNL     1      -0.435  -1.584  -6.152  0.00  0.00    +0.042 A 
ATOM      9  C   UNL     1      -1.588  -2.323  -5.918  0.00  0.00    +0.023 A 
ATOM     10  C   UNL     1      -2.117  -2.422  -4.650  0.00  0.00    +0.048 A 
ATOM     11  C   UNL     1      -1.497  -1.776  -3.584  0.00  0.00    +0.140 A 
ATOM     12  O   UNL     1      -2.005  -1.866  -2.342  0.00  0.00    -0.450 OA
ATOM     13  C   UNL     1      -1.458  -1.267  -1.266  0.00  0.00    +0.199 A 
ATOM     14  C   UNL     1      -1.887  -1.263   0.156  0.00  0.00    +0.283 C 
ATOM     15  O   UNL     1      -2.864  -1.841   0.588  0.00  0.00    -0.267 OA
ATOM     16 CL   UNL     1       0.213  -1.476  -7.759  0.00  0.00    -0.084 Cl
ENDROOT
BRANCH   2  17
ATOM     17  C   UNL     1      -0.018   1.503   0.010  0.00  0.00    -0.022 A 
ATOM     18  C   UNL     1      -1.226   2.177   0.020  0.00  0.00    +0.009 A 
ATOM     19  C   UNL     1      -1.247   3.558   0.033  0.00  0.00    +0.046 A 
ATOM     20  C   UNL     1      -0.056   4.269   0.025  0.00  0.00    +0.121 A 
ATOM     21  C   UNL     1       1.154   3.591   0.010  0.00  0.00    +0.046 A 
ATOM     22  C   UNL     1       1.170   2.209   0.003  0.00  0.00    +0.009 A 
BRANCH  20  23
ATOM     23  O   UNL     1      -0.074   5.628   0.033  0.00  0.00    -0.483 OA
BRANCH  23  24
ATOM     24  C   UNL     1      -1.356   6.259   0.049  0.00  0.00    +0.324 C 
BRANCH  24  25
ATOM     25  C   UNL     1      -1.179   7.756   0.056  0.00  0.00    +0.248 C 
ATOM     26  O   UNL     1      -0.065   8.234   0.048  0.00  0.00    -0.272 OA
ATOM     27  N   UNL     1      -2.259   8.562   0.071  0.00  0.00    -0.327 N 
ATOM     28  H   UNL     1      -3.150   8.179   0.077  0.00  0.00    +0.145 HD
ATOM     29  H   UNL     1      -2.145   9.525   0.075  0.00  0.00    +0.145 HD
ENDBRANCH  24  25
ENDBRANCH  23  24
ENDBRANCH  20  23
ENDBRANCH   2  17
BRANCH   1  30
ATOM     30  C   UNL     1      -1.134  -0.294   2.338  0.00  0.00    +0.107 C 
BRANCH  30  31
ATOM     31  C   UNL     1      -1.969   0.962   2.596  0.00  0.00    +0.000 C 
BRANCH  31  32
ATOM     32  C   UNL     1      -2.069   1.207   4.103  0.00  0.00    -0.078 C 
BRANCH  32  35
ATOM     33  C   UNL     1      -3.189   2.550   5.778  0.00  0.00    -0.097 C 
ATOM     34  C   UNL     1      -2.189   3.612   3.846  0.00  0.00    -0.097 C 
ATOM     35  N   UNL     1      -2.896   2.410   4.336  0.00  0.00    +0.376 N 
ATOM     36  H   UNL     1      -3.780   2.311   3.824  0.00  0.00    -0.083 HD
ENDBRANCH  32  35
ENDBRANCH  31  32
ENDBRANCH  30  31
ENDBRANCH   1  30
TORSDOF 8
