REMARK  Name = ZINC39582598
REMARK  9 active torsions:
REMARK  status: ('A' for Active; 'I' for Inactive)
REMARK    1  A    between atoms: C_1  and  C_2
REMARK    2  A    between atoms: C_7  and  C_12
REMARK    3  A    between atoms: C_12  and  C_25
REMARK    4  A    between atoms: C_13  and  C_14
REMARK    5  A    between atoms: C_16  and  O_23
REMARK    6  A    between atoms: C_17  and  O_22
REMARK    7  A    between atoms: C_18  and  O_20
REMARK    8  A    between atoms: O_20  and  C_21
REMARK    9  A    between atoms: O_23  and  C_24
REMARK                            x       y       z     vdW  Elec       q    Type
REMARK                         _______ _______ _______ _____ _____    ______ ____
ROOT
ATOM      1  C   UNL     1      -1.151  -5.088   2.003  0.00  0.00    +0.072 C 
ATOM      2  C   UNL     1      -1.020  -6.294   2.595  0.00  0.00    +0.026 C 
ENDROOT
BRANCH   1   9
ATOM      3  C   UNL     1       0.296   1.410  -0.124  0.00  0.00    +0.044 C 
ATOM      4  C   UNL     1       0.145  -0.089  -0.140  0.00  0.00    -0.048 A 
ATOM      5  C   UNL     1      -0.184  -0.722  -1.352  0.00  0.00    +0.005 A 
ATOM      6  C   UNL     1      -0.340  -2.057  -1.456  0.00  0.00    +0.027 A 
ATOM      7  C   UNL     1      -0.162  -2.903  -0.268  0.00  0.00    +0.060 A 
ATOM      8  N   UNL     1      -0.248  -4.187  -0.075  0.00  0.00    -0.359 N 
ATOM      9  C   UNL     1       0.039  -4.440   1.343  0.00  0.00    +0.216 C 
ATOM     10  N   UNL     1       0.303  -3.130   1.952  0.00  0.00    -0.359 N 
ATOM     11  C   UNL     1       0.186  -2.233   1.015  0.00  0.00    +0.061 A 
ATOM     12  C   UNL     1       0.335  -0.771   1.007  0.00  0.00    +0.030 A 
ATOM     13  H   UNL     1      -0.462  -4.855  -0.745  0.00  0.00    +0.162 HD
ATOM     14  H   UNL     1       0.524  -2.963   2.881  0.00  0.00    +0.162 HD
ENDBRANCH   1   9
BRANCH   2  15
ATOM     15  C   UNL     1      -2.208  -6.998   3.099  0.00  0.00    -0.017 A 
ATOM     16  C   UNL     1      -3.410  -6.944   2.385  0.00  0.00    +0.057 A 
ATOM     17  C   UNL     1      -4.525  -7.608   2.862  0.00  0.00    +0.166 A 
ATOM     18  C   UNL     1      -4.453  -8.329   4.050  0.00  0.00    +0.201 A 
ATOM     19  C   UNL     1      -3.258  -8.386   4.763  0.00  0.00    +0.166 A 
ATOM     20  C   UNL     1      -2.137  -7.729   4.290  0.00  0.00    +0.057 A 
BRANCH  19  21
ATOM     21  O   UNL     1      -3.192  -9.091   5.924  0.00  0.00    -0.491 OA
ATOM     22  C   UNL     1      -1.935  -9.106   6.604  0.00  0.00    +0.277 C 
ENDBRANCH  19  21
BRANCH  18  23
ATOM     23  O   UNL     1      -5.552  -8.980   4.516  0.00  0.00    -0.501 OA
ATOM     24  H   UNL     1      -5.634  -9.890   4.199  0.00  0.00    +0.292 HD
ENDBRANCH  18  23
BRANCH  17  25
ATOM     25  O   UNL     1      -5.694  -7.556   2.169  0.00  0.00    -0.491 OA
ATOM     26  C   UNL     1      -5.697  -6.797   0.958  0.00  0.00    +0.277 C 
ENDBRANCH  17  25
ENDBRANCH   2  15
BRANCH   1  27
ATOM     27  C   UNL     1      -2.420  -4.424   2.003  0.00  0.00    +0.099 C 
ATOM     28  N   UNL     1      -3.426  -3.898   2.003  0.00  0.00    -0.191 NA
ENDBRANCH   1  27
TORSDOF 6
