REMARK  Name = ZINC09318376
REMARK  6 active torsions:
REMARK  status: ('A' for Active; 'I' for Inactive)
REMARK    1  A    between atoms: C_1  and  C_2
REMARK    2  A    between atoms: C_2  and  C_4
REMARK    3  A    between atoms: C_2  and  N_55
REMARK    4  A    between atoms: N_6  and  C_7
REMARK    5  A    between atoms: N_17  and  S_20
REMARK    6  A    between atoms: S_20  and  C_23
REMARK                            x       y       z     vdW  Elec       q    Type
REMARK                         _______ _______ _______ _____ _____    ______ ____
ROOT
ATOM      1  C   UNL     1      -2.622  -2.793  -1.504  0.00  0.00    -0.060 C 
ATOM      2  C   UNL     1      -2.197  -4.265  -1.483  0.00  0.00    +0.091 C 
ATOM      3  N   UNL     1      -3.400  -5.097  -1.327  0.00  0.00    -0.180 NA
ATOM      4  C   UNL     1      -4.329  -4.778  -0.232  0.00  0.00    +0.091 C 
ATOM      5  C   UNL     1      -4.670  -3.286  -0.302  0.00  0.00    -0.060 C 
ATOM      6  N   UNL     1      -3.411  -2.510  -0.285  0.00  0.00    +0.389 N 
ATOM      7  H   UNL     1      -2.862  -2.784   0.538  0.00  0.00    -0.081 HD
ENDROOT
BRANCH   3   8
ATOM      8  S   UNL     1      -3.700  -6.359  -2.356  0.00  0.00    +0.061 S 
ATOM      9  O   UNL     1      -2.445  -6.754  -2.892  0.00  0.00    -0.153 OA
ATOM     10  O   UNL     1      -4.548  -7.260  -1.657  0.00  0.00    -0.153 OA
BRANCH   8  11
ATOM     11  C   UNL     1      -4.643  -5.721  -3.701  0.00  0.00    +0.106 A 
ATOM     12  C   UNL     1      -6.035  -5.725  -3.626  0.00  0.00    +0.029 A 
ATOM     13  C   UNL     1      -6.793  -5.235  -4.645  0.00  0.00    +0.010 A 
ATOM     14  C   UNL     1      -6.166  -4.727  -5.796  0.00  0.00    -0.018 A 
ATOM     15  C   UNL     1      -6.915  -4.219  -6.871  0.00  0.00    +0.008 A 
ATOM     16  C   UNL     1      -6.274  -3.736  -7.970  0.00  0.00    +0.001 A 
ATOM     17  C   UNL     1      -4.883  -3.737  -8.047  0.00  0.00    +0.001 A 
ATOM     18  C   UNL     1      -4.125  -4.221  -7.026  0.00  0.00    +0.008 A 
ATOM     19  C   UNL     1      -4.751  -4.729  -5.874  0.00  0.00    -0.016 A 
ATOM     20  C   UNL     1      -4.002  -5.238  -4.800  0.00  0.00    +0.037 A 
ENDBRANCH   8  11
ENDBRANCH   3   8
BRANCH   6  22
ATOM     21  C   UNL     1      -4.468  -0.601  -1.448  0.00  0.00    -0.004 C 
ATOM     22  C   UNL     1      -3.711  -1.065  -0.203  0.00  0.00    +0.017 C 
BRANCH  22  23
ATOM     23  C   UNL     1      -2.414  -0.305  -0.091  0.00  0.00    +0.203 C 
ATOM     24  O   UNL     1      -1.358  -0.902  -0.099  0.00  0.00    -0.277 OA
ATOM     25  N   UNL     1      -2.428   1.038   0.019  0.00  0.00    -0.286 N 
ATOM     26  H   UNL     1      -3.272   1.509   0.106  0.00  0.00    +0.155 HD
BRANCH  25  27
ATOM     27  C   UNL     1      -1.225   1.755   0.006  0.00  0.00    +0.052 A 
ATOM     28  C   UNL     1      -0.102   1.218  -0.610  0.00  0.00    +0.027 A 
ATOM     29  C   UNL     1       1.082   1.928  -0.627  0.00  0.00    +0.040 A 
ATOM     30  C   UNL     1       1.153   3.173  -0.024  0.00  0.00    +0.125 A 
ATOM     31  C   UNL     1       0.037   3.709   0.597  0.00  0.00    +0.060 A 
ATOM     32  C   UNL     1      -1.151   3.001   0.615  0.00  0.00    +0.065 A 
ATOM     33 CL   UNL     1      -2.550   3.673   1.393  0.00  0.00    -0.082 Cl
ATOM     34  F   UNL     1       2.312   3.866  -0.042  0.00  0.00    -0.205 F 
ENDBRANCH  25  27
ENDBRANCH  22  23
ENDBRANCH   6  22
TORSDOF 5
