REMARK  Name = ZINC52839894
REMARK  10 active torsions:
REMARK  status: ('A' for Active; 'I' for Inactive)
REMARK    1  A    between atoms: C_1  and  C_2
REMARK    2  A    between atoms: C_2  and  C_3
REMARK    3  A    between atoms: C_2  and  C_4
REMARK    4  A    between atoms: C_6  and  C_11
REMARK    5  A    between atoms: C_7  and  N_10
REMARK    6  A    between atoms: N_8  and  N_9
REMARK    7  A    between atoms: C_13  and  O_20
REMARK    8  A    between atoms: C_14  and  O_18
REMARK    9  A    between atoms: O_18  and  C_19
REMARK   10  A    between atoms: O_20  and  C_21
REMARK                            x       y       z     vdW  Elec       q    Type
REMARK                         _______ _______ _______ _____ _____    ______ ____
ROOT
ATOM      1  C   UNL     1      -1.412  -0.526   0.013  0.00  0.00    +0.109 A 
ATOM      2  N   UNL     1      -2.417   0.027   0.629  0.00  0.00    -0.340 N 
ATOM      3  C   UNL     1      -3.529  -0.710   0.422  0.00  0.00    +0.089 A 
ATOM      4  C   UNL     1      -3.184  -1.773  -0.365  0.00  0.00    +0.139 A 
ATOM      5  N   UNL     1      -1.846  -1.649  -0.625  0.00  0.00    -0.240 N 
ATOM      6  H   UNL     1      -2.374   0.841   1.155  0.00  0.00    +0.167 HD
ENDROOT
BRANCH   3   7
ATOM      7  C   UNL     1      -4.881  -0.419   0.953  0.00  0.00    +0.019 A 
ATOM      8  C   UNL     1      -5.566   0.722   0.535  0.00  0.00    +0.060 A 
ATOM      9  C   UNL     1      -6.828   0.989   1.033  0.00  0.00    +0.162 A 
ATOM     10  C   UNL     1      -7.414   0.120   1.950  0.00  0.00    +0.163 A 
ATOM     11  C   UNL     1      -6.734  -1.014   2.365  0.00  0.00    +0.065 A 
ATOM     12  C   UNL     1      -5.475  -1.289   1.867  0.00  0.00    +0.031 A 
ATOM     13 BR   UNL     1      -4.554  -2.841   2.431  0.00  0.00    -0.049 Br
BRANCH  10  14
ATOM     14  O   UNL     1      -8.655   0.385   2.439  0.00  0.00    -0.491 OA
ATOM     15  C   UNL     1      -9.195  -0.548   3.377  0.00  0.00    +0.277 C 
ENDBRANCH  10  14
BRANCH   9  16
ATOM     16  O   UNL     1      -7.498   2.101   0.627  0.00  0.00    -0.491 OA
ATOM     17  C   UNL     1      -6.837   2.948  -0.316  0.00  0.00    +0.277 C 
ENDBRANCH   9  16
ENDBRANCH   3   7
BRANCH   1  19
ATOM     18  C   UNL     1      -0.019   1.526   0.010  0.00  0.00    +0.015 C 
ATOM     19  C   UNL     1       0.002  -0.004   0.002  0.00  0.00    +0.049 C 
ATOM     20  C   UNL     1       0.742  -0.511   1.242  0.00  0.00    +0.015 C 
ENDBRANCH   1  19
BRANCH   5  21
ATOM     21  N   UNL     1      -1.085  -2.495  -1.382  0.00  0.00    -0.295 N 
ATOM     22  H   UNL     1      -0.690  -3.230  -0.815  0.00  0.00    +0.163 HD
ATOM     23  H   UNL     1      -1.622  -2.877  -2.146  0.00  0.00    +0.163 HD
ENDBRANCH   5  21
BRANCH   4  24
ATOM     24  N   UNL     1      -4.029  -2.782  -0.818  0.00  0.00    -0.342 N 
ATOM     25  H   UNL     1      -4.968  -2.772  -0.576  0.00  0.00    +0.144 HD
ATOM     26  H   UNL     1      -3.678  -3.494  -1.375  0.00  0.00    +0.144 HD
ENDBRANCH   4  24
TORSDOF 6
