REMARK  Name = ZINC44854569
REMARK  5 active torsions:
REMARK  status: ('A' for Active; 'I' for Inactive)
REMARK    1  A    between atoms: C_4  and  N_7
REMARK    2  A    between atoms: C_8  and  N_35
REMARK    3  A    between atoms: C_10  and  C_30
REMARK    4  A    between atoms: N_19  and  C_22
REMARK    5  A    between atoms: C_22  and  C_23
REMARK                            x       y       z     vdW  Elec       q    Type
REMARK                         _______ _______ _______ _____ _____    ______ ____
ROOT
ATOM      1  N   UNL     1       3.784  -0.634   0.210  0.00  0.00    -0.216 N 
ATOM      2  C   UNL     1       3.959  -1.909   0.613  0.00  0.00    +0.131 A 
ATOM      3  C   UNL     1       5.187  -2.336   0.128  0.00  0.00    +0.087 A 
ATOM      4  C   UNL     1       5.942  -3.532   0.193  0.00  0.00    +0.095 A 
ATOM      5  N   UNL     1       7.123  -3.564  -0.420  0.00  0.00    -0.213 NA
ATOM      6  C   UNL     1       7.604  -2.517  -1.081  0.00  0.00    +0.220 A 
ATOM      7  N   UNL     1       6.968  -1.368  -1.190  0.00  0.00    -0.193 NA
ATOM      8  C   UNL     1       5.760  -1.200  -0.616  0.00  0.00    +0.189 A 
ATOM      9  N   UNL     1       4.888  -0.218  -0.542  0.00  0.00    -0.144 NA
ATOM     10  N   UNL     1       8.841  -2.639  -1.689  0.00  0.00    -0.297 N 
ATOM     11  C   UNL     1       9.600  -3.896  -1.610  0.00  0.00    +0.123 C 
ATOM     12  C   UNL     1      11.020  -3.578  -1.131  0.00  0.00    +0.103 C 
ATOM     13  N   UNL     1      11.608  -2.551  -2.001  0.00  0.00    -0.295 NA
ATOM     14  C   UNL     1      10.858  -1.291  -1.919  0.00  0.00    +0.103 C 
ATOM     15  C   UNL     1       9.429  -1.517  -2.436  0.00  0.00    +0.123 C 
ENDROOT
BRANCH   1  19
ATOM     16  C   UNL     1       0.448   1.712   1.063  0.00  0.00    +0.000 A 
ATOM     17  C   UNL     1       1.700   2.294   0.992  0.00  0.00    +0.002 A 
ATOM     18  C   UNL     1       2.808   1.519   0.710  0.00  0.00    +0.028 A 
ATOM     19  C   UNL     1       2.663   0.154   0.497  0.00  0.00    +0.067 A 
ATOM     20  C   UNL     1       1.404  -0.427   0.570  0.00  0.00    +0.028 A 
ATOM     21  C   UNL     1       0.300   0.353   0.853  0.00  0.00    +0.002 A 
ENDBRANCH   1  19
BRANCH   4  22
ATOM     22  C   UNL     1       5.436  -4.707   0.918  0.00  0.00    +0.038 A 
ATOM     23  C   UNL     1       4.169  -5.265   0.899  0.00  0.00    +0.017 A 
ATOM     24  C   UNL     1       3.993  -6.376   1.692  0.00  0.00    +0.008 A 
ATOM     25  C   UNL     1       5.039  -6.839   2.417  0.00  0.00    +0.046 A 
ATOM     26  S   UNL     1       6.296  -5.789   2.044  0.00  0.00    -0.095 S 
ENDBRANCH   4  22
BRANCH   2  27
ATOM     27  N   UNL     1       3.075  -2.655   1.371  0.00  0.00    -0.342 N 
ATOM     28  H   UNL     1       2.188  -2.311   1.561  0.00  0.00    +0.144 HD
ATOM     29  H   UNL     1       3.342  -3.522   1.714  0.00  0.00    +0.144 HD
ENDBRANCH   2  27
BRANCH  13  30
ATOM     30  C   UNL     1      13.027  -2.341  -1.683  0.00  0.00    +0.119 C 
BRANCH  30  31
ATOM     31  C   UNL     1      13.656  -1.472  -2.741  0.00  0.00    -0.033 A 
ATOM     32  C   UNL     1      14.226  -2.050  -3.861  0.00  0.00    +0.006 A 
ATOM     33  C   UNL     1      14.803  -1.254  -4.832  0.00  0.00    +0.020 A 
ATOM     34  C   UNL     1      14.810   0.121  -4.684  0.00  0.00    +0.041 A 
ATOM     35  C   UNL     1      14.240   0.699  -3.563  0.00  0.00    +0.020 A 
ATOM     36  C   UNL     1      13.658  -0.098  -2.595  0.00  0.00    +0.006 A 
ATOM     37 CL   UNL     1      15.535   1.122  -5.903  0.00  0.00    -0.084 Cl
ENDBRANCH  30  31
ENDBRANCH  13  30
TORSDOF 5
