REMARK  Name = ZINC04331414
REMARK  7 active torsions:
REMARK  status: ('A' for Active; 'I' for Inactive)
REMARK    1  A    between atoms: C_1  and  C_2
REMARK    2  A    between atoms: C_2  and  S_3
REMARK    3  A    between atoms: S_3  and  C_4
REMARK    4  A    between atoms: C_13  and  C_15
REMARK    5  A    between atoms: C_18  and  C_21
REMARK    6  A    between atoms: C_25  and  C_27
REMARK    7  A    between atoms: C_25  and  C_28
REMARK                            x       y       z     vdW  Elec       q    Type
REMARK                         _______ _______ _______ _____ _____    ______ ____
ROOT
ATOM      1  C   UNL     1      -3.395  -5.677  -1.920  0.00  0.00    +0.192 A 
ATOM      2  N   UNL     1      -3.480  -5.230  -0.675  0.00  0.00    -0.207 NA
ATOM      3  C   UNL     1      -2.403  -4.777  -0.037  0.00  0.00    +0.126 A 
ATOM      4  C   UNL     1      -1.177  -4.779  -0.701  0.00  0.00    +0.044 A 
ATOM      5  C   UNL     1      -1.129  -5.256  -2.002  0.00  0.00    +0.133 A 
ATOM      6  N   UNL     1      -2.245  -5.693  -2.579  0.00  0.00    -0.206 NA
ATOM      7  N   UNL     1       0.077  -5.272  -2.682  0.00  0.00    -0.302 N 
ATOM      8  C   UNL     1       1.260  -5.205  -1.999  0.00  0.00    +0.017 C 
ATOM      9  C   UNL     1       1.305  -4.748  -0.729  0.00  0.00    +0.024 C 
ATOM     10  C   UNL     1       0.060  -4.275  -0.021  0.00  0.00    +0.090 C 
ATOM     11  C   UNL     1       2.518  -4.699  -0.020  0.00  0.00    +0.162 C 
ATOM     12  O   UNL     1       2.526  -4.273   1.118  0.00  0.00    -0.292 OA
ATOM     13  C   UNL     1       3.806  -5.164  -0.642  0.00  0.00    +0.086 C 
ATOM     14  C   UNL     1       3.496  -6.242  -1.686  0.00  0.00    -0.023 C 
ATOM     15  C   UNL     1       2.514  -5.660  -2.705  0.00  0.00    +0.058 C 
ATOM     16  C   UNL     1       2.866  -7.456  -0.999  0.00  0.00    +0.011 C 
ATOM     17  C   UNL     1       4.785  -6.662  -2.394  0.00  0.00    +0.011 C 
ATOM     18  N   UNL     1      -2.499  -4.310   1.264  0.00  0.00    -0.343 N 
ATOM     19  H   UNL     1       0.083  -5.330  -3.650  0.00  0.00    +0.153 HD
ATOM     20  H   UNL     1      -3.357  -4.312   1.718  0.00  0.00    +0.144 HD
ATOM     21  H   UNL     1      -1.709  -3.982   1.721  0.00  0.00    +0.144 HD
ENDROOT
BRANCH  10  22
ATOM     22  C   UNL     1       0.039  -2.768  -0.013  0.00  0.00    -0.035 A 
ATOM     23  C   UNL     1       0.041  -2.084   1.188  0.00  0.00    +0.005 A 
ATOM     24  C   UNL     1       0.023  -0.702   1.195  0.00  0.00    +0.003 A 
ATOM     25  C   UNL     1       0.002  -0.004   0.002  0.00  0.00    -0.050 A 
ATOM     26  C   UNL     1      -0.006  -0.689  -1.199  0.00  0.00    +0.003 A 
ATOM     27  C   UNL     1       0.018  -2.071  -1.206  0.00  0.00    +0.005 A 
ATOM     28  C   UNL     1      -0.018   1.503   0.010  0.00  0.00    +0.044 C 
ENDBRANCH  10  22
BRANCH   1  29
ATOM     29  S   UNL     1      -4.850  -6.265  -2.721  0.00  0.00    -0.086 S 
BRANCH  29  31
ATOM     30  C   UNL     1      -7.441  -6.467  -1.878  0.00  0.00    +0.016 C 
ATOM     31  C   UNL     1      -6.060  -6.014  -1.399  0.00  0.00    +0.074 C 
ENDBRANCH  29  31
ENDBRANCH   1  29
TORSDOF 3
