REMARK  Name = ZINC14755238
REMARK  8 active torsions:
REMARK  status: ('A' for Active; 'I' for Inactive)
REMARK    1  A    between atoms: C_3  and  C_7
REMARK    2  A    between atoms: C_7  and  O_8
REMARK    3  A    between atoms: O_8  and  C_9
REMARK    4  A    between atoms: N_15  and  C_17
REMARK    5  A    between atoms: C_17  and  C_18
REMARK    6  A    between atoms: C_24  and  C_25
REMARK    7  A    between atoms: C_24  and  N_68
REMARK    8  A    between atoms: C_30  and  C_31
REMARK                            x       y       z     vdW  Elec       q    Type
REMARK                         _______ _______ _______ _____ _____    ______ ____
ROOT
ATOM      1  C   UNL     1       1.751  -3.674  -1.434  0.00  0.00    +0.120 C 
ATOM      2  C   UNL     1       0.939  -3.956  -2.684  0.00  0.00    -0.044 C 
ATOM      3  C   UNL     1       1.692  -6.234  -3.083  0.00  0.00    +0.019 C 
ATOM      4  C   UNL     1       2.297  -6.635  -1.754  0.00  0.00    +0.199 C 
ATOM      5  O   UNL     1       2.168  -7.771  -1.350  0.00  0.00    -0.278 OA
ATOM      6  N   UNL     1       2.972  -5.742  -1.024  0.00  0.00    -0.300 N 
ATOM      7  C   UNL     1       3.118  -4.359  -1.510  0.00  0.00    +0.137 C 
ATOM      8  N   UNL     1       0.521  -5.367  -2.803  0.00  0.00    +0.390 N 
ATOM      9  H   UNL     1       0.097  -5.663  -1.916  0.00  0.00    -0.081 HD
ENDROOT
BRANCH   1  10
ATOM     10  O   UNL     1       1.939  -2.263  -1.304  0.00  0.00    -0.372 OA
BRANCH  10  11
ATOM     11  C   UNL     1       2.040  -1.812   0.048  0.00  0.00    +0.197 C 
BRANCH  11  14
ATOM     12  C   UNL     1       1.369   1.900   0.127  0.00  0.00    +0.020 A 
ATOM     13  C   UNL     1       1.141   0.532   0.112  0.00  0.00    +0.009 A 
ATOM     14  C   UNL     1       2.235  -0.318   0.066  0.00  0.00    -0.004 A 
ATOM     15  C   UNL     1       3.507   0.222   0.037  0.00  0.00    +0.116 A 
ATOM     16  N   UNL     1       3.686   1.528   0.052  0.00  0.00    -0.263 NA
ATOM     17  C   UNL     1       2.669   2.367   0.096  0.00  0.00    +0.111 A 
ENDBRANCH  11  14
ENDBRANCH  10  11
ENDBRANCH   1  10
BRANCH   6  18
ATOM     18  C   UNL     1       3.566  -6.137   0.255  0.00  0.00    +0.111 C 
BRANCH  18  19
ATOM     19  C   UNL     1       5.035  -6.504   0.043  0.00  0.00    +0.011 C 
ATOM     20  C   UNL     1       5.130  -7.755  -0.836  0.00  0.00    +0.033 C 
ATOM     21  C   UNL     1       6.599  -8.161  -0.978  0.00  0.00    +0.160 C 
ATOM     22  O   UNL     1       7.157  -8.386   0.319  0.00  0.00    -0.380 OA
ATOM     23  C   UNL     1       7.139  -7.237   1.169  0.00  0.00    +0.160 C 
ATOM     24  C   UNL     1       5.691  -6.795   1.397  0.00  0.00    +0.033 C 
ENDBRANCH  18  19
ENDBRANCH   6  18
BRANCH   8  25
ATOM     25  C   UNL     1      -0.475  -5.505  -3.877  0.00  0.00    -0.039 C 
BRANCH  25  26
ATOM     26  C   UNL     1      -1.065  -6.890  -3.805  0.00  0.00    -0.019 A 
ATOM     27  C   UNL     1      -0.742  -7.934  -4.599  0.00  0.00    +0.107 A 
ATOM     28  N   UNL     1      -1.485  -8.994  -4.216  0.00  0.00    -0.284 N 
ATOM     29  H   UNL     1      -1.456  -9.908  -4.621  0.00  0.00    +0.188 HD
ATOM     30  N   UNL     1      -2.304  -8.592  -3.154  0.00  0.00    -0.174 NA
ATOM     31  C   UNL     1      -2.055  -7.324  -2.902  0.00  0.00    +0.094 A 
BRANCH  31  32
ATOM     32  C   UNL     1      -2.702  -6.498  -1.853  0.00  0.00    +0.002 A 
ATOM     33  C   UNL     1      -1.969  -5.523  -1.180  0.00  0.00    +0.013 A 
ATOM     34  C   UNL     1      -2.576  -4.754  -0.208  0.00  0.00    +0.039 A 
ATOM     35  C   UNL     1      -3.910  -4.957   0.106  0.00  0.00    +0.123 A 
ATOM     36  C   UNL     1      -4.641  -5.930  -0.557  0.00  0.00    +0.039 A 
ATOM     37  C   UNL     1      -4.043  -6.700  -1.533  0.00  0.00    +0.013 A 
ATOM     38  F   UNL     1      -4.500  -4.206   1.061  0.00  0.00    -0.205 F 
ENDBRANCH  31  32
ENDBRANCH  25  26
ENDBRANCH   8  25
TORSDOF 8
