REMARK  Name = ZINC12299450
REMARK  10 active torsions:
REMARK  status: ('A' for Active; 'I' for Inactive)
REMARK    1  A    between atoms: C_3  and  C_19
REMARK    2  A    between atoms: C_5  and  O_7
REMARK    3  A    between atoms: O_7  and  C_8
REMARK    4  A    between atoms: C_8  and  C_9
REMARK    5  A    between atoms: C_9  and  C_11
REMARK    6  A    between atoms: C_9  and  O_18
REMARK    7  A    between atoms: C_11  and  N_64
REMARK    8  A    between atoms: C_14  and  O_17
REMARK    9  A    between atoms: C_19  and  N_66
REMARK   10  A    between atoms: C_20  and  N_66
REMARK                            x       y       z     vdW  Elec       q    Type
REMARK                         _______ _______ _______ _____ _____    ______ ____
ROOT
ATOM      1  C   UNL     1       6.195   0.758   0.210  0.00  0.00    +0.004 A 
ATOM      2  C   UNL     1       5.012   0.066   0.391  0.00  0.00    +0.002 A 
ATOM      3  C   UNL     1       4.177   0.384   1.446  0.00  0.00    -0.061 A 
ATOM      4  C   UNL     1       4.527   1.388   2.328  0.00  0.00    +0.047 A 
ATOM      5  C   UNL     1       5.716   2.080   2.152  0.00  0.00    +0.121 A 
ATOM      6  C   UNL     1       6.550   1.763   1.089  0.00  0.00    +0.045 A 
ENDROOT
BRANCH   5   7
ATOM      7  O   UNL     1       6.063   3.068   3.018  0.00  0.00    -0.489 OA
BRANCH   7   8
ATOM      8  C   UNL     1       7.301   3.739   2.775  0.00  0.00    +0.258 C 
BRANCH   8   9
ATOM      9  C   UNL     1       7.520   4.810   3.845  0.00  0.00    +0.135 C 
BRANCH   9  10
ATOM     10  O   UNL     1       7.672   4.185   5.121  0.00  0.00    -0.390 OA
ATOM     11  H   UNL     1       8.420   3.574   5.172  0.00  0.00    +0.210 HD
ENDBRANCH   9  10
BRANCH   9  12
ATOM     12  C   UNL     1       8.781   5.611   3.515  0.00  0.00    -0.044 C 
BRANCH  12  18
ATOM     13  C   UNL     1      10.322   7.252   4.406  0.00  0.00    -0.076 C 
ATOM     14  C   UNL     1      10.573   8.198   5.582  0.00  0.00    +0.013 C 
ATOM     15  C   UNL     1       9.482   9.273   5.608  0.00  0.00    +0.111 C 
ATOM     16  C   UNL     1       8.112   8.596   5.710  0.00  0.00    +0.013 C 
ATOM     17  C   UNL     1       7.933   7.638   4.531  0.00  0.00    -0.076 C 
ATOM     18  N   UNL     1       8.999   6.614   4.577  0.00  0.00    +0.382 N 
ATOM     19  H   UNL     1       8.970   6.145   5.490  0.00  0.00    -0.082 HD
BRANCH  15  20
ATOM     20  O   UNL     1       9.679  10.126   6.737  0.00  0.00    -0.392 OA
ATOM     21  H   UNL     1      10.528  10.588   6.738  0.00  0.00    +0.210 HD
ENDBRANCH  15  20
ENDBRANCH  12  18
ENDBRANCH   9  12
ENDBRANCH   8   9
ENDBRANCH   7   8
ENDBRANCH   5   7
BRANCH   3  22
ATOM     22  C   UNL     1       2.885  -0.369   1.637  0.00  0.00    -0.046 C 
BRANCH  22  23
ATOM     23  N   UNL     1       1.810   0.322   0.900  0.00  0.00    +0.384 N 
ATOM     24  H   UNL     1       2.050   0.355  -0.098  0.00  0.00    -0.085 HD
ATOM     25  H   UNL     1       1.712   1.278   1.260  0.00  0.00    -0.085 HD
BRANCH  23  26
ATOM     26  C   UNL     1       0.531  -0.395   1.069  0.00  0.00    -0.071 C 
ATOM     27  C   UNL     1      -0.144   0.065   2.363  0.00  0.00    -0.016 C 
ATOM     28  C   UNL     1      -1.617  -0.348   2.344  0.00  0.00    -0.002 C 
ATOM     29  C   UNL     1      -1.730  -1.847   2.628  0.00  0.00    -0.000 C 
ATOM     30  C   UNL     1      -1.326  -2.635   1.380  0.00  0.00    -0.000 C 
ATOM     31  C   UNL     1      -1.965  -1.997   0.145  0.00  0.00    -0.000 C 
ATOM     32  C   UNL     1      -0.872  -1.394  -0.741  0.00  0.00    -0.002 C 
ATOM     33  C   UNL     1      -0.379  -0.085  -0.120  0.00  0.00    -0.016 C 
ENDBRANCH  23  26
ENDBRANCH  22  23
ENDBRANCH   3  22
TORSDOF 10
