REMARK  Name = ZINC33657468
REMARK  8 active torsions:
REMARK  status: ('A' for Active; 'I' for Inactive)
REMARK    1  A    between atoms: C_2  and  C_3
REMARK    2  A    between atoms: C_3  and  N_4
REMARK    3  A    between atoms: C_9  and  C_22
REMARK    4  A    between atoms: C_12  and  C_17
REMARK    5  A    between atoms: C_12  and  C_19
REMARK    6  A    between atoms: C_17  and  O_18
REMARK    7  A    between atoms: C_25  and  O_28
REMARK    8  A    between atoms: O_28  and  C_29
REMARK                            x       y       z     vdW  Elec       q    Type
REMARK                         _______ _______ _______ _____ _____    ______ ____
ROOT
ATOM      1  N   UNL     1       6.643   4.735   2.876  0.00  0.00    -0.230 N 
ATOM      2  C   UNL     1       5.364   4.834   2.387  0.00  0.00    +0.225 C 
ATOM      3  O   UNL     1       4.381   5.241   2.969  0.00  0.00    -0.275 OA
ATOM      4  C   UNL     1       5.439   4.352   1.034  0.00  0.00    +0.077 C 
ATOM      5  C   UNL     1       4.706   4.414  -0.243  0.00  0.00    -0.027 C 
ATOM      6  N   UNL     1       5.684   3.808  -1.211  0.00  0.00    +0.397 N 
ATOM      7  C   UNL     1       7.052   3.951  -0.627  0.00  0.00    +0.071 C 
ATOM      8  C   UNL     1       6.881   4.826   0.603  0.00  0.00    +0.088 C 
ATOM      9  C   UNL     1       7.567   4.506   1.894  0.00  0.00    +0.226 C 
ATOM     10  O   UNL     1       8.707   4.123   2.040  0.00  0.00    -0.275 OA
ATOM     11  H   UNL     1       5.442   2.745  -1.360  0.00  0.00    -0.083 HD
ATOM     12  H   UNL     1       5.623   4.337  -2.173  0.00  0.00    -0.083 HD
ENDROOT
BRANCH   5  13
ATOM     13  C   UNL     1       3.443   3.595  -0.175  0.00  0.00    -0.060 A 
ATOM     14  C   UNL     1       2.221   4.223  -0.011  0.00  0.00    +0.005 A 
ATOM     15  C   UNL     1       1.062   3.475   0.051  0.00  0.00    +0.046 A 
ATOM     16  C   UNL     1       1.123   2.093  -0.052  0.00  0.00    +0.128 A 
ATOM     17  C   UNL     1       2.350   1.465  -0.211  0.00  0.00    +0.046 A 
ATOM     18  C   UNL     1       3.506   2.218  -0.277  0.00  0.00    +0.005 A 
BRANCH  16  19
ATOM     19  O   UNL     1      -0.016   1.355   0.009  0.00  0.00    -0.456 OA
BRANCH  19  20
ATOM     20  C   UNL     1       0.101   0.001   0.033  0.00  0.00    +0.128 A 
ATOM     21  C   UNL     1      -0.348  -0.754  -1.042  0.00  0.00    +0.046 A 
ATOM     22  C   UNL     1      -0.223  -2.129  -1.018  0.00  0.00    +0.004 A 
ATOM     23  C   UNL     1       0.338  -2.755   0.080  0.00  0.00    +0.000 A 
ATOM     24  C   UNL     1       0.782  -2.005   1.154  0.00  0.00    +0.004 A 
ATOM     25  C   UNL     1       0.664  -0.629   1.133  0.00  0.00    +0.046 A 
ENDBRANCH  19  20
ENDBRANCH  16  19
ENDBRANCH   5  13
BRANCH   7  26
ATOM     26  C   UNL     1       7.974   4.615  -1.617  0.00  0.00    +0.348 C 
ATOM     27  O   UNL     1       8.820   5.387  -1.231  0.00  0.00    -0.248 OA
ATOM     28  O   UNL     1       7.856   4.349  -2.927  0.00  0.00    -0.248 OA
ENDBRANCH   7  26
BRANCH   1  29
ATOM     29  C   UNL     1       6.982   4.863   4.295  0.00  0.00    +0.204 C 
BRANCH  29  31
ATOM     30  C   UNL     1       7.486   7.399   4.857  0.00  0.00    +0.005 C 
ATOM     31  C   UNL     1       7.262   6.274   4.608  0.00  0.00    -0.086 C 
ENDBRANCH  29  31
ENDBRANCH   1  29
BRANCH   7  32
ATOM     32  C   UNL     1       7.603   2.580  -0.229  0.00  0.00    +0.155 C 
BRANCH  32  33
ATOM     33  O   UNL     1       7.705   1.752  -1.389  0.00  0.00    -0.396 OA
ATOM     34  H   UNL     1       8.084   0.724  -1.299  0.00  0.00    +0.209 HD
ENDBRANCH  32  33
ENDBRANCH   7  32
TORSDOF 8
