REMARK  Name = ZINC02793658
REMARK  13 active torsions:
REMARK  status: ('A' for Active; 'I' for Inactive)
REMARK    1  A    between atoms: C_1  and  C_2
REMARK    2  A    between atoms: C_2  and  C_3
REMARK    3  A    between atoms: C_2  and  C_4
REMARK    4  A    between atoms: C_4  and  N_5
REMARK    5  A    between atoms: N_5  and  C_6
REMARK    6  A    between atoms: C_6  and  N_8
REMARK    7  A    between atoms: N_8  and  N_9
REMARK    8  A    between atoms: C_10  and  C_12
REMARK    9  A    between atoms: C_17  and  C_32
REMARK   10  A    between atoms: C_20  and  C_23
REMARK   11  A    between atoms: C_26  and  C_29
REMARK   12  A    between atoms: C_29  and  C_30
REMARK   13  A    between atoms: C_29  and  C_31
REMARK                            x       y       z     vdW  Elec       q    Type
REMARK                         _______ _______ _______ _____ _____    ______ ____
ROOT
ATOM      1  C   UNL     1      -2.457   0.868   0.018  0.00  0.00    +0.150 A 
ATOM      2  C   UNL     1      -3.755   1.427   0.033  0.00  0.00    +0.078 A 
ATOM      3  C   UNL     1      -4.636   0.408   0.025  0.00  0.00    +0.119 A 
ATOM      4  N   UNL     1      -3.933  -0.763   0.018  0.00  0.00    -0.238 N 
ATOM      5  N   UNL     1      -2.575  -0.448   0.012  0.00  0.00    -0.164 NA
ATOM      6  C   UNL     1      -4.560  -2.088   0.018  0.00  0.00    +0.215 C 
ATOM      7  C   UNL     1      -6.007  -1.952   0.507  0.00  0.00    +0.063 C 
ATOM      8  C   UNL     1      -6.715  -0.833  -0.264  0.00  0.00    +0.104 C 
ATOM      9  N   UNL     1      -6.034   0.443   0.029  0.00  0.00    -0.322 N 
ATOM     10  H   UNL     1      -6.625   1.348   0.232  0.00  0.00    +0.148 HD
ENDROOT
BRANCH   8  11
ATOM     11  C   UNL     1      -6.648  -1.116  -1.743  0.00  0.00    -0.027 A 
ATOM     12  C   UNL     1      -5.498  -0.819  -2.451  0.00  0.00    +0.006 A 
ATOM     13  C   UNL     1      -5.435  -1.083  -3.807  0.00  0.00    +0.004 A 
ATOM     14  C   UNL     1      -6.524  -1.634  -4.456  0.00  0.00    -0.045 A 
ATOM     15  C   UNL     1      -7.675  -1.926  -3.748  0.00  0.00    +0.004 A 
ATOM     16  C   UNL     1      -7.737  -1.667  -2.392  0.00  0.00    +0.006 A 
BRANCH  14  17
ATOM     17  C   UNL     1      -6.456  -1.917  -5.934  0.00  0.00    +0.013 C 
ATOM     18  C   UNL     1      -6.195  -0.613  -6.691  0.00  0.00    +0.012 C 
ATOM     19  C   UNL     1      -5.321  -2.904  -6.213  0.00  0.00    +0.012 C 
ENDBRANCH  14  17
ENDBRANCH   8  11
BRANCH   1  21
ATOM     20  N   UNL     1      -0.011   0.966   0.007  0.00  0.00    -0.230 N 
ATOM     21  C   UNL     1      -1.187   1.624   0.017  0.00  0.00    +0.280 C 
ATOM     22  O   UNL     1      -1.204   2.839   0.023  0.00  0.00    -0.267 OA
ATOM     23  H   UNL     1       0.004  -0.134   0.006  0.00  0.00    +0.173 HD
BRANCH  20  24
ATOM     24  N   UNL     1       1.193   1.683  -0.000  0.00  0.00    -0.246 N 
ATOM     25  H   UNL     1       1.178   2.783   0.006  0.00  0.00    +0.172 HD
BRANCH  24  26
ATOM     26  C   UNL     1       2.369   1.025  -0.015  0.00  0.00    +0.147 C 
ATOM     27  S   UNL     1       3.840   1.901  -0.024  0.00  0.00    -0.017 S 
BRANCH  26  28
ATOM     28  N   UNL     1       2.387  -0.323  -0.022  0.00  0.00    -0.325 N 
ATOM     29  H   UNL     1       1.442  -0.886  -0.017  0.00  0.00    +0.148 HD
BRANCH  28  30
ATOM     30  C   UNL     1       3.666  -1.038  -0.038  0.00  0.00    +0.106 C 
BRANCH  30  32
ATOM     31  C   UNL     1       4.735  -3.291  -0.187  0.00  0.00    +0.009 C 
ATOM     32  C   UNL     1       3.406  -2.546  -0.044  0.00  0.00    -0.000 C 
ATOM     33  C   UNL     1       2.732  -2.952   1.268  0.00  0.00    +0.009 C 
ENDBRANCH  30  32
ENDBRANCH  28  30
ENDBRANCH  26  28
ENDBRANCH  24  26
ENDBRANCH  20  24
ENDBRANCH   1  21
BRANCH   6  34
ATOM     34  C   UNL     1      -3.788  -3.021   0.953  0.00  0.00    +0.412 C 
ATOM     35  F   UNL     1      -3.805  -2.498   2.251  0.00  0.00    -0.168 F 
ATOM     36  F   UNL     1      -4.388  -4.284   0.952  0.00  0.00    -0.168 F 
ATOM     37  F   UNL     1      -2.465  -3.132   0.513  0.00  0.00    -0.168 F 
ENDBRANCH   6  34
TORSDOF 9
