REMARK  Name = ZINC20905525
REMARK  9 active torsions:
REMARK  status: ('A' for Active; 'I' for Inactive)
REMARK    1  A    between atoms: C_1  and  O_2
REMARK    2  A    between atoms: O_2  and  C_3
REMARK    3  A    between atoms: C_3  and  C_5
REMARK    4  A    between atoms: C_9  and  N_10
REMARK    5  A    between atoms: C_11  and  C_13
REMARK    6  A    between atoms: C_13  and  S_14
REMARK    7  A    between atoms: S_14  and  C_15
REMARK    8  A    between atoms: N_20  and  N_21
REMARK    9  A    between atoms: C_22  and  C_23
REMARK                            x       y       z     vdW  Elec       q    Type
REMARK                         _______ _______ _______ _____ _____    ______ ____
ROOT
ATOM      1  C   UNL     1       3.850  -4.339  -0.390  0.00  0.00    +0.211 A 
ATOM      2  N   UNL     1       2.516  -4.074  -0.259  0.00  0.00    -0.186 NA
ATOM      3  C   UNL     1       2.356  -2.716  -0.238  0.00  0.00    +0.232 A 
ATOM      4  N   UNL     1       3.540  -2.166  -0.356  0.00  0.00    -0.245 N 
ATOM      5  N   UNL     1       4.487  -3.194  -0.448  0.00  0.00    -0.144 NA
ATOM      6  N   UNL     1       1.151  -2.039  -0.118  0.00  0.00    -0.205 N 
ATOM      7  H   UNL     1       0.210  -2.603  -0.029  0.00  0.00    +0.177 HD
ATOM      8  H   UNL     1       3.639  -1.070  -0.369  0.00  0.00    +0.192 HD
ENDROOT
BRANCH   6   9
ATOM      9  N   UNL     1       1.132  -0.638  -0.110  0.00  0.00    -0.188 NA
ATOM     10  C   UNL     1       0.002  -0.004   0.002  0.00  0.00    +0.139 C 
BRANCH  10  11
ATOM     11  C   UNL     1      -0.018   1.466   0.010  0.00  0.00    +0.002 A 
ATOM     12  C   UNL     1      -1.223   2.160   0.017  0.00  0.00    +0.010 A 
ATOM     13  C   UNL     1      -1.238   3.547   0.031  0.00  0.00    +0.001 A 
ATOM     14  C   UNL     1      -0.090   4.279   0.025  0.00  0.00    +0.008 A 
ATOM     15  C   UNL     1       1.164   3.644   0.012  0.00  0.00    -0.017 A 
ATOM     16  C   UNL     1       1.229   2.230   0.004  0.00  0.00    -0.009 A 
ATOM     17  C   UNL     1       2.476   1.594  -0.008  0.00  0.00    +0.009 A 
ATOM     18  C   UNL     1       3.614   2.344  -0.013  0.00  0.00    +0.001 A 
ATOM     19  C   UNL     1       3.554   3.736  -0.005  0.00  0.00    +0.001 A 
ATOM     20  C   UNL     1       2.358   4.386   0.007  0.00  0.00    +0.008 A 
ENDBRANCH  10  11
ENDBRANCH   6   9
BRANCH   1  21
ATOM     21  S   UNL     1       4.585  -5.939  -0.468  0.00  0.00    -0.075 S 
BRANCH  21  22
ATOM     22  C   UNL     1       6.326  -5.476  -0.636  0.00  0.00    +0.173 C 
BRANCH  22  24
ATOM     23  N   UNL     1       8.508  -6.622  -0.853  0.00  0.00    -0.279 N 
ATOM     24  C   UNL     1       7.170  -6.722  -0.723  0.00  0.00    +0.228 C 
ATOM     25  O   UNL     1       6.646  -7.814  -0.676  0.00  0.00    -0.275 OA
ATOM     26  H   UNL     1       8.984  -5.631  -0.896  0.00  0.00    +0.155 HD
BRANCH  23  31
ATOM     27  C   UNL     1      10.662  -7.868  -1.074  0.00  0.00    +0.091 A 
ATOM     28  C   UNL     1      11.236  -9.202  -1.129  0.00  0.00    -0.021 A 
ATOM     29  C   UNL     1      10.345 -10.214  -1.046  0.00  0.00    -0.004 A 
ATOM     30  S   UNL     1       8.771  -9.421  -0.890  0.00  0.00    -0.077 S 
ATOM     31  C   UNL     1       9.284  -7.767  -0.933  0.00  0.00    +0.086 A 
ATOM     32  C   UNL     1      10.641 -11.682  -1.082  0.00  0.00    +0.043 C 
ATOM     33  C   UNL     1      12.073 -11.875  -1.603  0.00  0.00    +0.005 C 
ATOM     34  C   UNL     1      13.004 -10.921  -0.849  0.00  0.00    +0.005 C 
ATOM     35  C   UNL     1      12.727  -9.478  -1.275  0.00  0.00    +0.037 C 
BRANCH  27  36
ATOM     36  C   UNL     1      11.506  -6.674  -1.159  0.00  0.00    +0.342 C 
ATOM     37  O   UNL     1      11.964  -6.179  -0.147  0.00  0.00    -0.245 OA
BRANCH  36  39
ATOM     38  C   UNL     1      12.620  -4.942  -2.370  0.00  0.00    +0.280 C 
ATOM     39  O   UNL     1      11.776  -6.124  -2.361  0.00  0.00    -0.464 OA
ENDBRANCH  36  39
ENDBRANCH  27  36
ENDBRANCH  23  31
ENDBRANCH  22  24
ENDBRANCH  21  22
ENDBRANCH   1  21
TORSDOF 8
