REMARK  Name = ZINC09299371
REMARK  9 active torsions:
REMARK  status: ('A' for Active; 'I' for Inactive)
REMARK    1  A    between atoms: C_1  and  C_2
REMARK    2  A    between atoms: C_2  and  C_3
REMARK    3  A    between atoms: C_3  and  N_4
REMARK    4  A    between atoms: N_13  and  C_14
REMARK    5  A    between atoms: C_14  and  C_16
REMARK    6  A    between atoms: C_19  and  S_22
REMARK    7  A    between atoms: S_22  and  N_25
REMARK    8  A    between atoms: C_27  and  C_34
REMARK    9  A    between atoms: C_30  and  C_33
REMARK                            x       y       z     vdW  Elec       q    Type
REMARK                         _______ _______ _______ _____ _____    ______ ____
ROOT
ATOM      1  C   UNL     1       2.774   5.344  -0.115  0.00  0.00    +0.039 A 
ATOM      2  C   UNL     1       1.675   6.203  -0.126  0.00  0.00    +0.015 A 
ATOM      3  C   UNL     1       1.871   7.568  -0.157  0.00  0.00    +0.029 A 
ATOM      4  C   UNL     1       3.154   8.086  -0.189  0.00  0.00    +0.106 A 
ATOM      5  C   UNL     1       4.247   7.239  -0.183  0.00  0.00    +0.029 A 
ATOM      6  C   UNL     1       4.065   5.872  -0.147  0.00  0.00    +0.015 A 
ENDROOT
BRANCH   4   7
ATOM      7  S   UNL     1       3.395   9.830  -0.235  0.00  0.00    +0.061 S 
ATOM      8  O   UNL     1       2.225  10.417   0.318  0.00  0.00    -0.153 OA
ATOM      9  O   UNL     1       4.692  10.075   0.292  0.00  0.00    -0.153 OA
BRANCH   7  10
ATOM     10  N   UNL     1       3.440  10.276  -1.829  0.00  0.00    -0.172 NA
ATOM     11  C   UNL     1       4.711  10.313  -2.570  0.00  0.00    +0.140 C 
ATOM     12  C   UNL     1       4.526   9.526  -3.878  0.00  0.00    +0.131 C 
ATOM     13  O   UNL     1       3.376  10.024  -4.566  0.00  0.00    -0.371 OA
ATOM     14  C   UNL     1       2.148   9.856  -3.852  0.00  0.00    +0.131 C 
ATOM     15  C   UNL     1       2.211  10.654  -2.545  0.00  0.00    +0.140 C 
ATOM     16  C   UNL     1       1.940   8.373  -3.537  0.00  0.00    +0.039 C 
ATOM     17  C   UNL     1       5.764   9.703  -4.758  0.00  0.00    +0.039 C 
ENDBRANCH   7  10
ENDBRANCH   4   7
BRANCH   1  18
ATOM     18  C   UNL     1       2.571   3.877  -0.075  0.00  0.00    +0.269 C 
ATOM     19  O   UNL     1       3.533   3.129  -0.070  0.00  0.00    -0.268 OA
BRANCH  18  29
ATOM     20  N   UNL     1      -0.022   1.370   0.024  0.00  0.00    -0.321 N 
ATOM     21  C   UNL     1      -0.013  -0.013   0.058  0.00  0.00    +0.058 A 
ATOM     22  C   UNL     1      -1.108  -0.890   0.096  0.00  0.00    +0.030 A 
ATOM     23  C   UNL     1      -0.919  -2.251   0.127  0.00  0.00    +0.040 A 
ATOM     24  C   UNL     1       0.354  -2.800   0.121  0.00  0.00    +0.125 A 
ATOM     25  C   UNL     1       1.453  -1.956   0.084  0.00  0.00    +0.055 A 
ATOM     26  C   UNL     1       1.263  -0.595   0.053  0.00  0.00    +0.042 A 
ATOM     27  S   UNL     1       2.351   0.807   0.003  0.00  0.00    -0.052 S 
ATOM     28  C   UNL     1       1.151   2.059  -0.010  0.00  0.00    +0.167 A 
ATOM     29  N   UNL     1       1.333   3.374  -0.045  0.00  0.00    -0.152 NA
ATOM     30  F   UNL     1       0.522  -4.140   0.152  0.00  0.00    -0.205 F 
BRANCH  20  31
ATOM     31  C   UNL     1      -1.296   2.094   0.019  0.00  0.00    +0.124 C 
BRANCH  31  33
ATOM     32  C   UNL     1      -2.526   4.051   0.967  0.00  0.00    +0.005 C 
ATOM     33  C   UNL     1      -1.161   3.369   0.853  0.00  0.00    +0.018 C 
ENDBRANCH  31  33
ENDBRANCH  20  31
ENDBRANCH  18  29
ENDBRANCH   1  18
TORSDOF 6
