REMARK  Name = ZINC45513573
REMARK  8 active torsions:
REMARK  status: ('A' for Active; 'I' for Inactive)
REMARK    1  A    between atoms: C_1  and  C_2
REMARK    2  A    between atoms: C_2  and  C_3
REMARK    3  A    between atoms: C_6  and  O_9
REMARK    4  A    between atoms: O_9  and  C_10
REMARK    5  A    between atoms: C_10  and  C_11
REMARK    6  A    between atoms: C_11  and  C_12
REMARK    7  A    between atoms: C_11  and  C_18
REMARK    8  A    between atoms: C_11  and  N_21
REMARK                            x       y       z     vdW  Elec       q    Type
REMARK                         _______ _______ _______ _____ _____    ______ ____
ROOT
ATOM      1  C   UNL     1      -7.321  -2.704  -1.015  0.00  0.00    +0.153 C 
ENDROOT
BRANCH   1   2
ATOM      2  C   UNL     1      -7.930  -3.056  -2.348  0.00  0.00    -0.015 A 
ATOM      3  C   UNL     1      -7.546  -2.371  -3.486  0.00  0.00    +0.006 A 
ATOM      4  C   UNL     1      -8.104  -2.694  -4.709  0.00  0.00    +0.000 A 
ATOM      5  C   UNL     1      -9.047  -3.701  -4.794  0.00  0.00    +0.000 A 
ATOM      6  C   UNL     1      -9.431  -4.386  -3.656  0.00  0.00    +0.000 A 
ATOM      7  C   UNL     1      -8.869  -4.067  -2.434  0.00  0.00    +0.006 A 
ENDBRANCH   1   2
BRANCH   1   8
ATOM      8  C   UNL     1      -8.156  -1.643  -0.346  0.00  0.00    +0.238 C 
ATOM      9  O   UNL     1      -7.858  -0.473  -0.465  0.00  0.00    -0.274 OA
ATOM     10  N   UNL     1      -9.233  -1.993   0.384  0.00  0.00    -0.327 N 
ATOM     11  H   UNL     1      -9.472  -2.929   0.478  0.00  0.00    +0.145 HD
ATOM     12  H   UNL     1      -9.770  -1.310   0.815  0.00  0.00    +0.145 HD
ENDBRANCH   1   8
BRANCH   1  13
ATOM     13  N   UNL     1      -7.279  -3.902  -0.166  0.00  0.00    -0.311 NA
ATOM     14  H   UNL     1      -6.725  -4.629  -0.593  0.00  0.00    +0.120 HD
ATOM     15  H   UNL     1      -6.934  -3.679   0.756  0.00  0.00    +0.120 HD
ENDBRANCH   1  13
BRANCH   1  16
ATOM     16  C   UNL     1      -5.900  -2.178  -1.227  0.00  0.00    +0.265 C 
BRANCH  16  17
ATOM     17  O   UNL     1      -5.282  -1.955   0.042  0.00  0.00    -0.489 OA
BRANCH  17  21
ATOM     18  C   UNL     1      -1.412  -0.526   0.013  0.00  0.00    -0.047 A 
ATOM     19  C   UNL     1      -2.050  -0.766   1.216  0.00  0.00    +0.007 A 
ATOM     20  C   UNL     1      -3.346  -1.244   1.228  0.00  0.00    +0.046 A 
ATOM     21  C   UNL     1      -4.007  -1.484   0.032  0.00  0.00    +0.121 A 
ATOM     22  C   UNL     1      -3.365  -1.242  -1.173  0.00  0.00    +0.046 A 
ATOM     23  C   UNL     1      -2.071  -0.758  -1.180  0.00  0.00    +0.007 A 
BRANCH  18  25
ATOM     24  C   UNL     1      -0.019   1.526   0.010  0.00  0.00    +0.009 C 
ATOM     25  C   UNL     1       0.002  -0.004   0.002  0.00  0.00    +0.032 C 
ENDBRANCH  18  25
ENDBRANCH  17  21
ENDBRANCH  16  17
ENDBRANCH   1  16
TORSDOF 7
