REMARK  Name = ZINC39990710
REMARK  9 active torsions:
REMARK  status: ('A' for Active; 'I' for Inactive)
REMARK    1  A    between atoms: C_1  and  C_2
REMARK    2  A    between atoms: C_2  and  C_4
REMARK    3  A    between atoms: C_2  and  S_16
REMARK    4  A    between atoms: N_6  and  C_7
REMARK    5  A    between atoms: C_11  and  C_13
REMARK    6  A    between atoms: C_13  and  C_15
REMARK    7  A    between atoms: S_16  and  C_17
REMARK    8  A    between atoms: C_21  and  C_26
REMARK    9  A    between atoms: N_22  and  C_23
REMARK                            x       y       z     vdW  Elec       q    Type
REMARK                         _______ _______ _______ _____ _____    ______ ____
ROOT
ATOM      1  C   UNL     1      -0.180  -0.165   2.851  0.00  0.00    +0.238 C 
ATOM      2  N   UNL     1      -0.304   1.294   2.998  0.00  0.00    -0.237 N 
ATOM      3  N   UNL     1      -1.664   1.594   2.858  0.00  0.00    -0.169 NA
ATOM      4  C   UNL     1      -2.369   0.514   2.648  0.00  0.00    +0.147 C 
ATOM      5  N   UNL     1      -1.560  -0.628   2.625  0.00  0.00    -0.282 N 
ATOM      6  H   UNL     1       0.415   1.924   3.160  0.00  0.00    +0.171 HD
ENDROOT
BRANCH   4   7
ATOM      7  C   UNL     1      -3.761   0.500   2.470  0.00  0.00    +0.022 C 
ATOM      8  C   UNL     1      -4.612   1.603   2.385  0.00  0.00    +0.006 A 
ATOM      9  C   UNL     1      -4.379   2.994   2.445  0.00  0.00    +0.010 A 
ATOM     10  C   UNL     1      -5.421   3.857   2.331  0.00  0.00    +0.001 A 
ATOM     11  C   UNL     1      -6.730   3.404   2.153  0.00  0.00    +0.002 A 
ATOM     12  C   UNL     1      -7.026   2.082   2.087  0.00  0.00    +0.026 A 
ATOM     13  C   UNL     1      -5.990   1.120   2.199  0.00  0.00    +0.043 A 
ATOM     14  N   UNL     1      -6.016  -0.198   2.166  0.00  0.00    -0.380 N 
ATOM     15  C   UNL     1      -4.652  -0.713   2.322  0.00  0.00    +0.152 C 
ATOM     16  H   UNL     1      -6.811  -0.741   2.053  0.00  0.00    +0.160 HD
ENDBRANCH   4   7
BRANCH   5  17
ATOM     17  C   UNL     1      -1.996  -2.011   2.417  0.00  0.00    +0.078 C 
ATOM     18  C   UNL     1      -0.935  -3.108   2.509  0.00  0.00    +0.024 C 
ATOM     19  C   UNL     1      -1.517  -2.720   1.148  0.00  0.00    +0.024 C 
ENDBRANCH   5  17
BRANCH   1  20
ATOM     20  S   UNL     1       0.867  -0.573   1.426  0.00  0.00    -0.106 S 
BRANCH  20  22
ATOM     21  C   UNL     1       0.109   1.771   0.236  0.00  0.00    +0.029 C 
ATOM     22  C   UNL     1       0.053   0.256   0.032  0.00  0.00    +0.133 C 
BRANCH  22  23
ATOM     23  C   UNL     1       0.760  -0.105  -1.248  0.00  0.00    +0.230 C 
ATOM     24  O   UNL     1       1.896  -0.530  -1.215  0.00  0.00    -0.274 OA
ATOM     25  N   UNL     1       0.131   0.043  -2.431  0.00  0.00    -0.285 N 
ATOM     26  H   UNL     1      -0.799   0.320  -2.454  0.00  0.00    +0.155 HD
BRANCH  25  27
ATOM     27  C   UNL     1       0.818  -0.202  -3.625  0.00  0.00    +0.034 A 
ATOM     28  C   UNL     1       0.551   0.568  -4.751  0.00  0.00    +0.023 A 
ATOM     29  C   UNL     1       1.226   0.331  -5.934  0.00  0.00    +0.002 A 
ATOM     30  C   UNL     1       2.170  -0.672  -6.006  0.00  0.00    +0.011 A 
ATOM     31  C   UNL     1       2.447  -1.454  -4.880  0.00  0.00    +0.019 A 
ATOM     32  C   UNL     1       1.768  -1.209  -3.683  0.00  0.00    +0.034 A 
BRANCH  31  33
ATOM     33  C   UNL     1       3.453  -2.525  -4.953  0.00  0.00    +0.160 C 
ATOM     34  O   UNL     1       3.691  -3.201  -3.975  0.00  0.00    -0.292 OA
ATOM     35  C   UNL     1       4.188  -2.782  -6.244  0.00  0.00    +0.091 C 
ENDBRANCH  31  33
ENDBRANCH  25  27
ENDBRANCH  22  23
ENDBRANCH  20  22
ENDBRANCH   1  20
TORSDOF 7
