REMARK  Name = ZINC46815763
REMARK  7 active torsions:
REMARK  status: ('A' for Active; 'I' for Inactive)
REMARK    1  A    between atoms: C_1  and  C_2
REMARK    2  A    between atoms: N_7  and  C_9
REMARK    3  A    between atoms: C_9  and  C_10
REMARK    4  A    between atoms: C_13  and  C_16
REMARK    5  A    between atoms: C_16  and  N_17
REMARK    6  A    between atoms: C_18  and  C_20
REMARK    7  A    between atoms: C_20  and  N_21
REMARK                            x       y       z     vdW  Elec       q    Type
REMARK                         _______ _______ _______ _____ _____    ______ ____
ROOT
ATOM      1  N   UNL     1       1.359  -8.702   0.903  0.00  0.00    -0.310 N 
ATOM      2  C   UNL     1       1.347 -10.021   0.628  0.00  0.00    +0.231 C 
ATOM      3  O   UNL     1       1.901 -10.802   1.373  0.00  0.00    -0.274 OA
ATOM      4  H   UNL     1       0.917  -8.078   0.306  0.00  0.00    +0.149 HD
ENDROOT
BRANCH   1   5
ATOM      5  C   UNL     1       2.042  -8.210   2.102  0.00  0.00    +0.139 C 
BRANCH   5   9
ATOM      6  C   UNL     1       1.666  -3.960   2.315  0.00  0.00    -0.064 A 
ATOM      7  C   UNL     1       0.713  -4.769   2.905  0.00  0.00    +0.002 A 
ATOM      8  C   UNL     1       0.834  -6.144   2.837  0.00  0.00    +0.005 A 
ATOM      9  C   UNL     1       1.909  -6.711   2.177  0.00  0.00    -0.030 A 
ATOM     10  C   UNL     1       2.861  -5.902   1.585  0.00  0.00    +0.005 A 
ATOM     11  C   UNL     1       2.737  -4.527   1.651  0.00  0.00    +0.002 A 
BRANCH   6  12
ATOM     12  C   UNL     1       1.534  -2.461   2.390  0.00  0.00    -0.043 C 
BRANCH  12  18
ATOM     13  C   UNL     1      -0.019   1.526   0.010  0.00  0.00    +0.005 C 
ATOM     14  C   UNL     1       0.002  -0.004   0.002  0.00  0.00    -0.031 C 
ATOM     15  C   UNL     1      -1.434  -0.535   0.015  0.00  0.00    -0.001 C 
ATOM     16  C   UNL     1      -1.402  -2.064   0.086  0.00  0.00    -0.018 C 
ATOM     17  C   UNL     1      -0.613  -2.496   1.324  0.00  0.00    -0.078 C 
ATOM     18  N   UNL     1       0.758  -1.980   1.239  0.00  0.00    +0.383 N 
ATOM     19  C   UNL     1       0.740  -0.512   1.242  0.00  0.00    -0.075 C 
ATOM     20  H   UNL     1       1.188  -2.307   0.386  0.00  0.00    -0.081 HD
ENDBRANCH  12  18
ENDBRANCH   6  12
ENDBRANCH   5   9
ENDBRANCH   1   5
BRANCH   2  21
ATOM     21  C   UNL     1       0.645 -10.527  -0.606  0.00  0.00    +0.209 C 
BRANCH  21  22
ATOM     22  N   UNL     1       0.774 -11.985  -0.678  0.00  0.00    -0.257 N 
ATOM     23  C   UNL     1       1.863 -12.571  -1.340  0.00  0.00    +0.079 A 
ATOM     24  C   UNL     1       2.985 -11.824  -1.656  0.00  0.00    +0.028 A 
ATOM     25  C   UNL     1       4.048 -12.420  -2.309  0.00  0.00    +0.017 A 
ATOM     26  C   UNL     1       3.992 -13.761  -2.648  0.00  0.00    +0.021 A 
ATOM     27  C   UNL     1       2.874 -14.513  -2.334  0.00  0.00    +0.062 A 
ATOM     28  C   UNL     1       1.807 -13.922  -1.680  0.00  0.00    +0.144 A 
ATOM     29  O   UNL     1       0.701 -14.647  -1.361  0.00  0.00    -0.481 OA
ATOM     30  C   UNL     1       0.018 -14.282  -0.160  0.00  0.00    +0.325 C 
ATOM     31  C   UNL     1      -0.150 -12.785  -0.104  0.00  0.00    +0.258 C 
ATOM     32  O   UNL     1      -1.114 -12.300   0.452  0.00  0.00    -0.271 OA
ATOM     33 BR   UNL     1       5.449 -14.568  -3.543  0.00  0.00    -0.050 Br
ENDBRANCH  21  22
ENDBRANCH   2  21
TORSDOF 6
