REMARK  Name = ZINC41514255
REMARK  8 active torsions:
REMARK  status: ('A' for Active; 'I' for Inactive)
REMARK    1  A    between atoms: C_1  and  C_2
REMARK    2  A    between atoms: C_4  and  O_31
REMARK    3  A    between atoms: C_5  and  C_23
REMARK    4  A    between atoms: C_11  and  C_12
REMARK    5  A    between atoms: C_15  and  C_18
REMARK    6  A    between atoms: C_18  and  O_20
REMARK    7  A    between atoms: O_20  and  C_21
REMARK    8  A    between atoms: C_23  and  N_24
REMARK                            x       y       z     vdW  Elec       q    Type
REMARK                         _______ _______ _______ _____ _____    ______ ____
ROOT
ATOM      1  C   UNL     1       0.180   1.487  -0.637  0.00  0.00    +0.045 C 
ATOM      2  C   UNL     1       0.168  -0.013  -0.492  0.00  0.00    -0.033 A 
ATOM      3  C   UNL     1       0.179  -0.808  -1.604  0.00  0.00    +0.050 A 
ATOM      4  C   UNL     1       0.168  -2.193  -1.472  0.00  0.00    +0.122 A 
ATOM      5  C   UNL     1       0.144  -2.782  -0.218  0.00  0.00    +0.020 A 
ATOM      6  C   UNL     1       0.133  -1.989   0.922  0.00  0.00    +0.145 A 
ATOM      7  C   UNL     1       0.150  -0.592   0.777  0.00  0.00    +0.071 A 
ATOM      8  C   UNL     1       0.139  -0.032   2.140  0.00  0.00    +0.232 C 
ATOM      9  O   UNL     1       0.144   1.142   2.464  0.00  0.00    -0.283 OA
ATOM     10  C   UNL     1       0.121  -1.213   3.023  0.00  0.00    +0.176 C 
ATOM     11  C   UNL     1       0.107  -1.200   4.379  0.00  0.00    +0.058 C 
ATOM     12  O   UNL     1       0.109  -2.312   2.234  0.00  0.00    -0.451 OA
ENDROOT
BRANCH  11  13
ATOM     13  C   UNL     1       0.212  -2.460   5.127  0.00  0.00    -0.021 A 
ATOM     14  C   UNL     1       0.319  -2.439   6.523  0.00  0.00    +0.009 A 
ATOM     15  C   UNL     1       0.417  -3.616   7.220  0.00  0.00    +0.015 A 
ATOM     16  C   UNL     1       0.409  -4.836   6.538  0.00  0.00    +0.059 A 
ATOM     17  C   UNL     1       0.302  -4.858   5.144  0.00  0.00    +0.015 A 
ATOM     18  C   UNL     1       0.199  -3.683   4.445  0.00  0.00    +0.009 A 
BRANCH  16  19
ATOM     19  C   UNL     1       0.515  -6.103   7.290  0.00  0.00    +0.339 C 
ATOM     20  O   UNL     1       0.609  -6.084   8.501  0.00  0.00    -0.245 OA
BRANCH  19  21
ATOM     21  O   UNL     1       0.508  -7.279   6.633  0.00  0.00    -0.464 OA
ATOM     22  C   UNL     1       0.614  -8.464   7.423  0.00  0.00    +0.280 C 
ENDBRANCH  19  21
ENDBRANCH  16  19
ENDBRANCH  11  13
BRANCH   4  23
ATOM     23  O   UNL     1       0.178  -2.975  -2.582  0.00  0.00    -0.506 OA
ATOM     24  H   UNL     1       1.063  -3.144  -2.935  0.00  0.00    +0.292 HD
ENDBRANCH   4  23
BRANCH   5  25
ATOM     25  C   UNL     1       0.132  -4.284  -0.090  0.00  0.00    -0.036 C 
BRANCH  25  26
ATOM     26  N   UNL     1      -1.243  -4.777  -0.250  0.00  0.00    +0.383 N 
ATOM     27  C   UNL     1      -2.073  -4.226   0.838  0.00  0.00    -0.078 C 
ATOM     28  C   UNL     1      -3.508  -4.205   0.375  0.00  0.00    -0.019 C 
ATOM     29  C   UNL     1      -4.274  -5.453   0.853  0.00  0.00    -0.002 C 
ATOM     30  C   UNL     1      -3.416  -6.729   0.740  0.00  0.00    -0.002 C 
ATOM     31  C   UNL     1      -2.616  -6.772  -0.537  0.00  0.00    -0.019 C 
ATOM     32  C   UNL     1      -1.218  -6.173  -0.276  0.00  0.00    -0.078 C 
ATOM     33  H   UNL     1      -1.605  -4.444  -1.131  0.00  0.00    -0.081 HD
ENDBRANCH  25  26
ENDBRANCH   5  25
TORSDOF 6
