REMARK  Name = ZINC08790321
REMARK  5 active torsions:
REMARK  status: ('A' for Active; 'I' for Inactive)
REMARK    1  A    between atoms: C_4  and  C_7
REMARK    2  A    between atoms: C_7  and  C_8
REMARK    3  A    between atoms: C_8  and  N_9
REMARK    4  A    between atoms: C_14  and  C_31
REMARK    5  A    between atoms: C_31  and  C_32
REMARK                            x       y       z     vdW  Elec       q    Type
REMARK                         _______ _______ _______ _____ _____    ______ ____
ROOT
ATOM      1  N   UNL     1      -0.110   7.331  -1.398  0.00  0.00    -0.241 N 
ATOM      2  C   UNL     1      -1.245   8.039  -1.389  0.00  0.00    +0.224 C 
ATOM      3  O   UNL     1      -2.363   7.570  -1.392  0.00  0.00    -0.275 OA
ATOM      4  C   UNL     1      -0.917   9.514  -1.374  0.00  0.00    +0.073 C 
ATOM      5  C   UNL     1      -1.341  10.141  -2.719  0.00  0.00    -0.049 C 
ATOM      6  C   UNL     1       0.995  10.163  -2.749  0.00  0.00    +0.050 C 
ATOM      7  C   UNL     1       0.637   9.536  -1.395  0.00  0.00    +0.088 C 
ATOM      8  C   UNL     1       1.006   8.069  -1.403  0.00  0.00    +0.225 C 
ATOM      9  O   UNL     1       2.136   7.631  -1.413  0.00  0.00    -0.275 OA
ATOM     10  C   UNL     1       1.309  11.626  -2.612  0.00  0.00    -0.026 A 
ATOM     11  C   UNL     1       0.593  12.710  -2.153  0.00  0.00    +0.024 A 
ATOM     12  C   UNL     1       1.169  13.969  -2.151  0.00  0.00    +0.041 A 
ATOM     13  C   UNL     1       2.464  14.134  -2.610  0.00  0.00    +0.022 A 
ATOM     14  C   UNL     1       3.183  13.051  -3.071  0.00  0.00    +0.025 A 
ATOM     15  C   UNL     1       2.611  11.781  -3.077  0.00  0.00    +0.036 A 
ATOM     16  N   UNL     1       3.126  10.549  -3.488  0.00  0.00    -0.286 N 
ATOM     17  C   UNL     1       2.239   9.548  -3.329  0.00  0.00    +0.211 C 
ATOM     18  O   UNL     1       2.409   8.379  -3.600  0.00  0.00    -0.277 OA
ATOM     19 CL   UNL     1       0.270  15.336  -1.572  0.00  0.00    -0.084 Cl
ATOM     20  H   UNL     1       4.020  10.428  -3.846  0.00  0.00    +0.155 HD
ATOM     21  N   UNL     1      -0.174   9.949  -3.583  0.00  0.00    +0.394 N 
ATOM     22  H   UNL     1      -0.189  10.626  -4.355  0.00  0.00    -0.083 HD
ATOM     23  H   UNL     1      -0.168   8.995  -3.964  0.00  0.00    -0.083 HD
ENDROOT
BRANCH   1  24
ATOM     24  C   UNL     1      -0.090   5.866  -1.407  0.00  0.00    +0.121 C 
BRANCH  24  25
ATOM     25  C   UNL     1      -0.070   5.347   0.032  0.00  0.00    +0.054 C 
BRANCH  25  29
ATOM     26  C   UNL     1      -0.013   1.076   0.008  0.00  0.00    +0.000 A 
ATOM     27  C   UNL     1      -1.219   1.751   0.017  0.00  0.00    +0.000 A 
ATOM     28  C   UNL     1      -1.238   3.133   0.029  0.00  0.00    +0.004 A 
ATOM     29  C   UNL     1      -0.050   3.840   0.023  0.00  0.00    -0.046 A 
ATOM     30  C   UNL     1       1.156   3.165   0.008  0.00  0.00    +0.004 A 
ATOM     31  C   UNL     1       1.175   1.783   0.000  0.00  0.00    +0.000 A 
ENDBRANCH  25  29
ENDBRANCH  24  25
ENDBRANCH   1  24
BRANCH   5  32
ATOM     32  C   UNL     1      -2.573   9.426  -3.277  0.00  0.00    +0.080 C 
BRANCH  32  33
ATOM     33  C   UNL     1      -2.997  10.086  -4.564  0.00  0.00    +0.209 C 
ATOM     34  O   UNL     1      -2.375  11.034  -4.992  0.00  0.00    -0.276 OA
ATOM     35  N   UNL     1      -4.067   9.621  -5.238  0.00  0.00    -0.329 N 
ATOM     36  H   UNL     1      -4.565   8.863  -4.895  0.00  0.00    +0.145 HD
ATOM     37  H   UNL     1      -4.340  10.046  -6.066  0.00  0.00    +0.145 HD
ENDBRANCH  32  33
ENDBRANCH   5  32
TORSDOF 5
