REMARK  Name = ZINC39533565
REMARK  13 active torsions:
REMARK  status: ('A' for Active; 'I' for Inactive)
REMARK    1  A    between atoms: C_1  and  C_2
REMARK    2  A    between atoms: C_2  and  C_3
REMARK    3  A    between atoms: C_2  and  C_4
REMARK    4  A    between atoms: C_4  and  C_5
REMARK    5  A    between atoms: C_8  and  C_11
REMARK    6  A    between atoms: C_11  and  C_13
REMARK    7  A    between atoms: C_11  and  N_17
REMARK    8  A    between atoms: C_13  and  N_14
REMARK    9  A    between atoms: N_14  and  O_15
REMARK   10  A    between atoms: O_15  and  C_16
REMARK   11  A    between atoms: C_21  and  S_24
REMARK   12  A    between atoms: S_24  and  O_27
REMARK   13  A    between atoms: O_27  and  C_28
REMARK                            x       y       z     vdW  Elec       q    Type
REMARK                         _______ _______ _______ _____ _____    ______ ____
ROOT
ATOM      1  N   UNL     1       7.122   0.002  -1.323  0.00  0.00    -0.296 NA
ATOM      2  C   UNL     1       7.299  -0.785  -0.095  0.00  0.00    +0.066 C 
ATOM      3  C   UNL     1       8.152  -2.018  -0.401  0.00  0.00    -0.064 C 
ATOM      4  N   UNL     1       9.457  -1.594  -0.924  0.00  0.00    +0.398 N 
ATOM      5  C   UNL     1       9.265  -0.830  -2.164  0.00  0.00    +0.130 C 
ATOM      6  C   UNL     1       8.422   0.413  -1.872  0.00  0.00    +0.095 C 
ATOM      7  H   UNL     1       9.920  -1.014  -0.240  0.00  0.00    -0.083 HD
ATOM      8  H   UNL     1      10.024  -2.407  -1.114  0.00  0.00    -0.083 HD
ENDROOT
BRANCH   5   9
ATOM      9  S   UNL     1      10.880  -0.326  -2.819  0.00  0.00    +0.109 S 
ATOM     10  O   UNL     1      10.726   0.257  -4.105  0.00  0.00    -0.138 OA
ATOM     11  O   UNL     1      11.633   0.334  -1.810  0.00  0.00    -0.138 OA
BRANCH   9  12
ATOM     12  O   UNL     1      11.625  -1.629  -3.070  0.00  0.00    -0.347 OA
BRANCH  12  13
ATOM     13  C   UNL     1      11.201  -2.305  -4.169  0.00  0.00    +0.156 A 
ATOM     14  C   UNL     1      10.177  -3.235  -4.061  0.00  0.00    +0.048 A 
ATOM     15  C   UNL     1       9.747  -3.921  -5.181  0.00  0.00    +0.004 A 
ATOM     16  C   UNL     1      10.337  -3.682  -6.408  0.00  0.00    +0.000 A 
ATOM     17  C   UNL     1      11.358  -2.756  -6.519  0.00  0.00    +0.004 A 
ATOM     18  C   UNL     1      11.787  -2.063  -5.403  0.00  0.00    +0.048 A 
ENDBRANCH  12  13
ENDBRANCH   9  12
ENDBRANCH   5   9
BRANCH   1  19
ATOM     19  C   UNL     1       6.260   1.167  -1.083  0.00  0.00    +0.103 C 
BRANCH  19  23
ATOM     20  C   UNL     1       2.165   0.004  -1.436  0.00  0.00    -0.047 A 
ATOM     21  C   UNL     1       2.516   1.337  -1.539  0.00  0.00    +0.004 A 
ATOM     22  C   UNL     1       3.841   1.713  -1.425  0.00  0.00    +0.005 A 
ATOM     23  C   UNL     1       4.815   0.757  -1.207  0.00  0.00    -0.029 A 
ATOM     24  C   UNL     1       4.463  -0.576  -1.103  0.00  0.00    +0.005 A 
ATOM     25  C   UNL     1       3.138  -0.952  -1.213  0.00  0.00    +0.004 A 
BRANCH  20  26
ATOM     26  C   UNL     1       0.720  -0.406  -1.560  0.00  0.00    +0.038 C 
BRANCH  26  28
ATOM     27  C   UNL     1       0.032   1.052   0.348  0.00  0.00    +0.007 C 
ATOM     28  C   UNL     1       0.062  -0.384  -0.179  0.00  0.00    -0.013 C 
ATOM     29  C   UNL     1      -1.367  -0.919  -0.286  0.00  0.00    +0.007 C 
ENDBRANCH  26  28
ENDBRANCH  20  26
ENDBRANCH  19  23
BRANCH  19  30
ATOM     30  C   UNL     1       6.517   1.710   0.324  0.00  0.00    +0.134 C 
BRANCH  30  31
ATOM     31  N   UNL     1       7.925   2.114   0.443  0.00  0.00    -0.200 NA
ATOM     32  H   UNL     1       8.539   1.321   0.338  0.00  0.00    +0.154 HD
BRANCH  31  33
ATOM     33  O   UNL     1       8.167   2.801   1.712  0.00  0.00    -0.303 OA
ATOM     34  C   UNL     1       9.520   3.223   1.895  0.00  0.00    +0.221 C 
ENDBRANCH  31  33
ENDBRANCH  30  31
ENDBRANCH  19  30
ENDBRANCH   1  19
TORSDOF 10
