REMARK  Name = ZINC52859109
REMARK  4 active torsions:
REMARK  status: ('A' for Active; 'I' for Inactive)
REMARK    1  A    between atoms: C_3  and  N_11
REMARK    2  A    between atoms: C_4  and  C_8
REMARK    3  A    between atoms: C_8  and  N_10
REMARK    4  A    between atoms: N_11  and  C_12
REMARK                            x       y       z     vdW  Elec       q    Type
REMARK                         _______ _______ _______ _____ _____    ______ ____
ROOT
ATOM      1  C   UNL     1      -0.015   1.386   0.016  0.00  0.00    +0.022 A 
ATOM      2  C   UNL     1       1.169   2.097   0.011  0.00  0.00    +0.025 A 
ATOM      3  C   UNL     1       2.384   1.426  -0.010  0.00  0.00    +0.037 A 
ATOM      4  C   UNL     1       2.403   0.022  -0.027  0.00  0.00    +0.025 A 
ATOM      5  C   UNL     1       1.197  -0.684  -0.022  0.00  0.00    +0.032 A 
ATOM      6  C   UNL     1      -0.000  -0.000  -0.001  0.00  0.00    +0.042 A 
ATOM      7 CL   UNL     1      -1.497  -0.879   0.006  0.00  0.00    -0.084 Cl
ENDROOT
BRANCH   4   8
ATOM      8  C   UNL     1       3.685  -0.701  -0.051  0.00  0.00    +0.079 C 
ATOM      9  S   UNL     1       4.386  -1.249   1.412  0.00  0.00    -0.035 S 
BRANCH   8  10
ATOM     10  N   UNL     1       4.307  -0.932  -1.224  0.00  0.00    -0.352 N 
ATOM     11  H   UNL     1       3.910  -0.622  -2.053  0.00  0.00    +0.143 HD
ATOM     12  H   UNL     1       5.152  -1.409  -1.239  0.00  0.00    +0.143 HD
ENDBRANCH   8  10
ENDBRANCH   4   8
BRANCH   3  13
ATOM     13  N   UNL     1       3.576   2.141  -0.016  0.00  0.00    -0.332 N 
ATOM     14  H   UNL     1       4.423   1.672   0.047  0.00  0.00    +0.147 HD
BRANCH  13  15
ATOM     15  C   UNL     1       3.554   3.602  -0.116  0.00  0.00    +0.157 C 
ATOM     16  C   UNL     1       4.830   4.174   0.507  0.00  0.00    +0.033 C 
ATOM     17  C   UNL     1       4.918   5.663   0.151  0.00  0.00    +0.021 C 
ATOM     18  C   UNL     1       5.151   5.793  -1.355  0.00  0.00    +0.104 C 
ATOM     19  N   UNL     1       4.176   4.999  -2.092  0.00  0.00    -0.314 N 
ATOM     20  C   UNL     1       3.470   4.002  -1.561  0.00  0.00    +0.233 C 
ATOM     21  O   UNL     1       2.718   3.384  -2.284  0.00  0.00    -0.274 OA
ATOM     22  H   UNL     1       4.033   5.210  -3.028  0.00  0.00    +0.149 HD
ENDBRANCH  13  15
ENDBRANCH   3  13
TORSDOF 4
