REMARK  Name = ZINC12698368
REMARK  5 active torsions:
REMARK  status: ('A' for Active; 'I' for Inactive)
REMARK    1  A    between atoms: C_3  and  C_6
REMARK    2  A    between atoms: C_8  and  C_11
REMARK    3  A    between atoms: C_11  and  C_12
REMARK    4  A    between atoms: N_14  and  N_15
REMARK    5  A    between atoms: C_16  and  C_18
REMARK                            x       y       z     vdW  Elec       q    Type
REMARK                         _______ _______ _______ _____ _____    ______ ____
ROOT
ATOM      1  C   UNL     1       3.996  -0.470   1.126  0.00  0.00    +0.235 C 
ATOM      2  O   UNL     1       3.124  -0.834   1.887  0.00  0.00    -0.274 OA
ATOM      3  N   UNL     1       5.267  -0.875   1.314  0.00  0.00    -0.234 N 
ATOM      4  H   UNL     1       5.964  -0.584   0.705  0.00  0.00    +0.173 HD
ENDROOT
BRANCH   3   5
ATOM      5  N   UNL     1       5.583  -1.717   2.388  0.00  0.00    -0.230 N 
ATOM      6  C   UNL     1       6.854  -2.123   2.576  0.00  0.00    +0.267 C 
ATOM      7  O   UNL     1       7.729  -1.757   1.812  0.00  0.00    -0.268 OA
ATOM      8  H   UNL     1       4.886  -2.009   2.997  0.00  0.00    +0.173 HD
BRANCH   6   9
ATOM      9  C   UNL     1       7.184  -3.003   3.700  0.00  0.00    +0.076 A 
ATOM     10  C   UNL     1       8.404  -3.527   4.067  0.00  0.00    +0.024 A 
ATOM     11  C   UNL     1       8.462  -4.341   5.201  0.00  0.00    -0.036 A 
ATOM     12  C   UNL     1       7.297  -4.604   5.827  0.00  0.00    -0.006 A 
ATOM     13  S   UNL     1       6.115  -3.674   4.958  0.00  0.00    -0.088 S 
ATOM     14  C   UNL     1       6.931  -5.518   6.967  0.00  0.00    +0.043 C 
ATOM     15  C   UNL     1       8.135  -6.304   7.490  0.00  0.00    +0.005 C 
ATOM     16  C   UNL     1       8.980  -5.442   8.414  0.00  0.00    +0.000 C 
ATOM     17  C   UNL     1       9.073  -4.002   7.950  0.00  0.00    +0.000 C 
ATOM     18  C   UNL     1      10.204  -3.934   6.919  0.00  0.00    +0.005 C 
ATOM     19  C   UNL     1       9.824  -4.790   5.711  0.00  0.00    +0.036 C 
ENDBRANCH   6   9
ENDBRANCH   3   5
BRANCH   1  20
ATOM     20  C   UNL     1       3.656   0.435  -0.030  0.00  0.00    +0.153 C 
BRANCH  20  23
ATOM     21  C   UNL     1       0.002  -0.004   0.002  0.00  0.00    +0.115 A 
ATOM     22  N   UNL     1       1.308  -0.244  -0.012  0.00  0.00    -0.243 NA
ATOM     23  C   UNL     1       2.180   0.738  -0.015  0.00  0.00    +0.058 A 
ATOM     24  C   UNL     1       1.750   2.026  -0.004  0.00  0.00    +0.071 A 
ATOM     25  S   UNL     1      -0.022   1.784   0.012  0.00  0.00    -0.075 S 
BRANCH  21  28
ATOM     26  C   UNL     1      -3.345  -1.760   0.025  0.00  0.00    +0.008 A 
ATOM     27  C   UNL     1      -2.470  -0.697   0.028  0.00  0.00    +0.018 A 
ATOM     28  C   UNL     1      -1.122  -0.953   0.008  0.00  0.00    +0.044 A 
ATOM     29  S   UNL     1      -1.087  -2.738  -0.001  0.00  0.00    -0.095 S 
ATOM     30  C   UNL     1      -2.849  -3.025   0.014  0.00  0.00    +0.046 A 
ENDBRANCH  21  28
ENDBRANCH  20  23
ENDBRANCH   1  20
TORSDOF 5
