REMARK  Name = ZINC30801159
REMARK  5 active torsions:
REMARK  status: ('A' for Active; 'I' for Inactive)
REMARK    1  A    between atoms: C_1  and  O_2
REMARK    2  A    between atoms: O_2  and  C_3
REMARK    3  A    between atoms: C_6  and  C_13
REMARK    4  A    between atoms: N_15  and  N_16
REMARK    5  A    between atoms: C_17  and  C_19
REMARK                            x       y       z     vdW  Elec       q    Type
REMARK                         _______ _______ _______ _____ _____    ______ ____
ROOT
ATOM      1  C   UNL     1      -1.900   7.416   0.060  0.00  0.00    +0.267 C 
ATOM      2  O   UNL     1      -1.061   8.297   0.057  0.00  0.00    -0.268 OA
ATOM      3  N   UNL     1      -3.210   7.732   0.073  0.00  0.00    -0.230 N 
ATOM      4  H   UNL     1      -3.969   6.936   0.075  0.00  0.00    +0.173 HD
ENDROOT
BRANCH   1   8
ATOM      5  C   UNL     1       1.180   3.364   0.009  0.00  0.00    +0.227 A 
ATOM      6  C   UNL     1      -0.037   4.107   0.025  0.00  0.00    +0.070 A 
ATOM      7  C   UNL     1      -0.225   5.496   0.033  0.00  0.00    +0.036 A 
ATOM      8  C   UNL     1      -1.486   6.009   0.049  0.00  0.00    +0.078 A 
ATOM      9  S   UNL     1      -2.511   4.548   0.051  0.00  0.00    -0.064 S 
ATOM     10  C   UNL     1      -1.221   3.329   0.032  0.00  0.00    +0.118 A 
ATOM     11  N   UNL     1      -1.181   2.013   0.019  0.00  0.00    -0.207 NA
ATOM     12  C   UNL     1      -0.017   1.378   0.010  0.00  0.00    +0.217 A 
ATOM     13  N   UNL     1       1.132   2.046   0.002  0.00  0.00    -0.179 NA
ATOM     14  N   UNL     1       0.002  -0.004   0.002  0.00  0.00    -0.327 N 
ATOM     15  H   UNL     1       0.962  -0.541  -0.006  0.00  0.00    +0.145 HD
ATOM     16  H   UNL     1      -0.943  -0.567   0.004  0.00  0.00    +0.145 HD
BRANCH   5  18
ATOM     17  C   UNL     1       3.546   3.189  -0.016  0.00  0.00    +0.279 C 
ATOM     18  O   UNL     1       2.372   4.004   0.001  0.00  0.00    -0.479 OA
ENDBRANCH   5  18
ENDBRANCH   1   8
BRANCH   3  19
ATOM     19  N   UNL     1      -3.606   9.076   0.084  0.00  0.00    -0.230 N 
ATOM     20  C   UNL     1      -4.916   9.393   0.097  0.00  0.00    +0.267 C 
ATOM     21  O   UNL     1      -5.755   8.511   0.100  0.00  0.00    -0.268 OA
ATOM     22  H   UNL     1      -2.848   9.873   0.081  0.00  0.00    +0.173 HD
BRANCH  20  23
ATOM     23  C   UNL     1      -5.330  10.799   0.108  0.00  0.00    +0.076 A 
ATOM     24  C   UNL     1      -6.606  11.333   0.122  0.00  0.00    +0.024 A 
ATOM     25  C   UNL     1      -6.736  12.717   0.138  0.00  0.00    -0.036 A 
ATOM     26  C   UNL     1      -5.589  13.433   0.108  0.00  0.00    -0.006 A 
ATOM     27  S   UNL     1      -4.320  12.271   0.115  0.00  0.00    -0.088 S 
ATOM     28  C   UNL     1      -5.465  14.939   0.065  0.00  0.00    +0.043 C 
ATOM     29  C   UNL     1      -5.954  15.475   1.421  0.00  0.00    +0.005 C 
ATOM     30  C   UNL     1      -7.464  15.495   1.464  0.00  0.00    +0.001 C 
ATOM     31  C   UNL     1      -8.150  14.157   1.559  0.00  0.00    +0.005 C 
ATOM     32  C   UNL     1      -8.108  13.394   0.234  0.00  0.00    +0.036 C 
ENDBRANCH  20  23
ENDBRANCH   3  19
TORSDOF 4
