REMARK  Name = ZINC63883006
REMARK  8 active torsions:
REMARK  status: ('A' for Active; 'I' for Inactive)
REMARK    1  A    between atoms: C_1  and  C_2
REMARK    2  A    between atoms: C_5  and  S_7
REMARK    3  A    between atoms: S_7  and  C_8
REMARK    4  A    between atoms: C_8  and  C_9
REMARK    5  A    between atoms: N_11  and  C_12
REMARK    6  A    between atoms: C_12  and  C_13
REMARK    7  A    between atoms: C_13  and  C_14
REMARK    8  A    between atoms: C_14  and  C_15
REMARK                            x       y       z     vdW  Elec       q    Type
REMARK                         _______ _______ _______ _____ _____    ______ ____
ROOT
ATOM      1  C   UNL     1       0.125  -9.791  -2.567  0.00  0.00    +0.022 C 
ENDROOT
BRANCH   1   2
ATOM      2  C   UNL     1       0.119  -9.033  -1.238  0.00  0.00    +0.104 C 
BRANCH   2   5
ATOM      3  C   UNL     1       0.091  -6.720  -0.470  0.00  0.00    +0.223 C 
ATOM      4  O   UNL     1       0.100  -7.130   0.672  0.00  0.00    -0.275 OA
ATOM      5  N   UNL     1       0.099  -7.591  -1.498  0.00  0.00    -0.315 N 
ATOM      6  H   UNL     1       0.091  -7.263  -2.411  0.00  0.00    +0.149 HD
BRANCH   3   7
ATOM      7  C   UNL     1       0.070  -5.237  -0.738  0.00  0.00    +0.172 C 
BRANCH   7   8
ATOM      8  S   UNL     1       0.064  -4.338   0.838  0.00  0.00    -0.088 S 
BRANCH   8  13
ATOM      9  C   UNL     1      -0.018   1.503   0.010  0.00  0.00    +0.075 C 
ATOM     10  C   UNL     1       0.002  -0.004   0.002  0.00  0.00    +0.100 A 
ATOM     11  N   UNL     1       0.010  -0.845  -1.012  0.00  0.00    -0.146 NA
ATOM     12  N   UNL     1       0.027  -2.095  -0.849  0.00  0.00    -0.135 NA
ATOM     13  C   UNL     1       0.039  -2.642   0.360  0.00  0.00    +0.159 A 
ATOM     14  S   UNL     1       0.031  -1.162   1.368  0.00  0.00    -0.044 S 
ENDBRANCH   8  13
ENDBRANCH   7   8
ENDBRANCH   3   7
ENDBRANCH   2   5
ENDBRANCH   1   2
BRANCH   1  15
ATOM     15  C   UNL     1       0.146 -11.296  -2.294  0.00  0.00    +0.048 C 
BRANCH  15  16
ATOM     16  C   UNL     1       0.151 -12.055  -3.623  0.00  0.00    +0.174 C 
ATOM     17  N   UNL     1       1.417 -11.823  -4.330  0.00  0.00    -0.363 N 
ATOM     18  C   UNL     1       1.999 -12.978  -4.479  0.00  0.00    +0.060 A 
ATOM     19  C   UNL     1       3.268 -13.385  -5.098  0.00  0.00    +0.029 A 
ATOM     20  C   UNL     1       3.618 -14.686  -5.104  0.00  0.00    +0.022 A 
ATOM     21  C   UNL     1       2.813 -15.691  -4.534  0.00  0.00    +0.043 A 
ATOM     22  C   UNL     1       1.631 -15.425  -3.940  0.00  0.00    +0.047 A 
ATOM     23  C   UNL     1       1.147 -14.040  -3.876  0.00  0.00    +0.062 A 
ATOM     24  N   UNL     1       0.070 -13.500  -3.379  0.00  0.00    -0.363 N 
ATOM     25 CL   UNL     1       3.364 -17.336  -4.597  0.00  0.00    -0.083 Cl
ATOM     26  H   UNL     1       1.758 -10.967  -4.632  0.00  0.00    +0.162 HD
ATOM     27  H   UNL     1      -0.652 -13.967  -2.929  0.00  0.00    +0.162 HD
ENDBRANCH  15  16
ENDBRANCH   1  15
TORSDOF 7
