REMARK  Name = ZINC08763689
REMARK  5 active torsions:
REMARK  status: ('A' for Active; 'I' for Inactive)
REMARK    1  A    between atoms: C_3  and  N_24
REMARK    2  A    between atoms: C_6  and  C_7
REMARK    3  A    between atoms: N_12  and  N_13
REMARK    4  A    between atoms: C_14  and  C_15
REMARK    5  A    between atoms: C_20  and  O_21
REMARK                            x       y       z     vdW  Elec       q    Type
REMARK                         _______ _______ _______ _____ _____    ______ ____
ROOT
ATOM      1  C   UNL     1      -1.264  -0.763   0.011  0.00  0.00    +0.080 A 
ATOM      2  C   UNL     1      -1.262  -2.186   0.008  0.00  0.00    +0.077 A 
ATOM      3  S   UNL     1      -2.907  -2.546   0.021  0.00  0.00    -0.059 S 
ATOM      4  C   UNL     1      -3.535  -0.876   0.029  0.00  0.00    +0.178 A 
ATOM      5  N   UNL     1      -2.412  -0.149   0.026  0.00  0.00    -0.224 NA
ATOM      6  N   UNL     1      -4.809  -0.456   0.039  0.00  0.00    -0.215 N 
ATOM      7  H   UNL     1      -5.007   0.494   0.042  0.00  0.00    +0.176 HD
ENDROOT
BRANCH   1  13
ATOM      8  C   UNL     1      -0.017   1.395   0.010  0.00  0.00    +0.012 A 
ATOM      9  C   UNL     1       1.169   2.097   0.002  0.00  0.00    +0.033 A 
ATOM     10  C   UNL     1       2.378   1.421  -0.013  0.00  0.00    +0.126 A 
ATOM     11  C   UNL     1       2.405   0.036  -0.021  0.00  0.00    +0.033 A 
ATOM     12  C   UNL     1       1.228  -0.680  -0.014  0.00  0.00    +0.012 A 
ATOM     13  C   UNL     1       0.002  -0.004   0.002  0.00  0.00    +0.001 A 
BRANCH  10  14
ATOM     14  N   UNL     1       3.647   2.182  -0.022  0.00  0.00    +0.056 N 
ATOM     15  O   UNL     1       3.626   3.499  -0.016  0.00  0.00    -0.126 OA
ATOM     16  O   UNL     1       4.799   1.543  -0.037  0.00  0.00    -0.126 OA
ENDBRANCH  10  14
ENDBRANCH   1  13
BRANCH   6  17
ATOM     17  N   UNL     1      -5.772  -1.315   0.045  0.00  0.00    -0.188 NA
ATOM     18  C   UNL     1      -7.028  -0.901   0.055  0.00  0.00    +0.142 C 
BRANCH  18  19
ATOM     19  C   UNL     1      -8.081  -1.842   0.062  0.00  0.00    +0.038 A 
ATOM     20  C   UNL     1      -9.421  -1.409   0.067  0.00  0.00    +0.028 A 
ATOM     21  C   UNL     1     -10.432  -2.323   0.073  0.00  0.00    +0.020 A 
ATOM     22  C   UNL     1     -10.154  -3.687   0.076  0.00  0.00    +0.034 A 
ATOM     23  C   UNL     1      -8.848  -4.138   0.071  0.00  0.00    +0.061 A 
ATOM     24  C   UNL     1      -7.800  -3.229   0.058  0.00  0.00    +0.139 A 
ATOM     25 BR   UNL     1      -8.490  -5.995   0.075  0.00  0.00    -0.046 Br
ATOM     26 BR   UNL     1     -12.229  -1.733   0.080  0.00  0.00    -0.050 Br
BRANCH  24  27
ATOM     27  O   UNL     1      -6.518  -3.666   0.047  0.00  0.00    -0.505 OA
ATOM     28  H   UNL     1      -6.138  -3.794   0.927  0.00  0.00    +0.292 HD
ENDBRANCH  24  27
ENDBRANCH  18  19
ENDBRANCH   6  17
TORSDOF 5
