REMARK  Name = ZINC39958856
REMARK  7 active torsions:
REMARK  status: ('A' for Active; 'I' for Inactive)
REMARK    1  A    between atoms: C_1  and  C_2
REMARK    2  A    between atoms: C_2  and  C_30
REMARK    3  A    between atoms: C_4  and  N_10
REMARK    4  A    between atoms: C_6  and  C_8
REMARK    5  A    between atoms: C_6  and  C_9
REMARK    6  A    between atoms: C_11  and  C_13
REMARK    7  A    between atoms: C_16  and  C_20
REMARK                            x       y       z     vdW  Elec       q    Type
REMARK                         _______ _______ _______ _____ _____    ______ ____
ROOT
ATOM      1  N   UNL     1       2.615  -0.819  -2.626  0.00  0.00    -0.309 N 
ATOM      2  C   UNL     1       3.770  -0.334  -3.123  0.00  0.00    +0.259 C 
ATOM      3  O   UNL     1       4.374   0.530  -2.523  0.00  0.00    -0.271 OA
ATOM      4  H   UNL     1       2.133  -1.510  -3.106  0.00  0.00    +0.149 HD
ENDROOT
BRANCH   1   8
ATOM      5  C   UNL     1      -0.019   1.528   0.010  0.00  0.00    -0.010 C 
ATOM      6  C   UNL     1       0.002  -0.004   0.002  0.00  0.00    -0.072 C 
ATOM      7  C   UNL     1       0.573  -0.505  -1.321  0.00  0.00    +0.009 C 
ATOM      8  C   UNL     1       2.088  -0.301  -1.357  0.00  0.00    +0.070 C 
ATOM      9  C   UNL     1       2.703  -1.086  -0.198  0.00  0.00    +0.009 C 
ATOM     10  C   UNL     1       2.147  -0.590   1.133  0.00  0.00    -0.072 C 
ATOM     11  N   UNL     1       0.697  -0.529   1.164  0.00  0.00    +0.386 N 
ATOM     12  C   UNL     1       2.769   0.766   1.481  0.00  0.00    -0.010 C 
ATOM     13  C   UNL     1       2.600  -1.589   2.223  0.00  0.00    -0.010 C 
ATOM     14  C   UNL     1      -1.468  -0.478   0.079  0.00  0.00    -0.010 C 
ATOM     15  H   UNL     1       0.416   0.021   1.982  0.00  0.00    -0.084 HD
ATOM     16  H   UNL     1       0.341  -1.472   1.351  0.00  0.00    -0.084 HD
ENDBRANCH   1   8
BRANCH   2  17
ATOM     17  C   UNL     1       4.312  -0.866  -4.426  0.00  0.00    +0.297 C 
ATOM     18  N   UNL     1       4.757  -2.274  -4.264  0.00  0.00    -0.262 NA
ATOM     19  C   UNL     1       4.687  -2.799  -5.654  0.00  0.00    +0.180 C 
ATOM     20  N   UNL     1       3.489  -2.134  -6.218  0.00  0.00    -0.177 NA
ATOM     21  O   UNL     1       3.270  -0.918  -5.417  0.00  0.00    -0.270 OA
ATOM     22  H   UNL     1       5.701  -2.316  -3.909  0.00  0.00    +0.127 HD
ATOM     23  H   UNL     1       3.627  -1.904  -7.191  0.00  0.00    +0.156 HD
BRANCH  19  24
ATOM     24  C   UNL     1       4.511  -4.296  -5.647  0.00  0.00    -0.014 C 
ATOM     25  C   UNL     1       5.449  -5.097  -6.237  0.00  0.00    +0.012 C 
ATOM     26  C   UNL     1       5.215  -6.479  -6.120  0.00  0.00    -0.018 C 
ATOM     27  C   UNL     1       5.508  -7.527  -6.907  0.00  0.00    +0.025 C 
ATOM     28  C   UNL     1       4.786  -8.659  -6.466  0.00  0.00    +0.106 C 
ATOM     29  N   UNL     1       4.137  -8.427  -5.360  0.00  0.00    -0.279 NA
ATOM     30  C   UNL     1       4.451  -7.068  -4.944  0.00  0.00    +0.158 C 
ATOM     31  C   UNL     1       3.265  -6.187  -4.689  0.00  0.00    +0.004 C 
ATOM     32  C   UNL     1       3.343  -4.890  -5.004  0.00  0.00    +0.005 C 
ENDBRANCH  19  24
ENDBRANCH   2  17
TORSDOF 3
