REMARK  Name = ZINC63316198
REMARK  10 active torsions:
REMARK  status: ('A' for Active; 'I' for Inactive)
REMARK    1  A    between atoms: C_1  and  C_2
REMARK    2  A    between atoms: C_4  and  N_35
REMARK    3  A    between atoms: C_5  and  C_34
REMARK    4  A    between atoms: N_7  and  C_8
REMARK    5  A    between atoms: C_8  and  C_9
REMARK    6  A    between atoms: C_11  and  C_17
REMARK    7  A    between atoms: C_14  and  O_15
REMARK    8  A    between atoms: O_15  and  C_16
REMARK    9  A    between atoms: C_24  and  O_29
REMARK   10  A    between atoms: O_29  and  C_30
REMARK                            x       y       z     vdW  Elec       q    Type
REMARK                         _______ _______ _______ _____ _____    ______ ____
ROOT
ATOM      1  C   UNL     1       0.653  -1.775   3.244  0.00  0.00    +0.010 A 
ATOM      2  C   UNL     1       0.352  -1.191   4.460  0.00  0.00    +0.013 A 
ATOM      3  C   UNL     1       1.046  -1.560   5.597  0.00  0.00    -0.028 A 
ATOM      4  C   UNL     1       2.043  -2.516   5.521  0.00  0.00    +0.009 A 
ATOM      5  C   UNL     1       2.348  -3.103   4.309  0.00  0.00    +0.046 A 
ATOM      6  C   UNL     1       1.649  -2.738   3.167  0.00  0.00    +0.125 A 
ENDROOT
BRANCH   3   7
ATOM      7  C   UNL     1       0.716  -0.920   6.920  0.00  0.00    +0.111 C 
ATOM      8  C   UNL     1       1.744   0.168   7.238  0.00  0.00    +0.128 C 
ATOM      9  C   UNL     1       1.440   0.640   8.655  0.00  0.00    -0.035 C 
ATOM     10  C   UNL     1       1.291   1.955   8.589  0.00  0.00    +0.003 A 
ATOM     11  C   UNL     1       1.072   2.975   9.626  0.00  0.00    +0.055 A 
ATOM     12  C   UNL     1       0.945   4.262   9.201  0.00  0.00    +0.121 A 
ATOM     13  C   UNL     1       1.012   4.654   7.855  0.00  0.00    +0.047 A 
ATOM     14  C   UNL     1       1.216   3.799   6.821  0.00  0.00    +0.029 A 
ATOM     15  C   UNL     1       1.373   2.377   7.156  0.00  0.00    +0.043 A 
ATOM     16  N   UNL     1       1.605   1.341   6.375  0.00  0.00    -0.376 N 
ATOM     17  C   UNL     1       1.271  -0.335   9.795  0.00  0.00    +0.048 C 
ATOM     18  C   UNL     1       0.315  -1.429   9.287  0.00  0.00    +0.086 C 
ATOM     19  N   UNL     1       0.768  -1.933   7.987  0.00  0.00    -0.307 NA
ATOM     20  H   UNL     1       0.260  -2.763   7.723  0.00  0.00    +0.123 HD
ATOM     21  H   UNL     1       1.670   1.345   5.407  0.00  0.00    +0.160 HD
BRANCH  12  22
ATOM     22  O   UNL     1       0.741   5.227  10.136  0.00  0.00    -0.495 OA
ATOM     23  C   UNL     1       0.612   6.570   9.666  0.00  0.00    +0.277 C 
ENDBRANCH  12  22
ENDBRANCH   3   7
BRANCH   6  24
ATOM     24  O   UNL     1       1.943  -3.319   1.974  0.00  0.00    -0.495 OA
ATOM     25  C   UNL     1       2.980  -4.302   1.970  0.00  0.00    +0.277 C 
ENDBRANCH   6  24
BRANCH   1  26
ATOM     26  C   UNL     1      -0.103  -1.371   2.005  0.00  0.00    +0.145 C 
BRANCH  26  32
ATOM     27  C   UNL     1      -0.019   1.526   0.010  0.00  0.00    +0.033 C 
ATOM     28  C   UNL     1       0.002  -0.004   0.002  0.00  0.00    +0.128 C 
ATOM     29  C   UNL     1       0.774  -0.516  -1.194  0.00  0.00    +0.139 C 
ATOM     30  C   UNL     1       1.794  -1.206  -0.723  0.00  0.00    +0.043 C 
ATOM     31  N   UNL     1       1.805  -1.223   0.657  0.00  0.00    -0.279 N 
ATOM     32  N   UNL     1       0.749  -0.517   1.168  0.00  0.00    -0.216 NA
ATOM     33  C   UNL     1       2.821  -1.893  -1.586  0.00  0.00    +0.064 C 
ATOM     34  H   UNL     1       2.473  -1.676   1.195  0.00  0.00    +0.166 HD
BRANCH  29  35
ATOM     35  N   UNL     1       0.447  -0.288  -2.620  0.00  0.00    +0.055 N 
ATOM     36  O   UNL     1       1.151  -0.756  -3.484  0.00  0.00    -0.126 OA
ATOM     37  O   UNL     1      -0.523   0.367  -2.920  0.00  0.00    -0.126 OA
ENDBRANCH  29  35
ENDBRANCH  26  32
ENDBRANCH   1  26
TORSDOF 6
