REMARK  Name = ZINC40318806
REMARK  4 active torsions:
REMARK  status: ('A' for Active; 'I' for Inactive)
REMARK    1  A    between atoms: C_8  and  C_10
REMARK    2  A    between atoms: C_10  and  N_11
REMARK    3  A    between atoms: C_12  and  C_14
REMARK    4  A    between atoms: C_16  and  N_22
REMARK                            x       y       z     vdW  Elec       q    Type
REMARK                         _______ _______ _______ _____ _____    ______ ____
ROOT
ATOM      1  N   UNL     1       5.297  -0.763   1.086  0.00  0.00    -0.311 N 
ATOM      2  C   UNL     1       6.203  -0.806   2.083  0.00  0.00    +0.244 C 
ATOM      3  O   UNL     1       5.960  -1.426   3.099  0.00  0.00    -0.270 OA
ATOM      4  H   UNL     1       5.492  -0.268   0.275  0.00  0.00    +0.149 HD
ENDROOT
BRANCH   2   5
ATOM      5  C   UNL     1       7.493  -0.098   1.941  0.00  0.00    +0.040 A 
ATOM      6  C   UNL     1       8.434  -0.145   2.970  0.00  0.00    +0.037 A 
ATOM      7  C   UNL     1       9.641   0.521   2.830  0.00  0.00    +0.045 A 
ATOM      8  C   UNL     1       9.912   1.234   1.667  0.00  0.00    +0.080 A 
ATOM      9  C   UNL     1       8.977   1.282   0.646  0.00  0.00    +0.062 A 
ATOM     10  C   UNL     1       7.774   0.616   0.775  0.00  0.00    +0.034 A 
ATOM     11 CL   UNL     1       9.322   2.176  -0.802  0.00  0.00    -0.082 Cl
ATOM     12 CL   UNL     1      11.424   2.068   1.495  0.00  0.00    -0.080 Cl
BRANCH   7  13
ATOM     13  N   UNL     1      10.588   0.476   3.858  0.00  0.00    -0.357 N 
ATOM     14  H   UNL     1      10.399  -0.022   4.669  0.00  0.00    +0.142 HD
ATOM     15  H   UNL     1      11.432   0.942   3.760  0.00  0.00    +0.142 HD
ENDBRANCH   7  13
ENDBRANCH   2   5
BRANCH   1  16
ATOM     16  C   UNL     1       4.019  -1.465   1.227  0.00  0.00    +0.113 C 
BRANCH  16  24
ATOM     17  C   UNL     1      -0.017   1.376   0.010  0.00  0.00    +0.000 A 
ATOM     18  C   UNL     1       1.169   2.087   0.002  0.00  0.00    +0.000 A 
ATOM     19  C   UNL     1       2.374   1.411  -0.013  0.00  0.00    +0.004 A 
ATOM     20  C   UNL     1       2.394   0.028  -0.021  0.00  0.00    -0.039 A 
ATOM     21  C   UNL     1       1.211  -0.689  -0.014  0.00  0.00    -0.043 A 
ATOM     22  C   UNL     1       0.002  -0.004   0.002  0.00  0.00    +0.004 A 
ATOM     23  C   UNL     1       1.874  -2.050  -0.028  0.00  0.00    +0.045 C 
ATOM     24  C   UNL     1       3.181  -1.257  -0.036  0.00  0.00    +0.041 C 
ENDBRANCH  16  24
ENDBRANCH   1  16
TORSDOF 4
