REMARK  Name = ZINC41394430
REMARK  8 active torsions:
REMARK  status: ('A' for Active; 'I' for Inactive)
REMARK    1  A    between atoms: C_1  and  C_2
REMARK    2  A    between atoms: C_3  and  N_11
REMARK    3  A    between atoms: C_4  and  C_10
REMARK    4  A    between atoms: N_5  and  C_7
REMARK    5  A    between atoms: C_7  and  C_8
REMARK    6  A    between atoms: C_7  and  C_9
REMARK    7  A    between atoms: N_25  and  C_26
REMARK    8  A    between atoms: C_26  and  C_27
REMARK                            x       y       z     vdW  Elec       q    Type
REMARK                         _______ _______ _______ _____ _____    ______ ____
ROOT
ATOM      1  N   UNL     1      -0.221  -0.377  -2.465  0.00  0.00    -0.282 N 
ATOM      2  C   UNL     1       0.139   0.905  -2.799  0.00  0.00    +0.204 A 
ATOM      3  N   UNL     1       0.700   1.679  -1.894  0.00  0.00    -0.208 NA
ATOM      4  C   UNL     1       1.057   2.924  -2.190  0.00  0.00    +0.117 A 
ATOM      5  C   UNL     1       0.859   3.474  -3.468  0.00  0.00    +0.076 A 
ATOM      6  C   UNL     1       1.303   4.857  -3.644  0.00  0.00    -0.023 A 
ATOM      7  C   UNL     1       1.855   5.464  -2.574  0.00  0.00    -0.004 A 
ATOM      8  S   UNL     1       1.817   4.248  -1.285  0.00  0.00    -0.073 S 
ATOM      9  C   UNL     1       2.384   6.864  -2.496  0.00  0.00    +0.043 C 
ATOM     10  C   UNL     1       2.547   7.401  -3.925  0.00  0.00    +0.005 C 
ATOM     11  C   UNL     1       1.267   7.101  -4.711  0.00  0.00    +0.005 C 
ATOM     12  C   UNL     1       1.157   5.598  -4.970  0.00  0.00    +0.037 C 
ATOM     13  C   UNL     1       0.248   2.609  -4.431  0.00  0.00    +0.264 A 
ATOM     14  O   UNL     1       0.037   3.000  -5.566  0.00  0.00    -0.267 OA
ATOM     15  N   UNL     1      -0.086   1.357  -4.067  0.00  0.00    -0.276 N 
ATOM     16  H   UNL     1      -0.708  -0.925  -3.099  0.00  0.00    +0.155 HD
ENDROOT
BRANCH   1  19
ATOM     17  C   UNL     1      -1.793   0.202   0.161  0.00  0.00    +0.069 C 
ATOM     18  C   UNL     1      -0.565  -0.658   0.000  0.00  0.00    +0.081 A 
ATOM     19  C   UNL     1       0.119  -0.896  -1.201  0.00  0.00    +0.077 A 
ATOM     20  C   UNL     1       1.165  -1.716  -0.928  0.00  0.00    +0.058 A 
ATOM     21  N   UNL     1       1.139  -1.985   0.404  0.00  0.00    -0.264 N 
ATOM     22  N   UNL     1       0.048  -1.304   0.958  0.00  0.00    -0.174 NA
ATOM     23  C   UNL     1       2.172  -2.235  -1.922  0.00  0.00    +0.067 C 
BRANCH  21  24
ATOM     24  C   UNL     1       2.088  -2.832   1.131  0.00  0.00    +0.101 C 
ATOM     25  C   UNL     1       2.785  -2.004   2.213  0.00  0.00    +0.032 C 
ATOM     26  C   UNL     1       1.337  -3.994   1.783  0.00  0.00    +0.032 C 
ENDBRANCH  21  24
ENDBRANCH   1  19
BRANCH  15  27
ATOM     27  C   UNL     1      -0.707   0.465  -5.049  0.00  0.00    +0.155 C 
BRANCH  27  28
ATOM     28  C   UNL     1      -2.205   0.622  -4.993  0.00  0.00    -0.013 C 
ATOM     29  C   UNL     1      -2.874   0.918  -6.080  0.00  0.00    +0.005 C 
ENDBRANCH  27  28
ENDBRANCH  15  27
TORSDOF 4
