REMARK  Name = ZINC05345181
REMARK  8 active torsions:
REMARK  status: ('A' for Active; 'I' for Inactive)
REMARK    1  A    between atoms: C_1  and  C_2
REMARK    2  A    between atoms: C_2  and  O_3
REMARK    3  A    between atoms: O_3  and  C_4
REMARK    4  A    between atoms: C_4  and  C_6
REMARK    5  A    between atoms: C_10  and  N_11
REMARK    6  A    between atoms: N_11  and  S_12
REMARK    7  A    between atoms: S_12  and  C_15
REMARK    8  A    between atoms: C_16  and  C_25
REMARK                            x       y       z     vdW  Elec       q    Type
REMARK                         _______ _______ _______ _____ _____    ______ ____
ROOT
ATOM      1  N   UNL     1      -1.766   6.675  -1.803  0.00  0.00    -0.209 N 
ATOM      2  H   UNL     1      -1.669   7.250  -1.028  0.00  0.00    +0.174 HD
ENDROOT
BRANCH   1   7
ATOM      3  C   UNL     1      -1.029   4.618  -0.598  0.00  0.00    +0.092 A 
ATOM      4  C   UNL     1      -0.854   3.181  -0.747  0.00  0.00    -0.021 A 
ATOM      5  C   UNL     1      -1.189   2.684  -1.956  0.00  0.00    -0.004 A 
ATOM      6  S   UNL     1      -1.730   4.086  -2.890  0.00  0.00    -0.076 S 
ATOM      7  C   UNL     1      -1.515   5.321  -1.694  0.00  0.00    +0.100 A 
ATOM      8  C   UNL     1      -1.114   1.254  -2.396  0.00  0.00    +0.043 C 
ATOM      9  C   UNL     1      -0.245   0.483  -1.392  0.00  0.00    +0.005 C 
ATOM     10  C   UNL     1      -0.704   0.826   0.028  0.00  0.00    +0.005 C 
ATOM     11  C   UNL     1      -0.334   2.272   0.359  0.00  0.00    +0.037 C 
BRANCH   3  12
ATOM     12  C   UNL     1      -0.706   5.296   0.657  0.00  0.00    +0.342 C 
ATOM     13  O   UNL     1       0.414   5.733   0.841  0.00  0.00    -0.245 OA
BRANCH  12  14
ATOM     14  O   UNL     1      -1.650   5.436   1.610  0.00  0.00    -0.461 OA
BRANCH  14  16
ATOM     15  C   UNL     1      -2.458   6.172   3.766  0.00  0.00    +0.048 C 
ATOM     16  C   UNL     1      -1.265   6.109   2.811  0.00  0.00    +0.229 C 
ENDBRANCH  14  16
ENDBRANCH  12  14
ENDBRANCH   3  12
ENDBRANCH   1   7
BRANCH   1  17
ATOM     17  S   UNL     1      -2.234   7.316  -3.256  0.00  0.00    +0.080 S 
ATOM     18  O   UNL     1      -2.559   8.678  -3.013  0.00  0.00    -0.150 OA
ATOM     19  O   UNL     1      -1.253   6.925  -4.207  0.00  0.00    -0.150 OA
BRANCH  17  20
ATOM     20  C   UNL     1      -3.733   6.516  -3.721  0.00  0.00    +0.191 A 
ATOM     21  C   UNL     1      -4.905   6.879  -3.158  0.00  0.00    +0.049 A 
ATOM     22  N   UNL     1      -6.061   6.247  -3.531  0.00  0.00    -0.310 N 
ATOM     23  H   UNL     1      -6.929   6.515  -3.114  0.00  0.00    +0.170 HD
ATOM     24  C   UNL     1      -6.039   5.268  -4.453  0.00  0.00    +0.327 A 
ATOM     25  O   UNL     1      -7.077   4.720  -4.770  0.00  0.00    -0.247 OA
ATOM     26  N   UNL     1      -4.885   4.886  -5.030  0.00  0.00    -0.273 N 
ATOM     27  H   UNL     1      -4.886   4.154  -5.712  0.00  0.00    +0.173 HD
ATOM     28  C   UNL     1      -3.725   5.487  -4.694  0.00  0.00    +0.281 A 
ATOM     29  O   UNL     1      -2.681   5.145  -5.219  0.00  0.00    -0.266 OA
ATOM     30  C   UNL     1      -4.942   7.975  -2.125  0.00  0.00    +0.065 C 
ENDBRANCH  17  20
ENDBRANCH   1  17
TORSDOF 6
