REMARK  Name = ZINC38556288
REMARK  8 active torsions:
REMARK  status: ('A' for Active; 'I' for Inactive)
REMARK    1  A    between atoms: C_1  and  C_2
REMARK    2  A    between atoms: C_5  and  C_8
REMARK    3  A    between atoms: C_10  and  C_14
REMARK    4  A    between atoms: C_18  and  S_22
REMARK    5  A    between atoms: N_20  and  N_21
REMARK    6  A    between atoms: S_22  and  C_23
REMARK    7  A    between atoms: C_23  and  C_24
REMARK    8  A    between atoms: C_24  and  C_26
REMARK                            x       y       z     vdW  Elec       q    Type
REMARK                         _______ _______ _______ _____ _____    ______ ____
ROOT
ATOM      1  C   UNL     1      -1.156  -7.214   0.974  0.00  0.00    +0.244 C 
ATOM      2  N   UNL     1      -1.243  -7.246   2.439  0.00  0.00    -0.167 NA
ATOM      3  N   UNL     1      -1.529  -8.377   2.845  0.00  0.00    -0.159 NA
ATOM      4  C   UNL     1      -1.687  -9.318   1.729  0.00  0.00    +0.272 C 
ATOM      5  N   UNL     1      -1.057  -8.639   0.567  0.00  0.00    -0.183 NA
ENDROOT
BRANCH   1   8
ATOM      6  C   UNL     1       0.061  -4.256  -0.021  0.00  0.00    +0.091 C 
ATOM      7  C   UNL     1       0.071  -5.030   1.081  0.00  0.00    +0.035 C 
ATOM      8  C   UNL     1       0.090  -6.445   0.530  0.00  0.00    +0.195 C 
ATOM      9  N   UNL     1       0.087  -6.239  -0.927  0.00  0.00    -0.176 NA
ATOM     10  N   UNL     1       0.065  -5.025  -1.142  0.00  0.00    -0.154 NA
BRANCH   6  15
ATOM     11  C   UNL     1      -0.018   1.503   0.010  0.00  0.00    +0.044 C 
ATOM     12  C   UNL     1       0.002  -0.004   0.002  0.00  0.00    -0.050 A 
ATOM     13  C   UNL     1       0.006  -0.686  -1.201  0.00  0.00    +0.004 A 
ATOM     14  C   UNL     1       0.025  -2.066  -1.215  0.00  0.00    +0.010 A 
ATOM     15  C   UNL     1       0.041  -2.772  -0.013  0.00  0.00    +0.002 A 
ATOM     16  C   UNL     1       0.037  -2.080   1.196  0.00  0.00    +0.010 A 
ATOM     17  C   UNL     1       0.023  -0.700   1.198  0.00  0.00    +0.004 A 
ENDBRANCH   6  15
ENDBRANCH   1   8
BRANCH   5  18
ATOM     18  N   UNL     1      -1.807  -8.886  -0.654  0.00  0.00    -0.263 NA
ATOM     19  H   UNL     1      -1.739  -9.854  -0.930  0.00  0.00    +0.137 HD
ATOM     20  H   UNL     1      -2.771  -8.606  -0.549  0.00  0.00    +0.137 HD
ENDBRANCH   5  18
BRANCH   4  21
ATOM     21  S   UNL     1      -0.836 -10.878   2.093  0.00  0.00    -0.108 S 
BRANCH  21  22
ATOM     22  C   UNL     1       0.888 -10.384   2.363  0.00  0.00    +0.152 C 
BRANCH  22  23
ATOM     23  C   UNL     1       1.716 -11.603   2.679  0.00  0.00    +0.173 C 
ATOM     24  O   UNL     1       1.195 -12.697   2.717  0.00  0.00    -0.291 OA
BRANCH  23  25
ATOM     25  C   UNL     1       3.157 -11.466   2.940  0.00  0.00    +0.018 A 
ATOM     26  C   UNL     1       3.762 -10.205   2.902  0.00  0.00    +0.013 A 
ATOM     27  C   UNL     1       5.112 -10.084   3.148  0.00  0.00    +0.020 A 
ATOM     28  C   UNL     1       5.871 -11.208   3.433  0.00  0.00    +0.041 A 
ATOM     29  C   UNL     1       5.280 -12.460   3.472  0.00  0.00    +0.020 A 
ATOM     30  C   UNL     1       3.929 -12.595   3.233  0.00  0.00    +0.013 A 
ATOM     31 CL   UNL     1       7.572 -11.046   3.740  0.00  0.00    -0.084 Cl
ENDBRANCH  23  25
ENDBRANCH  22  23
ENDBRANCH  21  22
ENDBRANCH   4  21
TORSDOF 7
