REMARK  Name = ZINC08740032
REMARK  8 active torsions:
REMARK  status: ('A' for Active; 'I' for Inactive)
REMARK    1  A    between atoms: C_1  and  C_2
REMARK    2  A    between atoms: C_7  and  C_35
REMARK    3  A    between atoms: C_18  and  C_20
REMARK    4  A    between atoms: C_20  and  N_66
REMARK    5  A    between atoms: C_25  and  O_34
REMARK    6  A    between atoms: C_26  and  O_32
REMARK    7  A    between atoms: C_29  and  C_31
REMARK    8  A    between atoms: O_32  and  C_33
REMARK                            x       y       z     vdW  Elec       q    Type
REMARK                         _______ _______ _______ _____ _____    ______ ____
ROOT
ATOM      1  C   UNL     1      -0.805  -0.106   2.884  0.00  0.00    -0.063 C 
ENDROOT
BRANCH   1  16
ATOM      2  C   UNL     1       4.571  -3.053   4.748  0.00  0.00    +0.012 C 
ATOM      3  C   UNL     1       3.358  -3.886   4.355  0.00  0.00    +0.012 C 
ATOM      4  C   UNL     1       3.441  -5.308   4.912  0.00  0.00    +0.007 C 
ATOM      5  C   UNL     1       3.081  -5.372   6.390  0.00  0.00    +0.001 C 
ATOM      6  C   UNL     1       1.672  -4.838   6.645  0.00  0.00    +0.011 C 
ATOM      7  C   UNL     1       1.576  -3.387   6.192  0.00  0.00    -0.007 C 
ATOM      8  C   UNL     1       2.046  -3.261   4.780  0.00  0.00    -0.064 C 
ATOM      9  C   UNL     1       1.345  -2.667   3.857  0.00  0.00    -0.019 C 
ATOM     10  C   UNL     1      -0.058  -2.235   4.008  0.00  0.00    +0.064 C 
ATOM     11  C   UNL     1      -0.739  -2.813   5.260  0.00  0.00    +0.185 C 
ATOM     12  C   UNL     1       0.214  -2.782   6.448  0.00  0.00    +0.056 C 
ATOM     13  O   UNL     1      -1.784  -1.808   5.536  0.00  0.00    -0.461 OA
ATOM     14  C   UNL     1      -1.252  -0.592   5.299  0.00  0.00    +0.309 C 
ATOM     15  O   UNL     1      -1.535   0.427   5.886  0.00  0.00    -0.251 OA
ATOM     16  C   UNL     1      -0.244  -0.720   4.169  0.00  0.00    +0.092 C 
ATOM     17  C   UNL     1       2.514  -2.576   7.097  0.00  0.00    +0.016 C 
ENDBRANCH   1  16
BRANCH   1  28
ATOM     18  C   UNL     1       1.483   0.350   2.227  0.00  0.00    -0.073 C 
ATOM     19  C   UNL     1       2.558  -0.116   1.245  0.00  0.00    +0.017 C 
ATOM     20  C   UNL     1       2.110   0.142  -0.171  0.00  0.00    -0.044 A 
ATOM     21  C   UNL     1       3.063   0.120  -1.179  0.00  0.00    +0.053 A 
ATOM     22  C   UNL     1       2.697   0.349  -2.493  0.00  0.00    +0.159 A 
ATOM     23  C   UNL     1       1.364   0.602  -2.803  0.00  0.00    +0.161 A 
ATOM     24  C   UNL     1       0.418   0.623  -1.794  0.00  0.00    +0.051 A 
ATOM     25  C   UNL     1       0.790   0.394  -0.477  0.00  0.00    -0.054 A 
ATOM     26  C   UNL     1      -0.279   0.432   0.585  0.00  0.00    -0.040 C 
ATOM     27  C   UNL     1      -1.525  -0.293   0.073  0.00  0.00    -0.008 C 
ATOM     28  N   UNL     1       0.198  -0.242   1.803  0.00  0.00    +0.385 N 
ATOM     29  H   UNL     1       0.339  -1.239   1.602  0.00  0.00    -0.081 HD
BRANCH  23  30
ATOM     30  O   UNL     1       0.993   0.826  -4.092  0.00  0.00    -0.491 OA
ATOM     31  C   UNL     1      -0.393   1.078  -4.334  0.00  0.00    +0.277 C 
ENDBRANCH  23  30
BRANCH  22  32
ATOM     32  O   UNL     1       3.635   0.328  -3.477  0.00  0.00    -0.503 OA
ATOM     33  H   UNL     1       3.769  -0.544  -3.874  0.00  0.00    +0.292 HD
ENDBRANCH  22  32
ENDBRANCH   1  28
TORSDOF 4
