REMARK  Name = ZINC17097063
REMARK  5 active torsions:
REMARK  status: ('A' for Active; 'I' for Inactive)
REMARK    1  A    between atoms: C_6  and  N_7
REMARK    2  A    between atoms: N_13  and  C_14
REMARK    3  A    between atoms: C_14  and  N_16
REMARK    4  A    between atoms: C_17  and  C_19
REMARK    5  A    between atoms: C_19  and  C_20
REMARK                            x       y       z     vdW  Elec       q    Type
REMARK                         _______ _______ _______ _____ _____    ______ ____
ROOT
ATOM      1  C   UNL     1       6.313   3.095  -0.040  0.00  0.00    +0.142 C 
ATOM      2  S   UNL     1       5.030   4.228  -0.023  0.00  0.00    -0.018 S 
ENDROOT
BRANCH   1  12
ATOM      3  C   UNL     1      -0.017   1.383   0.010  0.00  0.00    +0.035 A 
ATOM      4  C   UNL     1       1.142   2.115   0.003  0.00  0.00    +0.031 A 
ATOM      5  C   UNL     1       2.402   1.473  -0.013  0.00  0.00    +0.080 A 
ATOM      6  C   UNL     1       2.382   0.060  -0.020  0.00  0.00    +0.043 A 
ATOM      7  C   UNL     1       1.217  -0.665  -0.013  0.00  0.00    +0.050 A 
ATOM      8  C   UNL     1       0.002  -0.004   0.002  0.00  0.00    +0.127 A 
ATOM      9  S   UNL     1       4.113  -0.342  -0.038  0.00  0.00    -0.052 S 
ATOM     10  C   UNL     1       4.733   1.334  -0.035  0.00  0.00    +0.165 A 
ATOM     11  N   UNL     1       3.627   2.042  -0.021  0.00  0.00    -0.225 NA
ATOM     12  N   UNL     1       6.045   1.774  -0.044  0.00  0.00    -0.276 N 
ATOM     13  H   UNL     1       6.772   1.132  -0.054  0.00  0.00    +0.156 HD
BRANCH   8  14
ATOM     14  N   UNL     1      -1.265  -0.769   0.010  0.00  0.00    +0.056 N 
ATOM     15  O   UNL     1      -2.324  -0.185   0.024  0.00  0.00    -0.126 OA
ATOM     16  O   UNL     1      -1.242  -1.978   0.004  0.00  0.00    -0.126 OA
ENDBRANCH   8  14
ENDBRANCH   1  12
BRANCH   1  17
ATOM     17  N   UNL     1       7.591   3.523  -0.048  0.00  0.00    -0.268 N 
ATOM     18  C   UNL     1       7.859   4.844  -0.044  0.00  0.00    +0.219 C 
ATOM     19  O   UNL     1       6.950   5.647  -0.032  0.00  0.00    -0.275 OA
ATOM     20  H   UNL     1       8.318   2.881  -0.058  0.00  0.00    +0.156 HD
BRANCH  18  21
ATOM     21  C   UNL     1       9.287   5.324  -0.054  0.00  0.00    +0.103 C 
BRANCH  21  22
ATOM     22  C   UNL     1       9.312   6.853  -0.046  0.00  0.00    -0.020 C 
ATOM     23  C   UNL     1       8.589   7.381  -1.287  0.00  0.00    +0.011 C 
ATOM     24  C   UNL     1       8.614   8.911  -1.279  0.00  0.00    -0.010 C 
ATOM     25  C   UNL     1      10.064   9.398  -1.289  0.00  0.00    +0.007 C 
ATOM     26  C   UNL     1      10.788   8.870  -0.049  0.00  0.00    -0.010 C 
ATOM     27  C   UNL     1      10.763   7.340  -0.056  0.00  0.00    +0.011 C 
ATOM     28  C   UNL     1      10.086   9.385   1.209  0.00  0.00    +0.007 C 
ATOM     29  C   UNL     1       8.635   8.898   1.219  0.00  0.00    -0.010 C 
ATOM     30  C   UNL     1       7.912   9.426  -0.021  0.00  0.00    +0.007 C 
ATOM     31  C   UNL     1       8.610   7.369   1.212  0.00  0.00    +0.011 C 
ENDBRANCH  21  22
ENDBRANCH  18  21
ENDBRANCH   1  17
TORSDOF 5
