REMARK  Name = ZINC12998803
REMARK  9 active torsions:
REMARK  status: ('A' for Active; 'I' for Inactive)
REMARK    1  A    between atoms: C_1  and  C_2
REMARK    2  A    between atoms: C_5  and  N_8
REMARK    3  A    between atoms: C_9  and  C_34
REMARK    4  A    between atoms: N_13  and  C_16
REMARK    5  A    between atoms: C_16  and  C_17
REMARK    6  A    between atoms: N_19  and  C_20
REMARK    7  A    between atoms: C_20  and  C_21
REMARK    8  A    between atoms: C_21  and  C_23
REMARK    9  A    between atoms: C_21  and  N_62
REMARK                            x       y       z     vdW  Elec       q    Type
REMARK                         _______ _______ _______ _____ _____    ______ ____
ROOT
ATOM      1  C   UNL     1       1.794  -0.414   0.669  0.00  0.00    +0.231 C 
ATOM      2  O   UNL     1       1.924  -1.177   1.603  0.00  0.00    -0.274 OA
ATOM      3  N   UNL     1       1.601  -0.897  -0.574  0.00  0.00    -0.315 N 
ATOM      4  H   UNL     1       1.497  -0.287  -1.321  0.00  0.00    +0.149 HD
ENDROOT
BRANCH   1   5
ATOM      5  C   UNL     1       1.848   1.075   0.898  0.00  0.00    +0.213 C 
BRANCH   5  10
ATOM      6  N   UNL     1       3.197   1.708   4.209  0.00  0.00    -0.243 N 
ATOM      7  C   UNL     1       1.765   1.750   4.550  0.00  0.00    +0.166 C 
ATOM      8  C   UNL     1       1.076   1.499   3.223  0.00  0.00    +0.244 C 
ATOM      9  O   UNL     1      -0.118   1.449   3.016  0.00  0.00    -0.273 OA
ATOM     10  N   UNL     1       2.066   1.341   2.322  0.00  0.00    -0.215 N 
ATOM     11  C   UNL     1       3.272   1.464   2.889  0.00  0.00    +0.316 C 
ATOM     12  O   UNL     1       4.318   1.366   2.278  0.00  0.00    -0.252 OA
ATOM     13  C   UNL     1       1.418   0.652   5.557  0.00  0.00    +0.038 C 
BRANCH   6  18
ATOM     14  C   UNL     1       7.551   2.431   7.774  0.00  0.00    +0.044 C 
ATOM     15  C   UNL     1       6.394   2.239   6.827  0.00  0.00    -0.050 A 
ATOM     16  C   UNL     1       6.633   1.994   5.487  0.00  0.00    +0.005 A 
ATOM     17  C   UNL     1       5.575   1.818   4.617  0.00  0.00    +0.024 A 
ATOM     18  C   UNL     1       4.271   1.887   5.089  0.00  0.00    +0.039 A 
ATOM     19  C   UNL     1       4.035   2.138   6.434  0.00  0.00    +0.024 A 
ATOM     20  C   UNL     1       5.097   2.308   7.300  0.00  0.00    +0.005 A 
ENDBRANCH   6  18
ENDBRANCH   5  10
ENDBRANCH   1   5
BRANCH   3  21
ATOM     21  C   UNL     1       1.548  -2.344  -0.798  0.00  0.00    +0.093 C 
BRANCH  21  22
ATOM     22  C   UNL     1       1.321  -2.623  -2.285  0.00  0.00    -0.019 C 
BRANCH  22  23
ATOM     23  C   UNL     1       1.270  -4.111  -2.515  0.00  0.00    -0.041 A 
ATOM     24  C   UNL     1       2.358  -4.763  -3.065  0.00  0.00    +0.003 A 
ATOM     25  C   UNL     1       2.311  -6.129  -3.276  0.00  0.00    +0.000 A 
ATOM     26  C   UNL     1       1.177  -6.843  -2.938  0.00  0.00    +0.001 A 
ATOM     27  C   UNL     1       0.089  -6.192  -2.388  0.00  0.00    +0.020 A 
ATOM     28  C   UNL     1       0.137  -4.826  -2.171  0.00  0.00    +0.043 A 
ATOM     29 CL   UNL     1      -1.227  -4.009  -1.474  0.00  0.00    -0.083 Cl
ENDBRANCH  22  23
BRANCH  22  34
ATOM     30  C   UNL     1       3.739  -2.417  -2.486  0.00  0.00    -0.078 C 
ATOM     31  C   UNL     1       4.720  -2.200  -3.665  0.00  0.00    -0.020 C 
ATOM     32  C   UNL     1       3.899  -2.670  -4.888  0.00  0.00    -0.020 C 
ATOM     33  C   UNL     1       2.427  -2.571  -4.447  0.00  0.00    -0.078 C 
ATOM     34  N   UNL     1       2.446  -2.046  -3.081  0.00  0.00    +0.385 N 
ATOM     35  H   UNL     1       2.354  -1.023  -3.102  0.00  0.00    -0.081 HD
ENDBRANCH  22  34
ENDBRANCH  21  22
ENDBRANCH   3  21
TORSDOF 7
