REMARK  Name = ZINC08387443
REMARK  10 active torsions:
REMARK  status: ('A' for Active; 'I' for Inactive)
REMARK    1  A    between atoms: C_1  and  C_2
REMARK    2  A    between atoms: C_2  and  C_30
REMARK    3  A    between atoms: C_8  and  C_19
REMARK    4  A    between atoms: C_16  and  C_17
REMARK    5  A    between atoms: C_16  and  C_18
REMARK    6  A    between atoms: C_19  and  C_20
REMARK    7  A    between atoms: C_23  and  O_28
REMARK    8  A    between atoms: C_24  and  O_26
REMARK    9  A    between atoms: O_26  and  C_27
REMARK   10  A    between atoms: O_28  and  C_29
REMARK                            x       y       z     vdW  Elec       q    Type
REMARK                         _______ _______ _______ _____ _____    ______ ____
ROOT
ATOM      1  C   UNL     1      -6.465  -0.413  -2.394  0.00  0.00    -0.010 C 
ATOM      2  C   UNL     1      -5.570  -1.413  -3.132  0.00  0.00    -0.069 C 
ATOM      3  C   UNL     1      -4.133  -0.885  -3.154  0.00  0.00    +0.024 C 
ATOM      4  C   UNL     1      -4.101   0.342  -4.059  0.00  0.00    -0.027 A 
ATOM      5  C   UNL     1      -3.184   1.459  -3.885  0.00  0.00    +0.055 A 
ATOM      6  C   UNL     1      -2.140   1.660  -2.861  0.00  0.00    +0.168 A 
ATOM      7  N   UNL     1      -1.727   0.944  -1.833  0.00  0.00    -0.210 NA
ATOM      8  C   UNL     1      -0.742   1.585  -1.213  0.00  0.00    +0.156 A 
ATOM      9  N   UNL     1      -0.500   2.718  -1.827  0.00  0.00    -0.148 NA
ATOM     10  N   UNL     1      -1.392   2.801  -2.906  0.00  0.00    -0.201 N 
ATOM     11  C   UNL     1      -1.602   3.731  -3.876  0.00  0.00    +0.226 A 
ATOM     12  N   UNL     1      -2.523   3.572  -4.786  0.00  0.00    -0.228 NA
ATOM     13  C   UNL     1      -3.302   2.498  -4.824  0.00  0.00    +0.114 A 
ATOM     14  S   UNL     1      -4.621   1.954  -5.880  0.00  0.00    -0.075 S 
ATOM     15  C   UNL     1      -4.974   0.408  -5.090  0.00  0.00    -0.016 A 
ATOM     16  C   UNL     1      -5.998  -0.615  -5.460  0.00  0.00    -0.041 C 
ATOM     17  C   UNL     1      -7.364   0.066  -5.624  0.00  0.00    -0.005 C 
ATOM     18  C   UNL     1      -5.604  -1.224  -6.820  0.00  0.00    -0.005 C 
ATOM     19  C   UNL     1      -5.576  -2.731  -2.333  0.00  0.00    -0.010 C 
ATOM     20  N   UNL     1      -6.100  -1.736  -4.482  0.00  0.00    +0.389 N 
ATOM     21  H   UNL     1      -7.090  -1.992  -4.387  0.00  0.00    -0.084 HD
ATOM     22  H   UNL     1      -5.573  -2.536  -4.852  0.00  0.00    -0.084 HD
ENDROOT
BRANCH   8  23
ATOM     23  C   UNL     1      -0.013   1.086   0.008  0.00  0.00    +0.113 C 
BRANCH  23  24
ATOM     24  C   UNL     1      -0.718   1.572   1.248  0.00  0.00    -0.036 A 
ATOM     25  C   UNL     1      -1.719   0.807   1.817  0.00  0.00    +0.008 A 
ATOM     26  C   UNL     1      -2.369   1.248   2.954  0.00  0.00    +0.049 A 
ATOM     27  C   UNL     1      -2.018   2.460   3.527  0.00  0.00    +0.161 A 
ATOM     28  C   UNL     1      -1.010   3.230   2.955  0.00  0.00    +0.162 A 
ATOM     29  C   UNL     1      -0.359   2.779   1.817  0.00  0.00    +0.053 A 
BRANCH  28  30
ATOM     30  O   UNL     1      -0.661   4.420   3.513  0.00  0.00    -0.491 OA
ATOM     31  C   UNL     1       0.383   5.156   2.872  0.00  0.00    +0.277 C 
ENDBRANCH  28  30
BRANCH  27  32
ATOM     32  O   UNL     1      -2.656   2.895   4.646  0.00  0.00    -0.491 OA
ATOM     33  C   UNL     1      -3.680   2.053   5.178  0.00  0.00    +0.277 C 
ENDBRANCH  27  32
ENDBRANCH  23  24
ENDBRANCH   8  23
TORSDOF 4
