REMARK  Name = ZINC32689972
REMARK  10 active torsions:
REMARK  status: ('A' for Active; 'I' for Inactive)
REMARK    1  A    between atoms: C_1  and  N_2
REMARK    2  A    between atoms: N_2  and  C_3
REMARK    3  A    between atoms: C_5  and  C_10
REMARK    4  A    between atoms: C_10  and  N_11
REMARK    5  A    between atoms: C_12  and  C_14
REMARK    6  A    between atoms: C_14  and  C_16
REMARK    7  A    between atoms: C_14  and  N_23
REMARK    8  A    between atoms: C_16  and  C_17
REMARK    9  A    between atoms: N_23  and  S_24
REMARK   10  A    between atoms: S_24  and  C_27
REMARK                            x       y       z     vdW  Elec       q    Type
REMARK                         _______ _______ _______ _____ _____    ______ ____
ROOT
ATOM      1  C   UNL     1      -3.469  -4.307   2.282  0.00  0.00    +0.166 C 
ENDROOT
BRANCH   1   3
ATOM      2  N   UNL     1      -1.988  -3.514   0.467  0.00  0.00    -0.310 N 
ATOM      3  C   UNL     1      -2.104  -4.021   1.710  0.00  0.00    +0.232 C 
ATOM      4  O   UNL     1      -1.111  -4.247   2.369  0.00  0.00    -0.274 OA
ATOM      5  H   UNL     1      -2.782  -3.333  -0.060  0.00  0.00    +0.149 HD
BRANCH   2   6
ATOM      6  C   UNL     1      -0.661  -3.236  -0.089  0.00  0.00    +0.143 C 
BRANCH   6  11
ATOM      7  C   UNL     1      -2.765  -0.513   0.031  0.00  0.00    +0.130 C 
ATOM      8  N   UNL     1      -1.432  -0.540  -0.576  0.00  0.00    -0.323 N 
ATOM      9  C   UNL     1      -0.359   0.290  -0.024  0.00  0.00    +0.130 C 
ATOM     10  C   UNL     1      -1.186  -1.354  -1.676  0.00  0.00    +0.103 A 
ATOM     11  C   UNL     1      -0.807  -2.679  -1.482  0.00  0.00    +0.008 A 
ATOM     12  C   UNL     1      -0.565  -3.478  -2.585  0.00  0.00    +0.010 A 
ATOM     13  C   UNL     1      -0.711  -2.923  -3.850  0.00  0.00    +0.018 A 
ATOM     14  C   UNL     1      -1.090  -1.601  -3.969  0.00  0.00    +0.084 A 
ATOM     15  N   UNL     1      -1.320  -0.864  -2.898  0.00  0.00    -0.349 N 
ATOM     16  H   UNL     1      -1.589   0.061  -3.010  0.00  0.00    +0.167 HD
ENDBRANCH   6  11
ENDBRANCH   2   6
ENDBRANCH   1   3
BRANCH   1  17
ATOM     17  N   UNL     1      -3.327  -4.848   3.636  0.00  0.00    -0.178 NA
ATOM     18  H   UNL     1      -3.165  -5.795   3.765  0.00  0.00    +0.149 HD
BRANCH  17  19
ATOM     19  S   UNL     1      -3.445  -3.842   4.946  0.00  0.00    +0.062 S 
ATOM     20  O   UNL     1      -3.231  -4.647   6.097  0.00  0.00    -0.153 OA
ATOM     21  O   UNL     1      -2.649  -2.701   4.656  0.00  0.00    -0.153 OA
BRANCH  19  22
ATOM     22  C   UNL     1      -5.114  -3.283   5.026  0.00  0.00    +0.140 A 
ATOM     23  C   UNL     1      -5.968  -3.790   5.988  0.00  0.00    +0.031 A 
ATOM     24  C   UNL     1      -7.277  -3.352   6.051  0.00  0.00    +0.002 A 
ATOM     25  C   UNL     1      -7.735  -2.406   5.152  0.00  0.00    +0.003 A 
ATOM     26  C   UNL     1      -6.883  -1.898   4.189  0.00  0.00    +0.040 A 
ATOM     27  C   UNL     1      -5.570  -2.333   4.129  0.00  0.00    +0.150 A 
ATOM     28  F   UNL     1      -4.735  -1.833   3.191  0.00  0.00    -0.203 F 
ENDBRANCH  19  22
ENDBRANCH  17  19
ENDBRANCH   1  17
BRANCH   1  29
ATOM     29  C   UNL     1      -4.189  -5.327   1.398  0.00  0.00    +0.065 C 
BRANCH  29  30
ATOM     30  C   UNL     1      -5.603  -5.506   1.887  0.00  0.00    -0.045 A 
ATOM     31  C   UNL     1      -5.873  -6.398   2.909  0.00  0.00    +0.004 A 
ATOM     32  C   UNL     1      -7.170  -6.563   3.357  0.00  0.00    +0.000 A 
ATOM     33  C   UNL     1      -8.197  -5.836   2.786  0.00  0.00    +0.000 A 
ATOM     34  C   UNL     1      -7.927  -4.943   1.766  0.00  0.00    +0.000 A 
ATOM     35  C   UNL     1      -6.629  -4.775   1.319  0.00  0.00    +0.004 A 
ENDBRANCH  29  30
ENDBRANCH   1  29
TORSDOF 8
