REMARK  Name = ZINC51711780
REMARK  6 active torsions:
REMARK  status: ('A' for Active; 'I' for Inactive)
REMARK    1  A    between atoms: C_1  and  C_2
REMARK    2  A    between atoms: C_2  and  C_4
REMARK    3  A    between atoms: C_2  and  N_13
REMARK    4  A    between atoms: C_4  and  C_5
REMARK    5  A    between atoms: C_5  and  C_6
REMARK    6  A    between atoms: C_20  and  C_23
REMARK                            x       y       z     vdW  Elec       q    Type
REMARK                         _______ _______ _______ _____ _____    ______ ____
ROOT
ATOM      1  N   UNL     1       0.688  -0.477  -1.203  0.00  0.00    -0.297 N 
ATOM      2  C   UNL     1       0.006  -0.608  -2.358  0.00  0.00    +0.303 C 
ATOM      3  O   UNL     1      -1.195  -0.422  -2.380  0.00  0.00    -0.253 OA
ATOM      4  N   UNL     1       0.656  -0.945  -3.490  0.00  0.00    -0.281 N 
ATOM      5  C   UNL     1      -0.044  -0.983  -4.784  0.00  0.00    +0.137 C 
ATOM      6  C   UNL     1       0.770  -0.171  -5.798  0.00  0.00    +0.180 C 
ATOM      7  O   UNL     1       2.123  -0.635  -5.794  0.00  0.00    -0.364 OA
ATOM      8  C   UNL     1       2.798  -0.461  -4.546  0.00  0.00    +0.221 C 
ATOM      9  C   UNL     1       2.089  -1.281  -3.469  0.00  0.00    +0.150 C 
ATOM     10  H   UNL     1       1.632  -0.696  -1.170  0.00  0.00    +0.151 HD
ENDROOT
BRANCH   8  11
ATOM     11  C   UNL     1       4.226  -0.924  -4.678  0.00  0.00    +0.241 C 
ATOM     12  O   UNL     1       4.603  -1.444  -5.706  0.00  0.00    -0.273 OA
ATOM     13  N   UNL     1       5.085  -0.760  -3.652  0.00  0.00    -0.327 N 
ATOM     14  H   UNL     1       4.784  -0.344  -2.829  0.00  0.00    +0.145 HD
ATOM     15  H   UNL     1       6.004  -1.059  -3.736  0.00  0.00    +0.145 HD
ENDBRANCH   8  11
BRANCH   1  17
ATOM     16  C   UNL     1      -0.016   1.527   0.009  0.00  0.00    +0.028 C 
ATOM     17  C   UNL     1       0.003  -0.002   0.002  0.00  0.00    +0.072 C 
BRANCH  17  18
ATOM     18  C   UNL     1       0.742  -0.509   1.242  0.00  0.00    +0.026 C 
BRANCH  18  19
ATOM     19  C   UNL     1       0.653  -2.036   1.300  0.00  0.00    +0.037 C 
BRANCH  19  20
ATOM     20  C   UNL     1       1.381  -2.535   2.521  0.00  0.00    -0.047 A 
ATOM     21  C   UNL     1       2.726  -2.842   2.446  0.00  0.00    +0.005 A 
ATOM     22  C   UNL     1       3.395  -3.300   3.566  0.00  0.00    +0.015 A 
ATOM     23  C   UNL     1       2.716  -3.451   4.762  0.00  0.00    +0.018 A 
ATOM     24  C   UNL     1       1.370  -3.144   4.837  0.00  0.00    +0.015 A 
ATOM     25  C   UNL     1       0.704  -2.681   3.717  0.00  0.00    +0.005 A 
ATOM     26 BR   UNL     1       3.630  -4.077   6.295  0.00  0.00    -0.050 Br
ENDBRANCH  19  20
ENDBRANCH  18  19
ENDBRANCH  17  18
ENDBRANCH   1  17
TORSDOF 5
