REMARK  Name = ZINC39634938
REMARK  11 active torsions:
REMARK  status: ('A' for Active; 'I' for Inactive)
REMARK    1  A    between atoms: C_1  and  O_2
REMARK    2  A    between atoms: O_2  and  C_3
REMARK    3  A    between atoms: C_6  and  C_9
REMARK    4  A    between atoms: C_9  and  C_10
REMARK    5  A    between atoms: C_10  and  N_11
REMARK    6  A    between atoms: C_12  and  C_14
REMARK    7  A    between atoms: C_25  and  C_27
REMARK    8  A    between atoms: C_29  and  O_35
REMARK    9  A    between atoms: C_31  and  O_33
REMARK   10  A    between atoms: O_33  and  C_34
REMARK   11  A    between atoms: O_35  and  C_36
REMARK                            x       y       z     vdW  Elec       q    Type
REMARK                         _______ _______ _______ _____ _____    ______ ____
ROOT
ATOM      1  C   UNL     1       6.675  -4.635  -6.946  0.00  0.00    +0.100 C 
ATOM      2  C   UNL     1       6.444  -3.514  -7.984  0.00  0.00    +0.121 C 
ATOM      3  N   UNL     1       7.694  -2.719  -7.961  0.00  0.00    -0.296 N 
ATOM      4  C   UNL     1       8.771  -3.729  -7.829  0.00  0.00    +0.115 C 
ATOM      5  C   UNL     1       8.203  -4.776  -6.850  0.00  0.00    -0.004 C 
ATOM      6  C   UNL     1       8.633  -6.178  -7.269  0.00  0.00    -0.010 C 
ATOM      7  C   UNL     1      10.150  -6.312  -7.110  0.00  0.00    -0.082 C 
ATOM      8  N   UNL     1      10.521  -6.062  -5.712  0.00  0.00    +0.379 N 
ATOM      9  C   UNL     1      10.189  -4.680  -5.345  0.00  0.00    -0.082 C 
ATOM     10  C   UNL     1       8.673  -4.478  -5.430  0.00  0.00    -0.010 C 
ATOM     11  C   UNL     1       7.822  -1.379  -8.041  0.00  0.00    +0.247 C 
ATOM     12  O   UNL     1       6.834  -0.671  -8.019  0.00  0.00    -0.270 OA
ATOM     13  H   UNL     1      10.016  -6.699  -5.113  0.00  0.00    -0.086 HD
ATOM     14  H   UNL     1      11.512  -6.211  -5.597  0.00  0.00    -0.086 HD
ENDROOT
BRANCH  11  15
ATOM     15  C   UNL     1       9.165  -0.771  -8.156  0.00  0.00    +0.044 A 
ATOM     16  C   UNL     1      10.241  -1.533  -8.613  0.00  0.00    +0.059 A 
ATOM     17  C   UNL     1      11.497  -0.959  -8.720  0.00  0.00    +0.124 A 
ATOM     18  C   UNL     1      11.687   0.371  -8.373  0.00  0.00    +0.091 A 
ATOM     19  C   UNL     1      10.619   1.132  -7.918  0.00  0.00    +0.124 A 
ATOM     20  C   UNL     1       9.359   0.567  -7.813  0.00  0.00    +0.059 A 
BRANCH  19  21
ATOM     21  O   UNL     1      10.810   2.434  -7.579  0.00  0.00    -0.495 OA
ATOM     22  C   UNL     1      12.134   2.953  -7.716  0.00  0.00    +0.277 C 
ENDBRANCH  19  21
BRANCH  17  23
ATOM     23  O   UNL     1      12.546  -1.700  -9.166  0.00  0.00    -0.495 OA
ATOM     24  C   UNL     1      13.813  -1.045  -9.251  0.00  0.00    +0.277 C 
ENDBRANCH  17  23
ENDBRANCH  11  15
BRANCH   1  26
ATOM     25  N   UNL     1       5.755  -5.190  -4.718  0.00  0.00    -0.315 N 
ATOM     26  C   UNL     1       6.100  -4.240  -5.610  0.00  0.00    +0.218 C 
ATOM     27  O   UNL     1       5.947  -3.068  -5.338  0.00  0.00    -0.275 OA
ATOM     28  H   UNL     1       5.878  -6.127  -4.935  0.00  0.00    +0.149 HD
BRANCH  25  29
ATOM     29  C   UNL     1       5.196  -4.806  -3.419  0.00  0.00    +0.109 C 
BRANCH  29  30
ATOM     30  C   UNL     1       4.894  -6.064  -2.602  0.00  0.00    +0.054 C 
BRANCH  30  34
ATOM     31  C   UNL     1       3.262  -4.945   1.186  0.00  0.00    +0.120 A 
ATOM     32  C   UNL     1       2.421  -5.163   0.104  0.00  0.00    +0.046 A 
ATOM     33  C   UNL     1       2.951  -5.525  -1.119  0.00  0.00    +0.007 A 
ATOM     34  C   UNL     1       4.318  -5.669  -1.267  0.00  0.00    -0.046 A 
ATOM     35  C   UNL     1       5.158  -5.452  -0.190  0.00  0.00    +0.007 A 
ATOM     36  C   UNL     1       4.634  -5.085   1.034  0.00  0.00    +0.046 A 
BRANCH  31  38
ATOM     37  C   UNL     1       1.322  -4.464   2.473  0.00  0.00    +0.277 C 
ATOM     38  O   UNL     1       2.743  -4.589   2.390  0.00  0.00    -0.495 OA
ENDBRANCH  31  38
ENDBRANCH  30  34
ENDBRANCH  29  30
ENDBRANCH  25  29
ENDBRANCH   1  26
TORSDOF 8
