REMARK  Name = ZINC63537001
REMARK  5 active torsions:
REMARK  status: ('A' for Active; 'I' for Inactive)
REMARK    1  A    between atoms: C_2  and  C_3
REMARK    2  A    between atoms: C_3  and  N_4
REMARK    3  A    between atoms: C_6  and  C_13
REMARK    4  A    between atoms: C_18  and  C_21
REMARK    5  A    between atoms: C_23  and  C_27
REMARK                            x       y       z     vdW  Elec       q    Type
REMARK                         _______ _______ _______ _____ _____    ______ ____
ROOT
ATOM      1  C   UNL     1      -2.202  -2.615  -4.545  0.00  0.00    +0.252 C 
ATOM      2  O   UNL     1      -1.996  -3.634  -5.177  0.00  0.00    -0.270 OA
ATOM      3  N   UNL     1      -2.862  -1.589  -5.117  0.00  0.00    -0.261 N 
ATOM      4  C   UNL     1      -3.308  -1.695  -6.427  0.00  0.00    +0.165 A 
ATOM      5  N   UNL     1      -3.958  -0.803  -7.141  0.00  0.00    -0.225 NA
ATOM      6  C   UNL     1      -4.318  -1.057  -8.393  0.00  0.00    +0.082 A 
ATOM      7  C   UNL     1      -3.980  -2.283  -8.890  0.00  0.00    +0.077 A 
ATOM      8  S   UNL     1      -3.140  -2.993  -7.484  0.00  0.00    -0.060 S 
ATOM      9  H   UNL     1      -3.026  -0.777  -4.613  0.00  0.00    +0.157 HD
ENDROOT
BRANCH   1  12
ATOM     10  N   UNL     1      -1.318  -1.700  -1.126  0.00  0.00    -0.342 N 
ATOM     11  C   UNL     1      -1.884  -1.433  -2.327  0.00  0.00    +0.100 A 
ATOM     12  C   UNL     1      -1.730  -2.503  -3.158  0.00  0.00    +0.062 A 
ATOM     13  C   UNL     1      -0.997  -3.526  -2.390  0.00  0.00    +0.012 A 
ATOM     14  C   UNL     1      -0.762  -2.963  -1.125  0.00  0.00    +0.050 A 
ATOM     15  C   UNL     1      -0.076  -3.700  -0.167  0.00  0.00    +0.026 A 
ATOM     16  C   UNL     1       0.369  -4.970  -0.465  0.00  0.00    +0.002 A 
ATOM     17  C   UNL     1       0.139  -5.524  -1.715  0.00  0.00    +0.001 A 
ATOM     18  C   UNL     1      -0.546  -4.812  -2.676  0.00  0.00    +0.011 A 
BRANCH  10  19
ATOM     19  C   UNL     1      -1.293  -0.775   0.010  0.00  0.00    +0.148 C 
BRANCH  19  21
ATOM     20  C   UNL     1      -0.016   1.306   0.009  0.00  0.00    +0.005 C 
ATOM     21  C   UNL     1       0.002  -0.004   0.002  0.00  0.00    -0.013 C 
ENDBRANCH  19  21
ENDBRANCH  10  19
ENDBRANCH   1  12
BRANCH   6  22
ATOM     22  C   UNL     1      -5.053  -0.058  -9.211  0.00  0.00    +0.019 A 
ATOM     23  C   UNL     1      -5.357   1.264  -8.835  0.00  0.00    +0.042 A 
ATOM     24  C   UNL     1      -6.039   1.833  -9.875  0.00  0.00    +0.102 A 
ATOM     25  N   UNL     1      -6.155   0.891 -10.872  0.00  0.00    -0.356 N 
ATOM     26  H   UNL     1      -6.595   1.025 -11.726  0.00  0.00    +0.165 HD
ATOM     27  C   UNL     1      -5.551  -0.253 -10.467  0.00  0.00    +0.093 A 
BRANCH  24  28
ATOM     28  C   UNL     1      -6.555   3.205  -9.920  0.00  0.00    +0.258 C 
ATOM     29  O   UNL     1      -6.389   3.949  -8.971  0.00  0.00    -0.269 OA
ATOM     30  N   UNL     1      -7.212   3.642 -11.012  0.00  0.00    -0.324 N 
ATOM     31  H   UNL     1      -7.344   3.049 -11.769  0.00  0.00    +0.145 HD
ATOM     32  H   UNL     1      -7.553   4.550 -11.042  0.00  0.00    +0.145 HD
ENDBRANCH  24  28
ENDBRANCH   6  22
TORSDOF 5
