REMARK  Name = ZINC39913967
REMARK  11 active torsions:
REMARK  status: ('A' for Active; 'I' for Inactive)
REMARK    1  A    between atoms: C_1  and  C_2
REMARK    2  A    between atoms: C_2  and  C_3
REMARK    3  A    between atoms: C_3  and  O_4
REMARK    4  A    between atoms: O_4  and  C_5
REMARK    5  A    between atoms: C_9  and  C_11
REMARK    6  A    between atoms: C_14  and  C_25
REMARK    7  A    between atoms: N_21  and  C_22
REMARK    8  A    between atoms: C_22  and  C_23
REMARK    9  A    between atoms: C_23  and  O_24
REMARK   10  A    between atoms: C_28  and  C_32
REMARK   11  A    between atoms: C_30  and  O_31
REMARK                            x       y       z     vdW  Elec       q    Type
REMARK                         _______ _______ _______ _____ _____    ______ ____
ROOT
ATOM      1  C   UNL     1      -4.207  -5.721   0.192  0.00  0.00    +0.141 C 
ATOM      2  C   UNL     1      -4.221  -6.467   1.498  0.00  0.00    +0.035 A 
ATOM      3  C   UNL     1      -3.581  -6.727   2.715  0.00  0.00    +0.102 A 
ATOM      4  N   UNL     1      -4.323  -7.595   3.374  0.00  0.00    -0.173 NA
ATOM      5  N   UNL     1      -5.368  -7.908   2.694  0.00  0.00    -0.272 N 
ATOM      6  H   UNL     1      -6.055  -8.530   2.983  0.00  0.00    +0.189 HD
ATOM      7  C   UNL     1      -5.368  -7.237   1.505  0.00  0.00    +0.126 A 
ATOM      8  C   UNL     1      -6.090  -7.009   0.248  0.00  0.00    +0.266 C 
ATOM      9  O   UNL     1      -7.141  -7.540  -0.056  0.00  0.00    -0.268 OA
ATOM     10  N   UNL     1      -5.423  -6.130  -0.524  0.00  0.00    -0.283 N 
ENDROOT
BRANCH   3  11
ATOM     11  C   UNL     1      -2.301  -6.135   3.178  0.00  0.00    +0.045 A 
ATOM     12  C   UNL     1      -1.558  -5.322   2.326  0.00  0.00    +0.034 A 
ATOM     13  C   UNL     1      -0.367  -4.774   2.762  0.00  0.00    +0.045 A 
ATOM     14  C   UNL     1       0.090  -5.030   4.044  0.00  0.00    -0.029 A 
ATOM     15  C   UNL     1      -0.641  -5.836   4.896  0.00  0.00    +0.050 A 
ATOM     16  C   UNL     1      -1.840  -6.387   4.473  0.00  0.00    +0.126 A 
ATOM     17  C   UNL     1       1.390  -4.427   4.511  0.00  0.00    +0.045 C 
ATOM     18 CL   UNL     1       0.559  -3.761   1.699  0.00  0.00    -0.083 Cl
BRANCH  16  19
ATOM     19  O   UNL     1      -2.562  -7.174   5.313  0.00  0.00    -0.506 OA
ATOM     20  H   UNL     1      -2.336  -8.113   5.263  0.00  0.00    +0.292 HD
ENDBRANCH  16  19
ENDBRANCH   3  11
BRANCH   1  25
ATOM     21  C   UNL     1      -3.135  -2.103   0.382  0.00  0.00    +0.121 A 
ATOM     22  C   UNL     1      -4.272  -1.507   0.907  0.00  0.00    +0.045 A 
ATOM     23  C   UNL     1      -5.382  -2.276   1.198  0.00  0.00    +0.004 A 
ATOM     24  C   UNL     1      -5.360  -3.639   0.966  0.00  0.00    +0.006 A 
ATOM     25  C   UNL     1      -4.228  -4.235   0.443  0.00  0.00    -0.019 A 
ATOM     26  C   UNL     1      -3.117  -3.470   0.145  0.00  0.00    +0.051 A 
BRANCH  21  27
ATOM     27  O   UNL     1      -2.042  -1.348   0.094  0.00  0.00    -0.492 OA
BRANCH  27  28
ATOM     28  C   UNL     1      -2.131   0.052   0.363  0.00  0.00    +0.229 C 
BRANCH  28  30
ATOM     29  C   UNL     1      -0.911   2.230   0.267  0.00  0.00    +0.007 C 
ATOM     30  C   UNL     1      -0.815   0.731  -0.022  0.00  0.00    +0.038 C 
ENDBRANCH  28  30
ENDBRANCH  27  28
ENDBRANCH  21  27
ENDBRANCH   1  25
BRANCH  10  31
ATOM     31  C   UNL     1      -5.838  -5.660  -1.848  0.00  0.00    +0.137 C 
BRANCH  31  32
ATOM     32  C   UNL     1      -5.256  -6.582  -2.922  0.00  0.00    +0.175 C 
BRANCH  32  33
ATOM     33  O   UNL     1      -5.825  -7.886  -2.788  0.00  0.00    -0.393 OA
ATOM     34  H   UNL     1      -5.501  -8.525  -3.438  0.00  0.00    +0.209 HD
ENDBRANCH  32  33
ENDBRANCH  31  32
ENDBRANCH  10  31
TORSDOF 9
