REMARK  Name = ZINC57615560
REMARK  10 active torsions:
REMARK  status: ('A' for Active; 'I' for Inactive)
REMARK    1  A    between atoms: C_1  and  C_2
REMARK    2  A    between atoms: C_2  and  C_3
REMARK    3  A    between atoms: C_2  and  C_4
REMARK    4  A    between atoms: C_4  and  C_6
REMARK    5  A    between atoms: C_4  and  N_16
REMARK    6  A    between atoms: C_17  and  C_19
REMARK    7  A    between atoms: C_22  and  S_25
REMARK    8  A    between atoms: S_25  and  N_28
REMARK    9  A    between atoms: N_28  and  C_29
REMARK   10  A    between atoms: C_29  and  C_30
REMARK                            x       y       z     vdW  Elec       q    Type
REMARK                         _______ _______ _______ _____ _____    ______ ____
ROOT
ATOM      1  N   UNL     1      -2.119  -0.061   1.218  0.00  0.00    -0.301 N 
ATOM      2  C   UNL     1      -2.704   1.153   1.228  0.00  0.00    +0.245 C 
ATOM      3  O   UNL     1      -2.663   1.856   0.238  0.00  0.00    -0.270 OA
ATOM      4  H   UNL     1      -2.152  -0.622   2.009  0.00  0.00    +0.150 HD
ENDROOT
BRANCH   2   5
ATOM      5  C   UNL     1      -3.396   1.630   2.445  0.00  0.00    +0.037 A 
ATOM      6  C   UNL     1      -3.440   0.827   3.586  0.00  0.00    +0.015 A 
ATOM      7  C   UNL     1      -4.087   1.278   4.718  0.00  0.00    +0.029 A 
ATOM      8  C   UNL     1      -4.692   2.523   4.723  0.00  0.00    +0.105 A 
ATOM      9  C   UNL     1      -4.652   3.323   3.595  0.00  0.00    +0.029 A 
ATOM     10  C   UNL     1      -4.003   2.886   2.459  0.00  0.00    +0.015 A 
BRANCH   8  11
ATOM     11  S   UNL     1      -5.516   3.091   6.173  0.00  0.00    +0.059 S 
ATOM     12  O   UNL     1      -6.469   4.056   5.747  0.00  0.00    -0.153 OA
ATOM     13  O   UNL     1      -5.883   1.934   6.912  0.00  0.00    -0.153 OA
BRANCH  11  14
ATOM     14  N   UNL     1      -4.398   3.901   7.087  0.00  0.00    -0.183 NA
ATOM     15  H   UNL     1      -4.140   3.556   7.956  0.00  0.00    +0.148 HD
BRANCH  14  16
ATOM     16  C   UNL     1      -3.799   5.140   6.583  0.00  0.00    +0.180 C 
BRANCH  16  17
ATOM     17  C   UNL     1      -3.117   5.864   7.715  0.00  0.00    +0.120 A 
ATOM     18  C   UNL     1      -1.833   5.711   8.087  0.00  0.00    +0.046 A 
ATOM     19  C   UNL     1      -1.618   6.578   9.183  0.00  0.00    +0.041 A 
ATOM     20  C   UNL     1      -2.783   7.209   9.415  0.00  0.00    +0.195 A 
ATOM     21  O   UNL     1      -3.686   6.777   8.519  0.00  0.00    -0.466 OA
ENDBRANCH  16  17
ENDBRANCH  14  16
ENDBRANCH  11  14
ENDBRANCH   8  11
ENDBRANCH   2   5
BRANCH   1  22
ATOM     22  C   UNL     1      -1.433  -0.534   0.013  0.00  0.00    +0.142 C 
BRANCH  22  23
ATOM     23  C   UNL     1      -1.413  -2.041   0.005  0.00  0.00    +0.129 A 
ATOM     24  N   UNL     1      -2.038  -2.833   0.917  0.00  0.00    -0.340 N 
ATOM     25  H   UNL     1      -2.565  -2.534   1.673  0.00  0.00    +0.167 HD
ATOM     26  C   UNL     1      -1.781  -4.144   0.566  0.00  0.00    +0.066 A 
ATOM     27  C   UNL     1      -2.139  -5.375   1.098  0.00  0.00    +0.028 A 
ATOM     28  C   UNL     1      -1.705  -6.534   0.490  0.00  0.00    +0.002 A 
ATOM     29  C   UNL     1      -0.915  -6.477  -0.650  0.00  0.00    +0.002 A 
ATOM     30  C   UNL     1      -0.554  -5.274  -1.188  0.00  0.00    +0.030 A 
ATOM     31  C   UNL     1      -0.982  -4.087  -0.589  0.00  0.00    +0.089 A 
ATOM     32  N   UNL     1      -0.800  -2.773  -0.879  0.00  0.00    -0.231 NA
ENDBRANCH  22  23
BRANCH  22  34
ATOM     33  C   UNL     1      -0.019   1.526   0.010  0.00  0.00    +0.009 C 
ATOM     34  C   UNL     1       0.002  -0.004   0.002  0.00  0.00    +0.011 C 
ATOM     35  C   UNL     1       0.742  -0.511   1.242  0.00  0.00    +0.009 C 
ENDBRANCH  22  34
ENDBRANCH   1  22
TORSDOF 8
