REMARK  Name = ZINC39653279
REMARK  14 active torsions:
REMARK  status: ('A' for Active; 'I' for Inactive)
REMARK    1  A    between atoms: C_1  and  C_2
REMARK    2  A    between atoms: C_2  and  O_3
REMARK    3  A    between atoms: O_3  and  C_4
REMARK    4  A    between atoms: C_6  and  C_12
REMARK    5  A    between atoms: C_9  and  O_10
REMARK    6  A    between atoms: O_10  and  C_11
REMARK    7  A    between atoms: C_12  and  C_13
REMARK    8  A    between atoms: C_13  and  N_14
REMARK    9  A    between atoms: C_15  and  C_17
REMARK   10  A    between atoms: C_28  and  C_30
REMARK   11  A    between atoms: C_33  and  O_38
REMARK   12  A    between atoms: C_35  and  O_36
REMARK   13  A    between atoms: O_36  and  C_37
REMARK   14  A    between atoms: O_38  and  C_39
REMARK                            x       y       z     vdW  Elec       q    Type
REMARK                         _______ _______ _______ _____ _____    ______ ____
ROOT
ATOM      1  C   UNL     1       3.998  -7.453   2.556  0.00  0.00    +0.100 C 
ATOM      2  C   UNL     1       5.165  -6.790   1.790  0.00  0.00    +0.121 C 
ATOM      3  N   UNL     1       5.972  -6.124   2.839  0.00  0.00    -0.296 N 
ATOM      4  C   UNL     1       5.959  -7.077   3.975  0.00  0.00    +0.115 C 
ATOM      5  C   UNL     1       4.525  -7.644   3.989  0.00  0.00    -0.004 C 
ATOM      6  C   UNL     1       4.545  -9.125   4.352  0.00  0.00    -0.010 C 
ATOM      7  C   UNL     1       5.017  -9.285   5.800  0.00  0.00    -0.082 C 
ATOM      8  N   UNL     1       4.111  -8.554   6.695  0.00  0.00    +0.379 N 
ATOM      9  C   UNL     1       4.168  -7.117   6.400  0.00  0.00    -0.082 C 
ATOM     10  C   UNL     1       3.661  -6.866   4.977  0.00  0.00    -0.010 C 
ATOM     11  C   UNL     1       6.581  -4.924   2.776  0.00  0.00    +0.250 C 
ATOM     12  O   UNL     1       6.419  -4.210   1.804  0.00  0.00    -0.270 OA
ATOM     13  H   UNL     1       3.168  -8.886   6.561  0.00  0.00    -0.086 HD
ATOM     14  H   UNL     1       4.388  -8.711   7.652  0.00  0.00    -0.086 HD
ENDROOT
BRANCH  11  15
ATOM     15  C   UNL     1       7.442  -4.475   3.883  0.00  0.00    +0.079 A 
ATOM     16  C   UNL     1       8.219  -5.401   4.587  0.00  0.00    +0.020 A 
ATOM     17  C   UNL     1       9.023  -4.978   5.620  0.00  0.00    +0.046 A 
ATOM     18  C   UNL     1       9.066  -3.631   5.969  0.00  0.00    +0.124 A 
ATOM     19  C   UNL     1       8.300  -2.705   5.278  0.00  0.00    +0.092 A 
ATOM     20  C   UNL     1       7.492  -3.117   4.232  0.00  0.00    +0.136 A 
BRANCH  20  21
ATOM     21  O   UNL     1       6.745  -2.212   3.551  0.00  0.00    -0.494 OA
ATOM     22  C   UNL     1       6.847  -0.847   3.962  0.00  0.00    +0.277 C 
ENDBRANCH  20  21
BRANCH  18  23
ATOM     23  O   UNL     1       9.862  -3.223   6.990  0.00  0.00    -0.495 OA
ATOM     24  C   UNL     1      10.624  -4.228   7.660  0.00  0.00    +0.277 C 
ENDBRANCH  18  23
ENDBRANCH  11  15
BRANCH   1  26
ATOM     25  N   UNL     1       1.553  -7.083   2.588  0.00  0.00    -0.315 N 
ATOM     26  C   UNL     1       2.791  -6.552   2.557  0.00  0.00    +0.218 C 
ATOM     27  O   UNL     1       2.933  -5.348   2.529  0.00  0.00    -0.275 OA
ATOM     28  H   UNL     1       1.439  -8.046   2.611  0.00  0.00    +0.149 HD
BRANCH  25  29
ATOM     29  C   UNL     1       0.379  -6.207   2.588  0.00  0.00    +0.109 C 
BRANCH  29  30
ATOM     30  C   UNL     1      -0.892  -7.058   2.627  0.00  0.00    +0.054 C 
BRANCH  30  33
ATOM     31  C   UNL     1      -3.783  -4.940   1.429  0.00  0.00    +0.162 A 
ATOM     32  C   UNL     1      -2.672  -5.769   1.430  0.00  0.00    +0.053 A 
ATOM     33  C   UNL     1      -2.100  -6.156   2.628  0.00  0.00    -0.042 A 
ATOM     34  C   UNL     1      -2.634  -5.718   3.825  0.00  0.00    +0.007 A 
ATOM     35  C   UNL     1      -3.742  -4.891   3.831  0.00  0.00    +0.049 A 
ATOM     36  C   UNL     1      -4.316  -4.495   2.634  0.00  0.00    +0.162 A 
BRANCH  36  37
ATOM     37  O   UNL     1      -5.402  -3.677   2.638  0.00  0.00    -0.491 OA
ATOM     38  C   UNL     1      -5.896  -3.259   3.912  0.00  0.00    +0.277 C 
ENDBRANCH  36  37
BRANCH  31  39
ATOM     39  O   UNL     1      -4.346  -4.558   0.251  0.00  0.00    -0.489 OA
BRANCH  39  41
ATOM     40  C   UNL     1      -4.511  -4.521  -2.159  0.00  0.00    +0.048 C 
ATOM     41  C   UNL     1      -3.745  -5.054  -0.947  0.00  0.00    +0.226 C 
ENDBRANCH  39  41
ENDBRANCH  31  39
ENDBRANCH  30  33
ENDBRANCH  29  30
ENDBRANCH  25  29
ENDBRANCH   1  26
TORSDOF 10
