REMARK  Name = ZINC57899050
REMARK  8 active torsions:
REMARK  status: ('A' for Active; 'I' for Inactive)
REMARK    1  A    between atoms: C_1  and  C_2
REMARK    2  A    between atoms: C_7  and  C_8
REMARK    3  A    between atoms: C_8  and  O_9
REMARK    4  A    between atoms: O_9  and  C_10
REMARK    5  A    between atoms: C_13  and  C_17
REMARK    6  A    between atoms: C_15  and  N_16
REMARK    7  A    between atoms: C_17  and  C_18
REMARK    8  A    between atoms: C_18  and  C_19
REMARK                            x       y       z     vdW  Elec       q    Type
REMARK                         _______ _______ _______ _____ _____    ______ ____
ROOT
ATOM      1  C   UNL     1       0.053  -0.376   4.845  0.00  0.00    +0.142 A 
ATOM      2  C   UNL     1       0.031   0.995   5.036  0.00  0.00    +0.048 A 
ATOM      3  C   UNL     1       0.036   1.516   6.317  0.00  0.00    +0.007 A 
ATOM      4  C   UNL     1       0.064   0.670   7.410  0.00  0.00    -0.045 A 
ATOM      5  C   UNL     1       0.086  -0.700   7.229  0.00  0.00    +0.030 A 
ATOM      6  C   UNL     1       0.075  -1.229   5.946  0.00  0.00    +0.067 A 
ENDROOT
BRANCH   6   7
ATOM      7  N   UNL     1       0.092  -2.616   5.759  0.00  0.00    -0.355 N 
ATOM      8  H   UNL     1       0.088  -2.985   4.862  0.00  0.00    +0.142 HD
ATOM      9  H   UNL     1       0.107  -3.209   6.527  0.00  0.00    +0.142 HD
ENDBRANCH   6   7
BRANCH   1  10
ATOM     10  O   UNL     1       0.048  -0.889   3.585  0.00  0.00    -0.486 OA
BRANCH  10  11
ATOM     11  C   UNL     1       0.025   0.045   2.504  0.00  0.00    +0.265 C 
BRANCH  11  18
ATOM     12  C   UNL     1      -0.018   1.503   0.010  0.00  0.00    +0.044 C 
ATOM     13  C   UNL     1       0.002  -0.004   0.002  0.00  0.00    -0.044 A 
ATOM     14  C   UNL     1       0.006  -0.689  -1.199  0.00  0.00    +0.004 A 
ATOM     15  C   UNL     1       0.025  -2.071  -1.207  0.00  0.00    +0.000 A 
ATOM     16  C   UNL     1       0.040  -2.768  -0.013  0.00  0.00    +0.000 A 
ATOM     17  C   UNL     1       0.037  -2.084   1.188  0.00  0.00    +0.007 A 
ATOM     18  C   UNL     1       0.023  -0.702   1.195  0.00  0.00    -0.007 A 
ENDBRANCH  11  18
ENDBRANCH  10  11
ENDBRANCH   1  10
BRANCH   4  19
ATOM     19  C   UNL     1       0.070   1.243   8.804  0.00  0.00    +0.044 C 
BRANCH  19  20
ATOM     20  C   UNL     1      -1.369   1.412   9.293  0.00  0.00    +0.100 C 
BRANCH  20  21
ATOM     21  C   UNL     1      -1.363   1.986  10.687  0.00  0.00    +0.211 C 
ATOM     22  O   UNL     1      -0.310   2.235  11.235  0.00  0.00    -0.276 OA
ATOM     23  N   UNL     1      -2.527   2.222  11.324  0.00  0.00    -0.329 N 
ATOM     24  H   UNL     1      -3.369   2.022  10.885  0.00  0.00    +0.145 HD
ATOM     25  H   UNL     1      -2.523   2.591  12.221  0.00  0.00    +0.145 HD
ENDBRANCH  20  21
ENDBRANCH  19  20
ENDBRANCH   4  19
TORSDOF 7
