REMARK  Name = ZINC34792225
REMARK  12 active torsions:
REMARK  status: ('A' for Active; 'I' for Inactive)
REMARK    1  A    between atoms: C_1  and  O_2
REMARK    2  A    between atoms: O_2  and  C_3
REMARK    3  A    between atoms: C_6  and  C_11
REMARK    4  A    between atoms: C_8  and  O_9
REMARK    5  A    between atoms: O_9  and  C_10
REMARK    6  A    between atoms: C_11  and  C_12
REMARK    7  A    between atoms: C_12  and  N_13
REMARK    8  A    between atoms: C_14  and  C_16
REMARK    9  A    between atoms: C_16  and  N_17
REMARK   10  A    between atoms: C_23  and  C_32
REMARK   11  A    between atoms: N_28  and  C_29
REMARK   12  A    between atoms: C_29  and  C_30
REMARK                            x       y       z     vdW  Elec       q    Type
REMARK                         _______ _______ _______ _____ _____    ______ ____
ROOT
ATOM      1  N   UNL     1       1.283  -4.711   9.893  0.00  0.00    -0.283 N 
ATOM      2  C   UNL     1       0.956  -3.798  10.998  0.00  0.00    +0.160 C 
ATOM      3  C   UNL     1      -0.090  -4.529  11.810  0.00  0.00    +0.043 C 
ATOM      4  C   UNL     1      -0.292  -5.711  11.193  0.00  0.00    +0.058 C 
ATOM      5  C   UNL     1       0.525  -5.812  10.048  0.00  0.00    +0.247 C 
ATOM      6  O   UNL     1       0.544  -6.771   9.299  0.00  0.00    -0.270 OA
ATOM      7  C   UNL     1      -1.304  -6.660  11.801  0.00  0.00    +0.142 C 
ATOM      8  N   UNL     1      -1.988  -6.209  13.025  0.00  0.00    -0.288 N 
ATOM      9  C   UNL     1      -1.678  -4.997  13.525  0.00  0.00    +0.307 C 
ATOM     10  O   UNL     1      -2.237  -4.616  14.536  0.00  0.00    -0.252 OA
ATOM     11  N   UNL     1      -0.773  -4.197  12.945  0.00  0.00    -0.253 N 
ATOM     12  H   UNL     1      -2.647  -6.772  13.462  0.00  0.00    +0.151 HD
ENDROOT
BRANCH   7  13
ATOM     13  C   UNL     1      -2.356  -6.947  10.761  0.00  0.00    -0.021 A 
ATOM     14  C   UNL     1      -3.367  -6.032  10.530  0.00  0.00    +0.006 A 
ATOM     15  C   UNL     1      -4.332  -6.295   9.576  0.00  0.00    +0.002 A 
ATOM     16  C   UNL     1      -4.288  -7.472   8.853  0.00  0.00    +0.020 A 
ATOM     17  C   UNL     1      -3.276  -8.387   9.084  0.00  0.00    +0.041 A 
ATOM     18  C   UNL     1      -2.307  -8.121  10.035  0.00  0.00    +0.025 A 
ATOM     19 CL   UNL     1      -3.220  -9.866   8.176  0.00  0.00    -0.084 Cl
ENDBRANCH   7  13
BRANCH   1  20
ATOM     20  C   UNL     1       2.249  -4.466   8.819  0.00  0.00    +0.204 C 
BRANCH  20  22
ATOM     21  N   UNL     1       2.253  -3.463   6.558  0.00  0.00    -0.314 N 
ATOM     22  C   UNL     1       1.557  -3.788   7.665  0.00  0.00    +0.230 C 
ATOM     23  O   UNL     1       0.372  -3.535   7.733  0.00  0.00    -0.274 OA
ATOM     24  H   UNL     1       3.201  -3.665   6.505  0.00  0.00    +0.149 HD
BRANCH  21  25
ATOM     25  C   UNL     1       1.580  -2.804   5.436  0.00  0.00    +0.109 C 
BRANCH  25  26
ATOM     26  C   UNL     1       2.590  -2.548   4.315  0.00  0.00    +0.054 C 
BRANCH  26  30
ATOM     27  C   UNL     1       0.626  -0.619   1.042  0.00  0.00    +0.161 A 
ATOM     28  C   UNL     1       1.202   0.137   2.051  0.00  0.00    +0.049 A 
ATOM     29  C   UNL     1       1.836  -0.490   3.108  0.00  0.00    +0.007 A 
ATOM     30  C   UNL     1       1.897  -1.870   3.161  0.00  0.00    -0.042 A 
ATOM     31  C   UNL     1       1.325  -2.630   2.158  0.00  0.00    +0.053 A 
ATOM     32  C   UNL     1       0.683  -2.008   1.099  0.00  0.00    +0.162 A 
BRANCH  27  34
ATOM     33  C   UNL     1      -0.017   1.425   0.010  0.00  0.00    +0.277 C 
ATOM     34  O   UNL     1       0.002  -0.004   0.002  0.00  0.00    -0.491 OA
ENDBRANCH  27  34
BRANCH  32  35
ATOM     35  O   UNL     1       0.115  -2.754   0.114  0.00  0.00    -0.491 OA
ATOM     36  C   UNL     1       0.211  -4.174   0.238  0.00  0.00    +0.277 C 
ENDBRANCH  32  35
ENDBRANCH  26  30
ENDBRANCH  25  26
ENDBRANCH  21  25
ENDBRANCH  20  22
ENDBRANCH   1  20
BRANCH  11  37
ATOM     37  C   UNL     1      -0.501  -2.897  13.562  0.00  0.00    +0.141 C 
BRANCH  37  38
ATOM     38  C   UNL     1      -1.433  -1.863  12.984  0.00  0.00    -0.015 C 
ATOM     39  C   UNL     1      -2.188  -1.145  13.779  0.00  0.00    +0.005 C 
ENDBRANCH  37  38
ENDBRANCH  11  37
TORSDOF 10
