REMARK  Name = ZINC09668855
REMARK  6 active torsions:
REMARK  status: ('A' for Active; 'I' for Inactive)
REMARK    1  A    between atoms: C_1  and  N_2
REMARK    2  A    between atoms: C_12  and  S_15
REMARK    3  A    between atoms: S_15  and  C_16
REMARK    4  A    between atoms: C_16  and  C_17
REMARK    5  A    between atoms: N_19  and  C_20
REMARK    6  A    between atoms: C_21  and  C_29
REMARK                            x       y       z     vdW  Elec       q    Type
REMARK                         _______ _______ _______ _____ _____    ______ ____
ROOT
ATOM      1  C   UNL     1      -1.371  11.707   0.071  0.00  0.00    +0.228 C 
ATOM      2  O   UNL     1      -2.551  11.989   0.084  0.00  0.00    -0.275 OA
ATOM      3  N   UNL     1      -0.444  12.685   0.067  0.00  0.00    -0.279 N 
ATOM      4  H   UNL     1       0.499  12.459   0.056  0.00  0.00    +0.155 HD
ENDROOT
BRANCH   3   5
ATOM      5  C   UNL     1      -0.839  14.014   0.076  0.00  0.00    +0.084 A 
ATOM      6  C   UNL     1      -0.042  15.150   0.079  0.00  0.00    +0.068 A 
ATOM      7  C   UNL     1      -0.711  16.440   0.085  0.00  0.00    -0.023 A 
ATOM      8  C   UNL     1      -2.060  16.388   0.099  0.00  0.00    -0.004 A 
ATOM      9  S   UNL     1      -2.446  14.660   0.095  0.00  0.00    -0.077 S 
ATOM     10  C   UNL     1      -3.009  17.547   0.114  0.00  0.00    +0.043 C 
ATOM     11  C   UNL     1      -2.222  18.811   0.489  0.00  0.00    +0.005 C 
ATOM     12  C   UNL     1      -0.950  18.870  -0.360  0.00  0.00    +0.005 C 
ATOM     13  C   UNL     1       0.023  17.776   0.082  0.00  0.00    +0.037 C 
BRANCH   6  14
ATOM     14  C   UNL     1       1.421  15.053   0.071  0.00  0.00    +0.244 C 
ATOM     15  O   UNL     1       2.024  15.019  -0.986  0.00  0.00    -0.270 OA
ATOM     16  N   UNL     1       2.099  15.001   1.235  0.00  0.00    -0.325 N 
ATOM     17  H   UNL     1       1.619  15.028   2.078  0.00  0.00    +0.145 HD
ATOM     18  H   UNL     1       3.067  14.936   1.230  0.00  0.00    +0.145 HD
ENDBRANCH   6  14
ENDBRANCH   3   5
BRANCH   1  19
ATOM     19  C   UNL     1      -0.942  10.262   0.061  0.00  0.00    +0.173 C 
BRANCH  19  20
ATOM     20  S   UNL     1      -2.406   9.198   0.071  0.00  0.00    -0.075 S 
BRANCH  20  32
ATOM     21  C   UNL     1      -3.710   3.689   0.057  0.00  0.00    +0.151 C 
ATOM     22  N   UNL     1      -2.289   4.045   0.045  0.00  0.00    -0.327 N 
ATOM     23  C   UNL     1      -1.246   3.134   0.031  0.00  0.00    +0.053 A 
ATOM     24  C   UNL     1      -1.219   1.743   0.017  0.00  0.00    +0.026 A 
ATOM     25  C   UNL     1      -0.013   1.076   0.008  0.00  0.00    +0.002 A 
ATOM     26  C   UNL     1       1.182   1.780   0.000  0.00  0.00    +0.001 A 
ATOM     27  C   UNL     1       1.176   3.158   0.007  0.00  0.00    +0.012 A 
ATOM     28  C   UNL     1      -0.036   3.845   0.023  0.00  0.00    +0.029 A 
ATOM     29  C   UNL     1      -0.394   5.273   0.033  0.00  0.00    +0.138 A 
ATOM     30  C   UNL     1      -1.803   5.329   0.047  0.00  0.00    +0.165 A 
ATOM     31  N   UNL     1      -2.388   6.523   0.059  0.00  0.00    -0.201 NA
ATOM     32  C   UNL     1      -1.634   7.614   0.056  0.00  0.00    +0.212 A 
ATOM     33  N   UNL     1      -0.307   7.537   0.043  0.00  0.00    -0.122 NA
ATOM     34  N   UNL     1       0.302   6.401   0.032  0.00  0.00    -0.143 NA
ENDBRANCH  20  32
ENDBRANCH  19  20
ENDBRANCH   1  19
TORSDOF 5
