REMARK  Name = ZINC63819162
REMARK  7 active torsions:
REMARK  status: ('A' for Active; 'I' for Inactive)
REMARK    1  A    between atoms: C_7  and  C_10
REMARK    2  A    between atoms: C_10  and  C_12
REMARK    3  A    between atoms: C_10  and  C_31
REMARK    4  A    between atoms: C_12  and  N_13
REMARK    5  A    between atoms: C_14  and  C_16
REMARK    6  A    between atoms: C_20  and  S_22
REMARK    7  A    between atoms: S_22  and  N_25
REMARK                            x       y       z     vdW  Elec       q    Type
REMARK                         _______ _______ _______ _____ _____    ______ ____
ROOT
ATOM      1  N   UNL     1      -0.381  -4.714   1.705  0.00  0.00    -0.311 N 
ATOM      2  C   UNL     1      -0.518  -5.294   2.914  0.00  0.00    +0.244 C 
ATOM      3  O   UNL     1       0.334  -5.131   3.766  0.00  0.00    -0.270 OA
ATOM      4  H   UNL     1      -1.061  -4.844   1.025  0.00  0.00    +0.149 HD
ENDROOT
BRANCH   2   5
ATOM      5  C   UNL     1      -1.703  -6.128   3.204  0.00  0.00    +0.039 A 
ATOM      6  C   UNL     1      -2.680  -6.322   2.226  0.00  0.00    +0.013 A 
ATOM      7  C   UNL     1      -3.784  -7.101   2.503  0.00  0.00    +0.003 A 
ATOM      8  C   UNL     1      -3.924  -7.691   3.747  0.00  0.00    +0.028 A 
ATOM      9  C   UNL     1      -2.959  -7.503   4.721  0.00  0.00    +0.106 A 
ATOM     10  C   UNL     1      -1.848  -6.730   4.455  0.00  0.00    +0.041 A 
BRANCH   9  11
ATOM     11  S   UNL     1      -3.147  -8.257   6.302  0.00  0.00    +0.061 S 
ATOM     12  O   UNL     1      -2.381  -7.484   7.215  0.00  0.00    -0.153 OA
ATOM     13  O   UNL     1      -4.538  -8.488   6.479  0.00  0.00    -0.153 OA
BRANCH  11  14
ATOM     14  N   UNL     1      -2.427  -9.746   6.223  0.00  0.00    -0.172 NA
ATOM     15  C   UNL     1      -3.189 -10.935   5.808  0.00  0.00    +0.137 C 
ATOM     16  C   UNL     1      -2.401 -11.654   4.706  0.00  0.00    +0.177 C 
ATOM     17  O   UNL     1      -1.064 -11.882   5.156  0.00  0.00    -0.377 OA
ATOM     18  C   UNL     1      -0.325 -10.688   5.426  0.00  0.00    +0.177 C 
ATOM     19  C   UNL     1      -1.005  -9.919   6.559  0.00  0.00    +0.137 C 
ENDBRANCH  11  14
ENDBRANCH   9  11
ENDBRANCH   2   5
BRANCH   1  20
ATOM     20  C   UNL     1       0.794  -3.887   1.417  0.00  0.00    +0.113 C 
BRANCH  20  21
ATOM     21  C   UNL     1       0.784  -3.482  -0.058  0.00  0.00    +0.048 C 
BRANCH  21  28
ATOM     22  C   UNL     1       0.774   0.841  -1.597  0.00  0.00    +0.001 A 
ATOM     23  C   UNL     1       2.053   1.408  -1.687  0.00  0.00    +0.002 A 
ATOM     24  C   UNL     1       3.174   0.736  -1.350  0.00  0.00    +0.026 A 
ATOM     25  C   UNL     1       3.095  -0.604  -0.880  0.00  0.00    +0.043 A 
ATOM     26  N   UNL     1       4.020  -1.451  -0.498  0.00  0.00    -0.380 N 
ATOM     27  C   UNL     1       3.371  -2.707  -0.108  0.00  0.00    +0.145 C 
ATOM     28  C   UNL     1       1.889  -2.490  -0.314  0.00  0.00    -0.036 C 
ATOM     29  C   UNL     1       1.756  -1.226  -0.775  0.00  0.00    -0.001 A 
ATOM     30  C   UNL     1       0.588  -0.426  -1.162  0.00  0.00    +0.010 A 
ATOM     31  H   UNL     1       4.974  -1.276  -0.478  0.00  0.00    +0.160 HD
ENDBRANCH  21  28
BRANCH  21  32
ATOM     32  C   UNL     1       0.999  -4.721  -0.929  0.00  0.00    +0.063 C 
ATOM     33  C   UNL     1       0.898  -4.380  -2.439  0.00  0.00    +0.042 C 
ATOM     34  C   UNL     1       0.198  -5.471  -3.183  0.00  0.00    -0.019 C 
ATOM     35  C   UNL     1      -0.540  -6.345  -2.527  0.00  0.00    +0.036 C 
ATOM     36  S   UNL     1      -0.421  -5.889  -0.805  0.00  0.00    -0.129 S 
ENDBRANCH  21  32
ENDBRANCH  20  21
ENDBRANCH   1  20
TORSDOF 7
