REMARK  Name = ZINC20248955
REMARK  15 active torsions:
REMARK  status: ('A' for Active; 'I' for Inactive)
REMARK    1  A    between atoms: C_1  and  O_2
REMARK    2  A    between atoms: O_2  and  C_3
REMARK    3  A    between atoms: C_6  and  N_9
REMARK    4  A    between atoms: C_13  and  N_17
REMARK    5  A    between atoms: N_17  and  C_18
REMARK    6  A    between atoms: C_18  and  C_19
REMARK    7  A    between atoms: C_19  and  C_20
REMARK    8  A    between atoms: C_20  and  C_21
REMARK    9  A    between atoms: C_21  and  C_22
REMARK   10  A    between atoms: C_22  and  C_23
REMARK   11  A    between atoms: C_23  and  N_24
REMARK   12  A    between atoms: N_24  and  C_25
REMARK   13  A    between atoms: N_30  and  C_33
REMARK   14  A    between atoms: C_36  and  O_39
REMARK   15  A    between atoms: O_39  and  C_40
REMARK                            x       y       z     vdW  Elec       q    Type
REMARK                         _______ _______ _______ _____ _____    ______ ____
ROOT
ATOM      1  C   UNL     1       0.958  -8.266   6.925  0.00  0.00    -0.002 C 
ENDROOT
BRANCH   1   2
ATOM      2  C   UNL     1       1.267  -6.887   7.511  0.00  0.00    -0.019 C 
BRANCH   2   3
ATOM      3  C   UNL     1       2.170  -6.115   6.547  0.00  0.00    -0.082 C 
BRANCH   3   4
ATOM      4  N   UNL     1       2.467  -4.790   7.109  0.00  0.00    +0.387 N 
ATOM      5  H   UNL     1       2.937  -4.899   7.996  0.00  0.00    -0.085 HD
ATOM      6  H   UNL     1       1.606  -4.281   7.244  0.00  0.00    -0.085 HD
BRANCH   4  11
ATOM      7  N   UNL     1       2.555  -2.304   4.856  0.00  0.00    -0.212 N 
ATOM      8  C   UNL     1       3.197  -1.676   5.848  0.00  0.00    +0.225 C 
ATOM      9  O   UNL     1       3.307  -0.474   5.964  0.00  0.00    -0.275 OA
ATOM     10  C   UNL     1       3.765  -2.704   6.803  0.00  0.00    +0.090 C 
ATOM     11  C   UNL     1       3.334  -4.049   6.184  0.00  0.00    +0.026 C 
ATOM     12  C   UNL     1       2.564  -3.640   4.947  0.00  0.00    +0.213 C 
ATOM     13  O   UNL     1       2.041  -4.401   4.162  0.00  0.00    -0.277 OA
BRANCH   7  17
ATOM     14  C   UNL     1       0.666  -0.266   1.744  0.00  0.00    +0.120 A 
ATOM     15  C   UNL     1      -0.089  -0.963   2.675  0.00  0.00    +0.047 A 
ATOM     16  C   UNL     1       0.535  -1.638   3.705  0.00  0.00    +0.027 A 
ATOM     17  C   UNL     1       1.920  -1.619   3.809  0.00  0.00    +0.044 A 
ATOM     18  C   UNL     1       2.675  -0.921   2.876  0.00  0.00    +0.027 A 
ATOM     19  C   UNL     1       2.050  -0.251   1.844  0.00  0.00    +0.047 A 
BRANCH  14  21
ATOM     20  C   UNL     1      -1.377   0.341   0.689  0.00  0.00    +0.277 C 
ATOM     21  O   UNL     1       0.050   0.399   0.731  0.00  0.00    -0.495 OA
ENDBRANCH  14  21
ENDBRANCH   7  17
ENDBRANCH   4  11
ENDBRANCH   3   4
ENDBRANCH   2   3
ENDBRANCH   1   2
BRANCH   1  22
ATOM     22  C   UNL     1       0.054  -9.038   7.889  0.00  0.00    -0.002 C 
BRANCH  22  23
ATOM     23  C   UNL     1      -0.255 -10.418   7.304  0.00  0.00    -0.019 C 
BRANCH  23  24
ATOM     24  C   UNL     1      -1.158 -11.190   8.268  0.00  0.00    -0.082 C 
BRANCH  24  25
ATOM     25  N   UNL     1      -1.455 -12.514   7.705  0.00  0.00    +0.387 N 
ATOM     26  H   UNL     1      -1.924 -12.406   6.819  0.00  0.00    -0.085 HD
ATOM     27  H   UNL     1      -0.594 -13.023   7.570  0.00  0.00    -0.085 HD
BRANCH  25  28
ATOM     28  C   UNL     1      -2.322 -13.256   8.631  0.00  0.00    +0.026 C 
ATOM     29  C   UNL     1      -2.593 -14.678   8.099  0.00  0.00    +0.090 C 
ATOM     30  C   UNL     1      -4.094 -14.706   7.911  0.00  0.00    +0.225 C 
ATOM     31  O   UNL     1      -4.733 -15.653   7.504  0.00  0.00    -0.275 OA
ATOM     32  N   UNL     1      -4.605 -13.521   8.267  0.00  0.00    -0.212 N 
ATOM     33  C   UNL     1      -3.697 -12.628   8.691  0.00  0.00    +0.213 C 
ATOM     34  O   UNL     1      -3.938 -11.499   9.061  0.00  0.00    -0.277 OA
BRANCH  32  35
ATOM     35  C   UNL     1      -5.978 -13.236   8.205  0.00  0.00    +0.044 A 
ATOM     36  C   UNL     1      -6.859 -13.875   9.066  0.00  0.00    +0.027 A 
ATOM     37  C   UNL     1      -8.210 -13.595   9.004  0.00  0.00    +0.047 A 
ATOM     38  C   UNL     1      -8.686 -12.674   8.082  0.00  0.00    +0.120 A 
ATOM     39  C   UNL     1      -7.806 -12.036   7.220  0.00  0.00    +0.047 A 
ATOM     40  C   UNL     1      -6.454 -12.312   7.285  0.00  0.00    +0.027 A 
BRANCH  38  41
ATOM     41  O   UNL     1     -10.016 -12.399   8.021  0.00  0.00    -0.495 OA
ATOM     42  C   UNL     1     -10.436 -11.441   7.047  0.00  0.00    +0.277 C 
ENDBRANCH  38  41
ENDBRANCH  32  35
ENDBRANCH  25  28
ENDBRANCH  24  25
ENDBRANCH  23  24
ENDBRANCH  22  23
ENDBRANCH   1  22
TORSDOF 13
