REMARK  Name = ZINC02032025
REMARK  1 active torsions:
REMARK  status: ('A' for Active; 'I' for Inactive)
REMARK    1  A    between atoms: C_8  and  O_14
REMARK                            x       y       z     vdW  Elec       q    Type
REMARK                         _______ _______ _______ _____ _____    ______ ____
ROOT
ATOM      1  C   UNL     1       2.336   2.152   2.640  0.00  0.00    +0.000 C 
ATOM      2  C   UNL     1       0.868   2.321   3.039  0.00  0.00    +0.000 C 
ATOM      3  C   UNL     1       0.055   1.140   2.505  0.00  0.00    +0.000 C 
ATOM      4  C   UNL     1      -0.729   1.579   1.267  0.00  0.00    +0.000 C 
ATOM      5  C   UNL     1      -0.013   1.086   0.008  0.00  0.00    +0.005 C 
ATOM      6  C   UNL     1      -0.753   1.593  -1.231  0.00  0.00    +0.068 C 
ATOM      7  C   UNL     1       0.247   2.227  -2.200  0.00  0.00    +0.196 C 
ATOM      8  C   UNL     1       1.121   3.235  -1.450  0.00  0.00    +0.174 C 
ATOM      9  C   UNL     1       2.579   2.774  -1.486  0.00  0.00    +0.037 C 
ATOM     10  C   UNL     1       3.419   3.668  -0.571  0.00  0.00    +0.003 C 
ATOM     11  C   UNL     1       3.742   2.915   0.721  0.00  0.00    +0.000 C 
ATOM     12  C   UNL     1       2.787   3.367   1.828  0.00  0.00    +0.000 C 
ATOM     13  O   UNL     1      -0.461   2.893  -3.249  0.00  0.00    -0.344 OA
ATOM     14  C   UNL     1      -0.479   2.013  -4.381  0.00  0.00    +0.191 C 
ATOM     15  C   UNL     1       0.558   0.920  -4.080  0.00  0.00    +0.191 C 
ATOM     16  O   UNL     1       1.071   1.210  -2.773  0.00  0.00    -0.344 OA
ENDROOT
BRANCH   8  17
ATOM     17  O   UNL     1       1.011   4.516  -2.074  0.00  0.00    -0.386 OA
ATOM     18  H   UNL     1       1.540   5.206  -1.650  0.00  0.00    +0.210 HD
ENDBRANCH   8  17
TORSDOF 1
