REMARK  Name = ZINC02746584
REMARK  4 active torsions:
REMARK  status: ('A' for Active; 'I' for Inactive)
REMARK    1  A    between atoms: C_3  and  O_24
REMARK    2  A    between atoms: C_4  and  C_8
REMARK    3  A    between atoms: N_10  and  N_11
REMARK    4  A    between atoms: C_12  and  C_13
REMARK                            x       y       z     vdW  Elec       q    Type
REMARK                         _______ _______ _______ _____ _____    ______ ____
ROOT
ATOM      1  C   UNL     1      -0.035   0.036  -2.491  0.00  0.00    +0.267 C 
ATOM      2  O   UNL     1      -0.051   1.252  -2.492  0.00  0.00    -0.268 OA
ATOM      3  N   UNL     1      -0.042  -0.639  -3.658  0.00  0.00    -0.203 N 
ATOM      4  H   UNL     1      -0.028  -1.609  -3.658  0.00  0.00    +0.178 HD
ENDROOT
BRANCH   1   8
ATOM      5  C   UNL     1       0.042  -2.087   1.189  0.00  0.00    +0.023 A 
ATOM      6  C   UNL     1       0.023  -0.707   1.197  0.00  0.00    +0.047 A 
ATOM      7  C   UNL     1       0.002  -0.004   0.002  0.00  0.00    +0.129 A 
ATOM      8  C   UNL     1      -0.006  -0.701  -1.214  0.00  0.00    +0.081 A 
ATOM      9  C   UNL     1       0.019  -2.098  -1.209  0.00  0.00    +0.036 A 
ATOM     10  C   UNL     1       0.039  -2.781  -0.011  0.00  0.00    +0.042 A 
ATOM     11 CL   UNL     1       0.063  -4.517  -0.006  0.00  0.00    -0.084 Cl
BRANCH   7  12
ATOM     12  O   UNL     1      -0.016   1.353   0.009  0.00  0.00    -0.506 OA
ATOM     13  H   UNL     1       0.862   1.758   0.003  0.00  0.00    +0.292 HD
ENDBRANCH   7  12
ENDBRANCH   1   8
BRANCH   3  14
ATOM     14  N   UNL     1      -0.069   0.061  -4.872  0.00  0.00    -0.187 NA
ATOM     15  C   UNL     1      -0.076  -0.588  -5.996  0.00  0.00    +0.144 C 
BRANCH  15  16
ATOM     16  C   UNL     1      -0.105   0.148  -7.272  0.00  0.00    +0.071 A 
ATOM     17  C   UNL     1      -0.131   1.547  -7.275  0.00  0.00    +0.173 A 
ATOM     18  C   UNL     1      -0.152   2.232  -8.476  0.00  0.00    +0.197 A 
ATOM     19  C   UNL     1      -0.160   1.535  -9.676  0.00  0.00    +0.199 A 
ATOM     20  C   UNL     1      -0.141   0.148  -9.679  0.00  0.00    +0.197 A 
ATOM     21  C   UNL     1      -0.113  -0.549  -8.485  0.00  0.00    +0.173 A 
ATOM     22  F   UNL     1      -0.094  -1.899  -8.490  0.00  0.00    -0.202 F 
ATOM     23  F   UNL     1      -0.148  -0.523 -10.851  0.00  0.00    -0.199 F 
ATOM     24  F   UNL     1      -0.187   2.210 -10.846  0.00  0.00    -0.199 F 
ATOM     25  F   UNL     1      -0.171   3.583  -8.482  0.00  0.00    -0.199 F 
ATOM     26  F   UNL     1      -0.129   2.227  -6.108  0.00  0.00    -0.202 F 
ENDBRANCH  15  16
ENDBRANCH   3  14
TORSDOF 4
