REMARK  Name = ZINC05664660
REMARK  8 active torsions:
REMARK  status: ('A' for Active; 'I' for Inactive)
REMARK    1  A    between atoms: C_1  and  C_2
REMARK    2  A    between atoms: C_2  and  N_3
REMARK    3  A    between atoms: N_3  and  N_4
REMARK    4  A    between atoms: C_5  and  C_7
REMARK    5  A    between atoms: C_12  and  O_13
REMARK    6  A    between atoms: C_15  and  C_16
REMARK    7  A    between atoms: N_18  and  C_19
REMARK    8  A    between atoms: C_24  and  C_25
REMARK                            x       y       z     vdW  Elec       q    Type
REMARK                         _______ _______ _______ _____ _____    ______ ____
ROOT
ATOM      1  C   UNL     1       7.192   2.153  -1.220  0.00  0.00    +0.062 C 
ATOM      2  C   UNL     1       5.992   2.438  -0.355  0.00  0.00    +0.024 C 
ATOM      3  C   UNL     1       4.876   1.430  -0.259  0.00  0.00    +0.087 C 
ENDROOT
BRANCH   3   4
ATOM      4  C   UNL     1       3.804   1.953   0.663  0.00  0.00    +0.243 C 
ATOM      5  O   UNL     1       3.933   3.038   1.189  0.00  0.00    -0.270 OA
ATOM      6  N   UNL     1       2.702   1.215   0.902  0.00  0.00    -0.281 N 
ATOM      7  H   UNL     1       2.619   0.200   0.487  0.00  0.00    +0.155 HD
BRANCH   6   8
ATOM      8  C   UNL     1       1.667   1.739   1.675  0.00  0.00    +0.051 A 
ATOM      9  C   UNL     1       1.949   2.596   2.729  0.00  0.00    +0.024 A 
ATOM     10  C   UNL     1       0.923   3.114   3.494  0.00  0.00    +0.002 A 
ATOM     11  C   UNL     1      -0.394   2.783   3.217  0.00  0.00    +0.001 A 
ATOM     12  C   UNL     1      -0.693   1.936   2.172  0.00  0.00    +0.021 A 
ATOM     13  C   UNL     1       0.335   1.401   1.392  0.00  0.00    +0.073 A 
BRANCH  13  14
ATOM     14  C   UNL     1       0.031   0.517   0.307  0.00  0.00    +0.101 C 
ATOM     15  N   UNL     1      -0.210  -0.183  -0.554  0.00  0.00    -0.191 NA
ENDBRANCH  13  14
ENDBRANCH   6   8
ENDBRANCH   3   4
BRANCH   2  16
ATOM     16  N   UNL     1       5.919   3.537   0.297  0.00  0.00    -0.268 N 
ATOM     17  H   UNL     1       6.773   4.231   0.302  0.00  0.00    +0.170 HD
BRANCH  16  18
ATOM     18  N   UNL     1       4.753   3.856   1.005  0.00  0.00    -0.233 N 
ATOM     19  C   UNL     1       4.638   5.056   1.608  0.00  0.00    +0.264 C 
ATOM     20  O   UNL     1       5.546   5.862   1.537  0.00  0.00    -0.269 OA
ATOM     21  H   UNL     1       3.932   3.127   1.069  0.00  0.00    +0.173 HD
BRANCH  19  22
ATOM     22  C   UNL     1       3.410   5.392   2.353  0.00  0.00    +0.081 A 
ATOM     23  C   UNL     1       2.365   4.469   2.437  0.00  0.00    +0.036 A 
ATOM     24  C   UNL     1       1.220   4.789   3.136  0.00  0.00    +0.042 A 
ATOM     25  C   UNL     1       1.102   6.024   3.756  0.00  0.00    +0.023 A 
ATOM     26  C   UNL     1       2.128   6.944   3.681  0.00  0.00    +0.047 A 
ATOM     27  C   UNL     1       3.288   6.636   2.987  0.00  0.00    +0.129 A 
ATOM     28 CL   UNL     1      -0.079   3.642   3.240  0.00  0.00    -0.084 Cl
BRANCH  27  29
ATOM     29  O   UNL     1       4.300   7.538   2.917  0.00  0.00    -0.506 OA
ATOM     30  H   UNL     1       4.202   8.514   3.414  0.00  0.00    +0.292 HD
ENDBRANCH  27  29
ENDBRANCH  19  22
ENDBRANCH  16  18
ENDBRANCH   2  16
TORSDOF 7
