REMARK  Name = ZINC44019947
REMARK  6 active torsions:
REMARK  status: ('A' for Active; 'I' for Inactive)
REMARK    1  A    between atoms: C_1  and  C_2
REMARK    2  A    between atoms: C_3  and  C_4
REMARK    3  A    between atoms: C_4  and  O_33
REMARK    4  A    between atoms: C_9  and  C_32
REMARK    5  A    between atoms: C_11  and  C_25
REMARK    6  A    between atoms: C_28  and  N_31
REMARK                            x       y       z     vdW  Elec       q    Type
REMARK                         _______ _______ _______ _____ _____    ______ ____
ROOT
ATOM      1  C   UNL     1       0.212  -2.936  -0.219  0.00  0.00    +0.132 C 
ATOM      2  C   UNL     1       0.691  -3.473  -1.581  0.00  0.00    +0.049 C 
ATOM      3  C   UNL     1      -0.463  -4.352  -2.122  0.00  0.00    +0.008 C 
ATOM      4  C   UNL     1      -1.709  -3.692  -1.508  0.00  0.00    +0.006 C 
ATOM      5  C   UNL     1      -1.287  -3.326  -0.082  0.00  0.00    +0.012 C 
ATOM      6  C   UNL     1      -1.336  -4.542   0.850  0.00  0.00    +0.023 C 
ATOM      7  C   UNL     1      -2.722  -5.180   0.775  0.00  0.00    +0.046 C 
ATOM      8  C   UNL     1      -2.914  -5.694  -0.631  0.00  0.00    -0.055 C 
ATOM      9  C   UNL     1      -2.956  -6.959  -1.011  0.00  0.00    -0.044 C 
ATOM     10  C   UNL     1      -2.475  -8.100  -0.143  0.00  0.00    +0.043 C 
ATOM     11  C   UNL     1      -1.772  -9.168  -0.987  0.00  0.00    +0.083 C 
ATOM     12  C   UNL     1      -2.611  -9.538  -2.177  0.00  0.00    +0.157 C 
ATOM     13  O   UNL     1      -2.697 -10.694  -2.526  0.00  0.00    -0.293 OA
ATOM     14  C   UNL     1      -3.299  -8.536  -2.880  0.00  0.00    +0.050 C 
ATOM     15  C   UNL     1      -3.420  -7.299  -2.362  0.00  0.00    -0.041 C 
ATOM     16  C   UNL     1      -4.067  -6.194  -3.170  0.00  0.00    +0.036 C 
ATOM     17  C   UNL     1      -3.139  -4.985  -3.072  0.00  0.00    +0.013 C 
ATOM     18  C   UNL     1      -2.947  -4.554  -1.632  0.00  0.00    +0.020 C 
ATOM     19  C   UNL     1      -2.106  -2.150   0.471  0.00  0.00    +0.015 C 
ENDROOT
BRANCH   7  20
ATOM     20  C   UNL     1      -2.976  -6.151   1.899  0.00  0.00    -0.040 A 
ATOM     21  C   UNL     1      -1.914  -6.795   2.507  0.00  0.00    +0.006 A 
ATOM     22  C   UNL     1      -2.143  -7.686   3.537  0.00  0.00    +0.023 A 
ATOM     23  C   UNL     1      -3.442  -7.934   3.963  0.00  0.00    +0.025 A 
ATOM     24  C   UNL     1      -4.506  -7.285   3.350  0.00  0.00    +0.023 A 
ATOM     25  C   UNL     1      -4.269  -6.392   2.324  0.00  0.00    +0.006 A 
BRANCH  23  26
ATOM     26  N   UNL     1      -3.677  -8.835   5.004  0.00  0.00    -0.358 N 
ATOM     27  H   UNL     1      -2.933  -9.288   5.431  0.00  0.00    +0.142 HD
ATOM     28  H   UNL     1      -4.584  -9.008   5.301  0.00  0.00    +0.142 HD
ENDBRANCH  23  26
ENDBRANCH   7  20
BRANCH   1  31
ATOM     29  C   UNL     1       0.604   1.163  -0.112  0.00  0.00    +0.106 C 
ATOM     30  C   UNL     1       0.464  -0.301  -0.151  0.00  0.00    -0.103 C 
ATOM     31  C   UNL     1       0.352  -1.470  -0.181  0.00  0.00    -0.067 C 
ENDBRANCH   1  31
BRANCH   1  32
ATOM     32  O   UNL     1       0.977  -3.522   0.835  0.00  0.00    -0.376 OA
ATOM     33  H   UNL     1       1.921  -3.318   0.796  0.00  0.00    +0.211 HD
ENDBRANCH   1  32
TORSDOF 4
