REMARK  Name = ZINC63230310
REMARK  13 active torsions:
REMARK  status: ('A' for Active; 'I' for Inactive)
REMARK    1  A    between atoms: C_1  and  C_2
REMARK    2  A    between atoms: C_2  and  O_3
REMARK    3  A    between atoms: O_3  and  C_4
REMARK    4  A    between atoms: C_7  and  O_10
REMARK    5  A    between atoms: O_10  and  C_11
REMARK    6  A    between atoms: C_11  and  C_12
REMARK    7  A    between atoms: C_12  and  C_14
REMARK    8  A    between atoms: C_12  and  O_35
REMARK    9  A    between atoms: C_14  and  N_15
REMARK   10  A    between atoms: N_15  and  C_16
REMARK   11  A    between atoms: C_16  and  C_17
REMARK   12  A    between atoms: C_17  and  C_19
REMARK   13  A    between atoms: C_17  and  C_26
REMARK                            x       y       z     vdW  Elec       q    Type
REMARK                         _______ _______ _______ _____ _____    ______ ____
ROOT
ATOM      1  C   UNL     1       3.436 -10.321  -5.349  0.00  0.00    -0.070 C 
ENDROOT
BRANCH   1   2
ATOM      2  N   UNL     1       2.641  -9.848  -4.208  0.00  0.00    +0.381 N 
ATOM      3  H   UNL     1       3.052 -10.184  -3.349  0.00  0.00    -0.086 HD
ATOM      4  H   UNL     1       1.698 -10.197  -4.287  0.00  0.00    -0.086 HD
BRANCH   2   5
ATOM      5  C   UNL     1       2.621  -8.380  -4.200  0.00  0.00    -0.047 C 
BRANCH   5   6
ATOM      6  C   UNL     1       1.793  -7.887  -3.011  0.00  0.00    +0.135 C 
BRANCH   6   7
ATOM      7  O   UNL     1       0.457  -8.381  -3.123  0.00  0.00    -0.390 OA
ATOM      8  H   UNL     1      -0.001  -8.098  -3.927  0.00  0.00    +0.210 HD
ENDBRANCH   6   7
BRANCH   6   9
ATOM      9  C   UNL     1       1.772  -6.357  -3.002  0.00  0.00    +0.258 C 
BRANCH   9  10
ATOM     10  O   UNL     1       1.099  -5.897  -1.829  0.00  0.00    -0.489 OA
BRANCH  10  14
ATOM     11  C   UNL     1       0.777  -1.811  -1.336  0.00  0.00    +0.121 A 
ATOM     12  C   UNL     1       0.242  -2.668  -0.386  0.00  0.00    +0.049 A 
ATOM     13  C   UNL     1       0.350  -4.035  -0.551  0.00  0.00    +0.049 A 
ATOM     14  C   UNL     1       0.992  -4.551  -1.667  0.00  0.00    +0.121 A 
ATOM     15  C   UNL     1       1.526  -3.693  -2.618  0.00  0.00    +0.049 A 
ATOM     16  C   UNL     1       1.414  -2.326  -2.455  0.00  0.00    +0.049 A 
BRANCH  11  17
ATOM     17  O   UNL     1       0.671  -0.465  -1.174  0.00  0.00    -0.492 OA
BRANCH  17  19
ATOM     18  C   UNL     1      -0.019   1.526   0.010  0.00  0.00    +0.048 C 
ATOM     19  C   UNL     1       0.002  -0.004   0.002  0.00  0.00    +0.225 C 
ENDBRANCH  17  19
ENDBRANCH  11  17
ENDBRANCH  10  14
ENDBRANCH   9  10
ENDBRANCH   6   9
ENDBRANCH   5   6
ENDBRANCH   2   5
ENDBRANCH   1   2
BRANCH   1  20
ATOM     20  C   UNL     1       3.457 -11.851  -5.357  0.00  0.00    +0.032 C 
BRANCH  20  21
ATOM     21  C   UNL     1       4.167 -12.337  -6.594  0.00  0.00    -0.036 C 
ATOM     22  C   UNL     1       3.654 -13.115  -7.574  0.00  0.00    -0.001 A 
ATOM     23  C   UNL     1       2.331 -13.719  -7.774  0.00  0.00    +0.010 A 
ATOM     24  C   UNL     1       2.111 -14.466  -8.880  0.00  0.00    +0.001 A 
ATOM     25  C   UNL     1       3.112 -14.678  -9.837  0.00  0.00    +0.002 A 
ATOM     26  C   UNL     1       4.352 -14.156  -9.724  0.00  0.00    +0.026 A 
ATOM     27  C   UNL     1       4.694 -13.353  -8.601  0.00  0.00    +0.043 A 
ATOM     28  N   UNL     1       5.807 -12.746  -8.268  0.00  0.00    -0.380 N 
ATOM     29  C   UNL     1       5.597 -12.048  -6.994  0.00  0.00    +0.145 C 
ATOM     30  H   UNL     1       6.631 -12.753  -8.780  0.00  0.00    +0.160 HD
ENDBRANCH  20  21
BRANCH  20  31
ATOM     31  C   UNL     1       4.181 -12.350  -4.133  0.00  0.00    -0.024 A 
ATOM     32  C   UNL     1       5.499 -11.995  -3.917  0.00  0.00    +0.005 A 
ATOM     33  C   UNL     1       6.163 -12.452  -2.795  0.00  0.00    +0.000 A 
ATOM     34  C   UNL     1       5.510 -13.266  -1.888  0.00  0.00    +0.001 A 
ATOM     35  C   UNL     1       4.192 -13.622  -2.103  0.00  0.00    +0.020 A 
ATOM     36  C   UNL     1       3.525 -13.159  -3.224  0.00  0.00    +0.045 A 
ATOM     37 CL   UNL     1       1.867 -13.601  -3.491  0.00  0.00    -0.083 Cl
ENDBRANCH  20  31
ENDBRANCH   1  20
TORSDOF 12
