REMARK  Name = ZINC03170947
REMARK  6 active torsions:
REMARK  status: ('A' for Active; 'I' for Inactive)
REMARK    1  A    between atoms: C_4  and  N_28
REMARK    2  A    between atoms: C_5  and  C_7
REMARK    3  A    between atoms: C_9  and  C_21
REMARK    4  A    between atoms: C_11  and  C_16
REMARK    5  A    between atoms: C_11  and  O_20
REMARK    6  A    between atoms: C_21  and  C_23
REMARK                            x       y       z     vdW  Elec       q    Type
REMARK                         _______ _______ _______ _____ _____    ______ ____
ROOT
ATOM      1  C   UNL     1       1.405  -2.178  -0.033  0.00  0.00    +0.122 C 
ATOM      2  C   UNL     1       1.433  -2.704   1.406  0.00  0.00    +0.145 C 
ATOM      3  C   UNL     1       1.430  -4.236   1.365  0.00  0.00    +0.243 C 
ATOM      4  N   UNL     1       0.274  -4.694   0.593  0.00  0.00    -0.264 N 
ATOM      5  C   UNL     1      -0.243  -3.949  -0.396  0.00  0.00    +0.302 C 
ATOM      6  O   UNL     1      -1.198  -4.381  -1.014  0.00  0.00    -0.253 OA
ATOM      7  N   UNL     1       0.251  -2.747  -0.731  0.00  0.00    -0.292 N 
ATOM      8  H   UNL     1      -0.125  -5.553   0.800  0.00  0.00    +0.153 HD
ATOM      9  H   UNL     1      -0.166  -2.245  -1.449  0.00  0.00    +0.151 HD
ENDROOT
BRANCH   1  14
ATOM     10  C   UNL     1      -0.041   1.306  -0.185  0.00  0.00    +0.000 A 
ATOM     11  C   UNL     1       1.087   2.082   0.008  0.00  0.00    +0.002 A 
ATOM     12  C   UNL     1       2.318   1.478   0.188  0.00  0.00    +0.033 A 
ATOM     13  C   UNL     1       2.421   0.100   0.174  0.00  0.00    +0.131 A 
ATOM     14  C   UNL     1       1.293  -0.675  -0.018  0.00  0.00    +0.004 A 
ATOM     15  C   UNL     1       0.062  -0.072  -0.199  0.00  0.00    +0.008 A 
BRANCH  13  16
ATOM     16  N   UNL     1       3.739  -0.546   0.365  0.00  0.00    +0.057 N 
ATOM     17  O   UNL     1       4.739   0.129   0.428  0.00  0.00    -0.126 OA
ATOM     18  O   UNL     1       3.814  -1.749   0.459  0.00  0.00    -0.126 OA
ENDBRANCH  13  16
ENDBRANCH   1  14
BRANCH   3  19
ATOM     19  C   UNL     1       1.343  -4.785   2.790  0.00  0.00    +0.436 C 
ATOM     20  F   UNL     1       0.164  -4.333   3.393  0.00  0.00    -0.166 F 
ATOM     21  F   UNL     1       1.340  -6.184   2.752  0.00  0.00    -0.166 F 
ATOM     22  F   UNL     1       2.445  -4.341   3.530  0.00  0.00    -0.166 F 
ENDBRANCH   3  19
BRANCH   3  23
ATOM     23  O   UNL     1       2.632  -4.700   0.746  0.00  0.00    -0.364 OA
ATOM     24  H   UNL     1       2.698  -5.663   0.687  0.00  0.00    +0.212 HD
ENDBRANCH   3  23
BRANCH   2  25
ATOM     25  C   UNL     1       0.219  -2.212   2.149  0.00  0.00    +0.179 C 
ATOM     26  O   UNL     1      -0.817  -2.002   1.550  0.00  0.00    -0.291 OA
BRANCH  25  27
ATOM     27  C   UNL     1       0.284  -1.993   3.543  0.00  0.00    +0.055 A 
ATOM     28  C   UNL     1      -0.711  -1.551   4.410  0.00  0.00    +0.019 A 
ATOM     29  C   UNL     1      -0.344  -1.435   5.726  0.00  0.00    +0.008 A 
ATOM     30  C   UNL     1       0.927  -1.748   6.088  0.00  0.00    +0.046 A 
ATOM     31  S   UNL     1       1.662  -2.218   4.652  0.00  0.00    -0.094 S 
ENDBRANCH  25  27
ENDBRANCH   2  25
TORSDOF 6
