REMARK  Name = ZINC40069609
REMARK  10 active torsions:
REMARK  status: ('A' for Active; 'I' for Inactive)
REMARK    1  A    between atoms: C_1  and  C_2
REMARK    2  A    between atoms: C_7  and  C_8
REMARK    3  A    between atoms: C_8  and  C_10
REMARK    4  A    between atoms: C_8  and  N_29
REMARK    5  A    between atoms: C_10  and  C_11
REMARK    6  A    between atoms: N_13  and  C_14
REMARK    7  A    between atoms: C_14  and  C_15
REMARK    8  A    between atoms: C_15  and  C_17
REMARK    9  A    between atoms: C_15  and  N_22
REMARK   10  A    between atoms: C_25  and  C_28
REMARK                            x       y       z     vdW  Elec       q    Type
REMARK                         _______ _______ _______ _____ _____    ______ ____
ROOT
ATOM      1  C   UNL     1      -1.516   1.510   4.145  0.00  0.00    +0.215 C 
ATOM      2  O   UNL     1      -0.508   1.639   4.806  0.00  0.00    -0.276 OA
ATOM      3  N   UNL     1      -2.682   2.024   4.586  0.00  0.00    -0.316 N 
ATOM      4  H   UNL     1      -3.488   1.921   4.058  0.00  0.00    +0.149 HD
ENDROOT
BRANCH   1   5
ATOM      5  C   UNL     1      -1.466   0.776   2.830  0.00  0.00    +0.123 C 
BRANCH   5   6
ATOM      6  C   UNL     1      -0.037   0.298   2.567  0.00  0.00    +0.114 C 
BRANCH   6  13
ATOM      7  C   UNL     1       2.535  -0.197   1.346  0.00  0.00    +0.044 C 
ATOM      8  C   UNL     1       1.270  -0.565   0.614  0.00  0.00    -0.045 A 
ATOM      9  C   UNL     1       1.340  -1.145  -0.639  0.00  0.00    +0.004 A 
ATOM     10  C   UNL     1       0.180  -1.482  -1.310  0.00  0.00    +0.000 A 
ATOM     11  C   UNL     1      -1.051  -1.241  -0.728  0.00  0.00    +0.000 A 
ATOM     12  C   UNL     1      -1.121  -0.662   0.525  0.00  0.00    +0.006 A 
ATOM     13  C   UNL     1       0.040  -0.328   1.198  0.00  0.00    -0.024 A 
ENDBRANCH   6  13
BRANCH   6  14
ATOM     14  N   UNL     1       0.342  -0.691   3.579  0.00  0.00    -0.292 N 
ATOM     15  C   UNL     1      -0.329  -1.857   3.665  0.00  0.00    +0.298 C 
ATOM     16  O   UNL     1      -1.182  -2.130   2.843  0.00  0.00    -0.253 OA
ATOM     17  N   UNL     1      -0.054  -2.720   4.663  0.00  0.00    -0.313 N 
ATOM     18  H   UNL     1       1.075  -0.508   4.186  0.00  0.00    +0.151 HD
ATOM     19  H   UNL     1       0.626  -2.502   5.319  0.00  0.00    +0.146 HD
ATOM     20  H   UNL     1      -0.537  -3.559   4.726  0.00  0.00    +0.146 HD
ENDBRANCH   6  14
ENDBRANCH   5   6
ENDBRANCH   1   5
BRANCH   3  21
ATOM     21  C   UNL     1      -2.730   2.738   5.865  0.00  0.00    +0.094 C 
BRANCH  21  22
ATOM     22  C   UNL     1      -4.180   3.105   6.189  0.00  0.00    -0.013 C 
BRANCH  22  23
ATOM     23  N   UNL     1      -5.008   1.892   6.170  0.00  0.00    +0.386 N 
ATOM     24  C   UNL     1      -4.555   0.975   7.223  0.00  0.00    -0.078 C 
ATOM     25  C   UNL     1      -5.361  -0.324   7.155  0.00  0.00    -0.015 C 
ATOM     26  C   UNL     1      -6.846  -0.008   7.355  0.00  0.00    -0.018 C 
ATOM     27  C   UNL     1      -7.289   1.006   6.296  0.00  0.00    -0.015 C 
ATOM     28  C   UNL     1      -6.412   2.256   6.396  0.00  0.00    -0.078 C 
ATOM     29  C   UNL     1      -7.666  -1.291   7.209  0.00  0.00    +0.007 C 
ATOM     30  H   UNL     1      -4.919   1.440   5.272  0.00  0.00    -0.081 HD
ENDBRANCH  22  23
BRANCH  22  31
ATOM     31  C   UNL     1      -4.693   4.080   5.161  0.00  0.00    -0.022 A 
ATOM     32  C   UNL     1      -4.810   5.428   5.247  0.00  0.00    +0.009 A 
ATOM     33  C   UNL     1      -5.312   6.128   4.166  0.00  0.00    +0.008 A 
ATOM     34  C   UNL     1      -5.674   5.445   3.052  0.00  0.00    +0.045 A 
ATOM     35  S   UNL     1      -5.298   3.761   3.512  0.00  0.00    -0.103 S 
ENDBRANCH  22  31
ENDBRANCH  21  22
ENDBRANCH   3  21
TORSDOF 8
