REMARK  Name = ZINC11692819
REMARK  8 active torsions:
REMARK  status: ('A' for Active; 'I' for Inactive)
REMARK    1  A    between atoms: C_1  and  C_2
REMARK    2  A    between atoms: C_2  and  C_14
REMARK    3  A    between atoms: N_3  and  N_4
REMARK    4  A    between atoms: N_7  and  C_8
REMARK    5  A    between atoms: C_8  and  C_9
REMARK    6  A    between atoms: C_14  and  C_30
REMARK    7  A    between atoms: C_19  and  C_22
REMARK    8  A    between atoms: C_22  and  C_23
REMARK                            x       y       z     vdW  Elec       q    Type
REMARK                         _______ _______ _______ _____ _____    ______ ____
ROOT
ATOM      1  C   UNL     1       0.015  -0.004   0.002  0.00  0.00    +0.102 C 
ATOM      2  C   UNL     1      -1.171  -0.721   0.111  0.00  0.00    +0.088 C 
ATOM      3  N   UNL     1      -2.441  -0.235   0.326  0.00  0.00    -0.278 N 
ATOM      4  C   UNL     1      -3.497  -1.026   0.411  0.00  0.00    +0.231 C 
ATOM      5  O   UNL     1      -4.613  -0.591   0.601  0.00  0.00    -0.274 OA
ATOM      6  C   UNL     1      -3.224  -2.513   0.255  0.00  0.00    +0.143 C 
ATOM      7  S   UNL     1      -1.407  -2.488  -0.005  0.00  0.00    -0.096 S 
ATOM      8  H   UNL     1      -2.565   0.722   0.419  0.00  0.00    +0.155 HD
ENDROOT
BRANCH   1  10
ATOM      9  C   UNL     1      -0.018   2.211   1.320  0.00  0.00    +0.068 C 
ATOM     10  C   UNL     1      -0.011   1.465   0.011  0.00  0.00    +0.076 C 
ATOM     11  N   UNL     1      -0.034   2.121  -1.111  0.00  0.00    -0.183 NA
BRANCH  11  12
ATOM     12  N   UNL     1      -0.146   1.430  -2.325  0.00  0.00    -0.191 N 
ATOM     13  C   UNL     1      -0.066   2.100  -3.492  0.00  0.00    +0.319 C 
ATOM     14  O   UNL     1      -0.163   1.500  -4.545  0.00  0.00    -0.251 OA
ATOM     15  N   UNL     1       0.123   3.435  -3.491  0.00  0.00    -0.291 N 
ATOM     16  H   UNL     1      -0.281   0.470  -2.325  0.00  0.00    +0.179 HD
ATOM     17  H   UNL     1       0.200   3.913  -2.651  0.00  0.00    +0.151 HD
BRANCH  15  18
ATOM     18  C   UNL     1       0.210   4.163  -4.759  0.00  0.00    +0.180 C 
BRANCH  18  19
ATOM     19  C   UNL     1       0.420   5.629  -4.483  0.00  0.00    +0.122 A 
ATOM     20  C   UNL     1       1.610   6.242  -4.346  0.00  0.00    +0.046 A 
ATOM     21  C   UNL     1       1.342   7.608  -4.101  0.00  0.00    +0.041 A 
ATOM     22  C   UNL     1       0.004   7.747  -4.094  0.00  0.00    +0.195 A 
ATOM     23  O   UNL     1      -0.549   6.546  -4.326  0.00  0.00    -0.466 OA
ENDBRANCH  18  19
ENDBRANCH  15  18
ENDBRANCH  11  12
ENDBRANCH   1  10
BRANCH   1  24
ATOM     24  C   UNL     1       1.262  -0.697  -0.118  0.00  0.00    +0.103 C 
ATOM     25  N   UNL     1       2.251  -1.247  -0.214  0.00  0.00    -0.191 NA
ENDBRANCH   1  24
BRANCH   6  26
ATOM     26  C   UNL     1      -3.598  -3.281   1.524  0.00  0.00    +0.060 C 
BRANCH  26  27
ATOM     27  C   UNL     1      -3.429  -4.760   1.285  0.00  0.00    -0.028 A 
ATOM     28  C   UNL     1      -4.513  -5.527   0.904  0.00  0.00    +0.005 A 
ATOM     29  C   UNL     1      -4.357  -6.882   0.680  0.00  0.00    +0.000 A 
ATOM     30  C   UNL     1      -3.118  -7.472   0.847  0.00  0.00    +0.001 A 
ATOM     31  C   UNL     1      -2.034  -6.707   1.232  0.00  0.00    +0.020 A 
ATOM     32  C   UNL     1      -2.189  -5.350   1.452  0.00  0.00    +0.044 A 
ATOM     33 CL   UNL     1      -0.828  -4.388   1.937  0.00  0.00    -0.083 Cl
ENDBRANCH  26  27
ENDBRANCH   6  26
TORSDOF 7
