REMARK  Name = ZINC58500437
REMARK  10 active torsions:
REMARK  status: ('A' for Active; 'I' for Inactive)
REMARK    1  A    between atoms: C_1  and  C_2
REMARK    2  A    between atoms: C_3  and  C_31
REMARK    3  A    between atoms: C_7  and  N_30
REMARK    4  A    between atoms: C_9  and  C_11
REMARK    5  A    between atoms: C_11  and  C_13
REMARK    6  A    between atoms: C_11  and  S_14
REMARK    7  A    between atoms: S_14  and  C_15
REMARK    8  A    between atoms: C_18  and  C_21
REMARK    9  A    between atoms: N_19  and  C_20
REMARK   10  A    between atoms: C_21  and  C_22
REMARK                            x       y       z     vdW  Elec       q    Type
REMARK                         _______ _______ _______ _____ _____    ______ ____
ROOT
ATOM      1  C   UNL     1       1.045  -3.469   4.016  0.00  0.00    +0.119 C 
ATOM      2  C   UNL     1      -0.130  -3.873   4.908  0.00  0.00    +0.028 C 
ENDROOT
BRANCH   1  11
ATOM      3  C   UNL     1      -1.023   1.647   0.261  0.00  0.00    +0.045 C 
ATOM      4  C   UNL     1      -0.708   0.189   0.051  0.00  0.00    -0.028 A 
ATOM      5  C   UNL     1      -0.826  -0.362  -1.166  0.00  0.00    -0.008 A 
ATOM      6  S   UNL     1      -0.352  -2.061  -0.902  0.00  0.00    -0.074 S 
ATOM      7  C   UNL     1      -0.008  -1.984   0.836  0.00  0.00    +0.114 A 
ATOM      8  C   UNL     1      -0.266  -0.635   1.163  0.00  0.00    +0.050 A 
ATOM      9  C   UNL     1      -0.060  -0.288   2.526  0.00  0.00    +0.128 A 
ATOM     10  N   UNL     1       0.351  -1.218   3.373  0.00  0.00    -0.216 NA
ATOM     11  C   UNL     1       0.578  -2.463   2.996  0.00  0.00    +0.145 A 
ATOM     12  N   UNL     1       0.396  -2.847   1.747  0.00  0.00    -0.224 NA
ATOM     13  C   UNL     1      -1.258   0.297  -2.450  0.00  0.00    +0.052 C 
BRANCH   9  14
ATOM     14  N   UNL     1      -0.286   1.006   2.962  0.00  0.00    -0.343 N 
ATOM     15  H   UNL     1      -0.467   1.709   2.319  0.00  0.00    +0.144 HD
ATOM     16  H   UNL     1      -0.263   1.209   3.910  0.00  0.00    +0.144 HD
ENDBRANCH   9  14
ENDBRANCH   1  11
BRANCH   1  17
ATOM     17  S   UNL     1       2.354  -2.734   5.035  0.00  0.00    -0.075 S 
BRANCH  17  18
ATOM     18  C   UNL     1       2.889  -4.061   6.063  0.00  0.00    +0.192 A 
ATOM     19  N   UNL     1       2.425  -5.290   6.057  0.00  0.00    -0.122 NA
ATOM     20  N   UNL     1       3.044  -5.994   6.936  0.00  0.00    -0.134 NA
ATOM     21  C   UNL     1       3.932  -5.264   7.550  0.00  0.00    +0.134 A 
ATOM     22  N   UNL     1       3.869  -4.008   7.012  0.00  0.00    -0.309 N 
ATOM     23  C   UNL     1       4.682  -2.847   7.380  0.00  0.00    +0.152 C 
BRANCH  21  24
ATOM     24  C   UNL     1       4.859  -5.721   8.646  0.00  0.00    +0.081 C 
BRANCH  24  25
ATOM     25  C   UNL     1       4.296  -5.293  10.003  0.00  0.00    +0.019 C 
ATOM     26  C   UNL     1       3.026  -6.104  10.307  0.00  0.00    +0.028 C 
ATOM     27  C   UNL     1       2.656  -5.883  11.802  0.00  0.00    +0.166 C 
ATOM     28  S   UNL     1       4.328  -5.939  12.574  0.00  0.00    -0.031 S 
ATOM     29  O   UNL     1       4.439  -4.879  13.514  0.00  0.00    -0.174 OA
ATOM     30  O   UNL     1       4.603  -7.271  12.986  0.00  0.00    -0.174 OA
ATOM     31  C   UNL     1       5.356  -5.544  11.102  0.00  0.00    +0.170 C 
ENDBRANCH  24  25
ENDBRANCH  21  24
ENDBRANCH  17  18
ENDBRANCH   1  17
TORSDOF 6
