REMARK  Name = ZINC13096904
REMARK  7 active torsions:
REMARK  status: ('A' for Active; 'I' for Inactive)
REMARK    1  A    between atoms: C_4  and  O_7
REMARK    2  A    between atoms: O_7  and  C_8
REMARK    3  A    between atoms: C_12  and  C_14
REMARK    4  A    between atoms: C_14  and  C_16
REMARK    5  A    between atoms: C_14  and  N_31
REMARK    6  A    between atoms: C_16  and  C_17
REMARK    7  A    between atoms: N_19  and  C_20
REMARK                            x       y       z     vdW  Elec       q    Type
REMARK                         _______ _______ _______ _____ _____    ______ ____
ROOT
ATOM      1  C   UNL     1      -0.757   1.673  -1.313  0.00  0.00    +0.113 C 
ENDROOT
BRANCH   1   2
ATOM      2  N   UNL     1      -0.745   3.124  -1.512  0.00  0.00    -0.292 N 
ATOM      3  C   UNL     1      -1.664   3.703  -2.311  0.00  0.00    +0.298 C 
ATOM      4  O   UNL     1      -2.561   3.035  -2.788  0.00  0.00    -0.253 OA
ATOM      5  N   UNL     1      -1.589   5.021  -2.580  0.00  0.00    -0.313 N 
ATOM      6  H   UNL     1      -0.075   3.669  -1.070  0.00  0.00    +0.151 HD
ATOM      7  H   UNL     1      -0.873   5.554  -2.199  0.00  0.00    +0.146 HD
ATOM      8  H   UNL     1      -2.250   5.438  -3.154  0.00  0.00    +0.146 HD
ENDBRANCH   1   2
BRANCH   1  13
ATOM      9  C   UNL     1       0.027  -0.727  -4.125  0.00  0.00    +0.129 A 
ATOM     10  C   UNL     1       1.239  -0.228  -4.581  0.00  0.00    +0.046 A 
ATOM     11  C   UNL     1       1.798   0.882  -3.979  0.00  0.00    +0.004 A 
ATOM     12  C   UNL     1       1.152   1.497  -2.922  0.00  0.00    +0.006 A 
ATOM     13  C   UNL     1      -0.056   1.002  -2.465  0.00  0.00    -0.023 A 
ATOM     14  C   UNL     1      -0.617  -0.112  -3.061  0.00  0.00    +0.051 A 
BRANCH   9  15
ATOM     15  O   UNL     1      -0.525  -1.818  -4.715  0.00  0.00    -0.456 OA
BRANCH  15  19
ATOM     16  C   UNL     1       1.385  -3.416  -8.004  0.00  0.00    +0.000 A 
ATOM     17  C   UNL     1       1.863  -3.679  -6.734  0.00  0.00    +0.004 A 
ATOM     18  C   UNL     1       1.225  -3.146  -5.631  0.00  0.00    +0.046 A 
ATOM     19  C   UNL     1       0.104  -2.345  -5.799  0.00  0.00    +0.128 A 
ATOM     20  C   UNL     1      -0.376  -2.086  -7.075  0.00  0.00    +0.046 A 
ATOM     21  C   UNL     1       0.269  -2.618  -8.175  0.00  0.00    +0.004 A 
ENDBRANCH  15  19
ENDBRANCH   9  15
ENDBRANCH   1  13
BRANCH   1  22
ATOM     22  C   UNL     1      -0.035   1.332  -0.008  0.00  0.00    +0.123 C 
BRANCH  22  23
ATOM     23  C   UNL     1      -0.806   1.901   1.156  0.00  0.00    +0.216 C 
ATOM     24  O   UNL     1      -1.831   2.518   0.961  0.00  0.00    -0.276 OA
ATOM     25  N   UNL     1      -0.355   1.723   2.414  0.00  0.00    -0.308 N 
ATOM     26  H   UNL     1       0.465   1.229   2.570  0.00  0.00    +0.149 HD
BRANCH  25  27
ATOM     27  C   UNL     1      -1.104   2.276   3.545  0.00  0.00    +0.105 C 
ATOM     28  C   UNL     1      -0.783   1.460   4.785  0.00  0.00    +0.038 C 
ATOM     29  C   UNL     1      -1.603   1.999   5.966  0.00  0.00    +0.076 C 
ATOM     30  S   UNL     1      -0.883   3.602   6.429  0.00  0.00    -0.125 S 
ATOM     31  C   UNL     1      -0.658   4.410   4.876  0.00  0.00    +0.013 A 
ATOM     32  C   UNL     1      -0.768   3.732   3.675  0.00  0.00    -0.014 A 
ATOM     33  C   UNL     1      -0.560   4.432   2.490  0.00  0.00    +0.006 A 
ATOM     34  C   UNL     1      -0.260   5.777   2.502  0.00  0.00    +0.000 A 
ATOM     35  C   UNL     1      -0.160   6.454   3.704  0.00  0.00    +0.001 A 
ATOM     36  C   UNL     1      -0.357   5.772   4.885  0.00  0.00    +0.015 A 
ENDBRANCH  25  27
ENDBRANCH  22  23
ENDBRANCH   1  22
TORSDOF 7
