REMARK  Name = ZINC63526436
REMARK  9 active torsions:
REMARK  status: ('A' for Active; 'I' for Inactive)
REMARK    1  A    between atoms: C_1  and  C_2
REMARK    2  A    between atoms: C_5  and  S_8
REMARK    3  A    between atoms: S_8  and  N_11
REMARK    4  A    between atoms: C_15  and  C_17
REMARK    5  A    between atoms: C_20  and  O_23
REMARK    6  A    between atoms: O_23  and  C_24
REMARK    7  A    between atoms: C_25  and  C_27
REMARK    8  A    between atoms: C_27  and  S_28
REMARK    9  A    between atoms: S_28  and  C_29
REMARK                            x       y       z     vdW  Elec       q    Type
REMARK                         _______ _______ _______ _____ _____    ______ ____
ROOT
ATOM      1  N   UNL     1       1.649  -4.996   0.102  0.00  0.00    -0.150 NA
ATOM      2  C   UNL     1       2.593  -5.188  -1.011  0.00  0.00    +0.131 C 
ATOM      3  C   UNL     1       3.989  -5.182  -0.356  0.00  0.00    +0.127 C 
ATOM      4  N   UNL     1       3.746  -5.675   1.013  0.00  0.00    -0.278 N 
ATOM      5  C   UNL     1       2.368  -5.290   1.349  0.00  0.00    +0.199 C 
ATOM      6  C   UNL     1       4.615  -6.339   1.799  0.00  0.00    +0.227 C 
ATOM      7  O   UNL     1       4.282  -6.689   2.912  0.00  0.00    -0.275 OA
ENDROOT
BRANCH   5   8
ATOM      8  C   UNL     1       2.379  -4.066   2.228  0.00  0.00    -0.011 A 
ATOM      9  C   UNL     1       2.862  -2.867   1.736  0.00  0.00    +0.010 A 
ATOM     10  C   UNL     1       2.873  -1.744   2.541  0.00  0.00    +0.046 A 
ATOM     11  C   UNL     1       2.401  -1.820   3.843  0.00  0.00    +0.120 A 
ATOM     12  C   UNL     1       1.917  -3.024   4.334  0.00  0.00    +0.046 A 
ATOM     13  C   UNL     1       1.902  -4.143   3.524  0.00  0.00    +0.010 A 
BRANCH  11  14
ATOM     14  O   UNL     1       2.412  -0.717   4.636  0.00  0.00    -0.495 OA
ATOM     15  C   UNL     1       1.910  -0.868   5.966  0.00  0.00    +0.277 C 
ENDBRANCH  11  14
ENDBRANCH   5   8
BRANCH   1  16
ATOM     16  S   UNL     1       0.066  -4.528  -0.027  0.00  0.00    +0.063 S 
ATOM     17  O   UNL     1      -0.079  -3.937  -1.311  0.00  0.00    -0.153 OA
ATOM     18  O   UNL     1      -0.251  -3.833   1.171  0.00  0.00    -0.153 OA
BRANCH  16  23
ATOM     19  C   UNL     1      -3.286  -9.544  -0.046  0.00  0.00    +0.044 C 
ATOM     20  C   UNL     1      -2.449  -8.291  -0.042  0.00  0.00    -0.050 A 
ATOM     21  C   UNL     1      -2.060  -7.725   1.158  0.00  0.00    +0.005 A 
ATOM     22  C   UNL     1      -1.292  -6.575   1.162  0.00  0.00    +0.029 A 
ATOM     23  C   UNL     1      -0.912  -5.993  -0.033  0.00  0.00    +0.106 A 
ATOM     24  C   UNL     1      -1.300  -6.560  -1.232  0.00  0.00    +0.029 A 
ATOM     25  C   UNL     1      -2.065  -7.712  -1.236  0.00  0.00    +0.005 A 
ENDBRANCH  16  23
ENDBRANCH   1  16
BRANCH   6  26
ATOM     26  C   UNL     1       6.002  -6.649   1.296  0.00  0.00    +0.168 C 
BRANCH  26  27
ATOM     27  S   UNL     1       6.924  -7.544   2.576  0.00  0.00    -0.106 S 
BRANCH  27  28
ATOM     28  C   UNL     1       8.548  -7.837   1.823  0.00  0.00    +0.236 C 
ATOM     29  N   UNL     1       9.153  -6.561   1.419  0.00  0.00    -0.355 N 
ATOM     30  C   UNL     1       9.333  -6.606   0.130  0.00  0.00    +0.061 A 
ATOM     31  C   UNL     1       9.890  -5.648  -0.835  0.00  0.00    +0.027 A 
ATOM     32  C   UNL     1       9.952  -5.978  -2.140  0.00  0.00    +0.002 A 
ATOM     33  C   UNL     1       9.502  -7.217  -2.631  0.00  0.00    +0.002 A 
ATOM     34  C   UNL     1       8.975  -8.167  -1.832  0.00  0.00    +0.027 A 
ATOM     35  C   UNL     1       8.857  -7.917  -0.389  0.00  0.00    +0.061 A 
ATOM     36  N   UNL     1       8.400  -8.632   0.598  0.00  0.00    -0.355 N 
ATOM     37  H   UNL     1       9.377  -5.821   2.004  0.00  0.00    +0.162 HD
ATOM     38  H   UNL     1       8.030  -9.526   0.536  0.00  0.00    +0.162 HD
ENDBRANCH  27  28
ENDBRANCH  26  27
ENDBRANCH   6  26
TORSDOF 7
