REMARK  Name = ZINC15016746
REMARK  10 active torsions:
REMARK  status: ('A' for Active; 'I' for Inactive)
REMARK    1  A    between atoms: C_1  and  C_2
REMARK    2  A    between atoms: C_3  and  C_12
REMARK    3  A    between atoms: N_10  and  C_11
REMARK    4  A    between atoms: C_12  and  C_13
REMARK    5  A    between atoms: C_12  and  C_22
REMARK    6  A    between atoms: C_16  and  O_21
REMARK    7  A    between atoms: C_17  and  O_20
REMARK    8  A    between atoms: C_18  and  O_19
REMARK    9  A    between atoms: C_23  and  C_32
REMARK   10  A    between atoms: N_24  and  C_31
REMARK                            x       y       z     vdW  Elec       q    Type
REMARK                         _______ _______ _______ _____ _____    ______ ____
ROOT
ATOM      1  C   UNL     1      -2.556   4.162   0.049  0.00  0.00    +0.087 C 
ENDROOT
BRANCH   1   4
ATOM      2  C   UNL     1      -2.435   2.884   2.874  0.00  0.00    +0.064 C 
ATOM      3  C   UNL     1      -2.609   4.353   2.586  0.00  0.00    +0.020 A 
ATOM      4  C   UNL     1      -2.661   4.897   1.360  0.00  0.00    -0.007 A 
ATOM      5  C   UNL     1      -2.844   6.339   1.539  0.00  0.00    +0.004 A 
ATOM      6  C   UNL     1      -2.972   7.417   0.661  0.00  0.00    +0.010 A 
ATOM      7  C   UNL     1      -3.136   8.680   1.156  0.00  0.00    +0.001 A 
ATOM      8  C   UNL     1      -3.175   8.900   2.526  0.00  0.00    +0.002 A 
ATOM      9  C   UNL     1      -3.051   7.851   3.410  0.00  0.00    +0.026 A 
ATOM     10  C   UNL     1      -2.884   6.557   2.928  0.00  0.00    +0.049 A 
ATOM     11  N   UNL     1      -2.735   5.330   3.536  0.00  0.00    -0.347 N 
ATOM     12  C   UNL     1      -2.720   5.105   4.983  0.00  0.00    +0.149 C 
ENDBRANCH   1   4
BRANCH   1  13
ATOM     13  C   UNL     1      -3.652   4.626  -0.876  0.00  0.00    -0.007 A 
ATOM     14  C   UNL     1      -4.973   4.544  -0.653  0.00  0.00    +0.020 A 
ATOM     15  N   UNL     1      -5.659   5.070  -1.714  0.00  0.00    -0.347 N 
ATOM     16  C   UNL     1      -4.774   5.506  -2.674  0.00  0.00    +0.049 A 
ATOM     17  C   UNL     1      -3.478   5.248  -2.191  0.00  0.00    +0.004 A 
ATOM     18  C   UNL     1      -2.366   5.590  -2.963  0.00  0.00    +0.010 A 
ATOM     19  C   UNL     1      -2.542   6.175  -4.185  0.00  0.00    +0.001 A 
ATOM     20  C   UNL     1      -3.819   6.432  -4.666  0.00  0.00    +0.002 A 
ATOM     21  C   UNL     1      -4.930   6.103  -3.921  0.00  0.00    +0.026 A 
ATOM     22  C   UNL     1      -7.118   5.151  -1.816  0.00  0.00    +0.149 C 
ATOM     23  C   UNL     1      -5.607   3.961   0.584  0.00  0.00    +0.064 C 
ENDBRANCH   1  13
BRANCH   1  24
ATOM     24  C   UNL     1      -1.216   4.444  -0.580  0.00  0.00    +0.010 A 
ATOM     25  C   UNL     1      -0.681   5.718  -0.523  0.00  0.00    +0.012 A 
ATOM     26  C   UNL     1       0.548   5.982  -1.098  0.00  0.00    +0.050 A 
ATOM     27  C   UNL     1       1.249   4.969  -1.735  0.00  0.00    +0.162 A 
ATOM     28  C   UNL     1       0.715   3.688  -1.795  0.00  0.00    +0.201 A 
ATOM     29  C   UNL     1      -0.524   3.428  -1.220  0.00  0.00    +0.166 A 
BRANCH  29  30
ATOM     30  O   UNL     1      -1.053   2.177  -1.281  0.00  0.00    -0.503 OA
ATOM     31  H   UNL     1      -0.810   1.610  -0.536  0.00  0.00    +0.292 HD
ENDBRANCH  29  30
BRANCH  28  32
ATOM     32  O   UNL     1       1.400   2.691  -2.419  0.00  0.00    -0.501 OA
ATOM     33  H   UNL     1       1.998   2.201  -1.838  0.00  0.00    +0.292 HD
ENDBRANCH  28  32
BRANCH  27  34
ATOM     34  O   UNL     1       2.458   5.230  -2.300  0.00  0.00    -0.503 OA
ATOM     35  H   UNL     1       2.409   5.507  -3.225  0.00  0.00    +0.292 HD
ENDBRANCH  27  34
ENDBRANCH   1  24
TORSDOF 6
