REMARK  Name = ZINC14000874
REMARK  7 active torsions:
REMARK  status: ('A' for Active; 'I' for Inactive)
REMARK    1  A    between atoms: C_1  and  O_2
REMARK    2  A    between atoms: O_2  and  C_3
REMARK    3  A    between atoms: C_5  and  C_12
REMARK    4  A    between atoms: C_7  and  O_10
REMARK    5  A    between atoms: C_8  and  O_9
REMARK    6  A    between atoms: O_10  and  C_11
REMARK    7  A    between atoms: N_22  and  C_23
REMARK                            x       y       z     vdW  Elec       q    Type
REMARK                         _______ _______ _______ _____ _____    ______ ____
ROOT
ATOM      1  C   UNL     1       2.402   0.386  -4.230  0.00  0.00    +0.062 C 
ATOM      2  C   UNL     1       3.896   0.068  -4.349  0.00  0.00    +0.111 C 
ATOM      3  C   UNL     1       4.450   0.501  -5.675  0.00  0.00    +0.239 C 
ATOM      4  O   UNL     1       5.593   0.913  -5.713  0.00  0.00    -0.274 OA
ATOM      5  N   UNL     1       3.760   0.459  -6.807  0.00  0.00    -0.164 NA
ATOM      6  C   UNL     1       2.472   0.130  -6.775  0.00  0.00    +0.140 C 
ATOM      7  C   UNL     1       1.751   0.060  -5.552  0.00  0.00    +0.015 C 
ATOM      8  C   UNL     1       0.495  -0.322  -5.822  0.00  0.00    +0.095 C 
ATOM      9  N   UNL     1       0.363  -0.469  -7.175  0.00  0.00    -0.265 N 
ATOM     10  N   UNL     1       1.589  -0.132  -7.778  0.00  0.00    -0.206 N 
ATOM     11  H   UNL     1      -0.438  -0.758  -7.640  0.00  0.00    +0.170 HD
ENDROOT
BRANCH  10  12
ATOM     12  C   UNL     1       1.852  -0.074  -9.150  0.00  0.00    +0.055 A 
ATOM     13  C   UNL     1       3.118   0.273  -9.602  0.00  0.00    +0.026 A 
ATOM     14  C   UNL     1       3.374   0.330 -10.958  0.00  0.00    +0.017 A 
ATOM     15  C   UNL     1       2.371   0.041 -11.866  0.00  0.00    +0.018 A 
ATOM     16  C   UNL     1       1.108  -0.305 -11.418  0.00  0.00    +0.017 A 
ATOM     17  C   UNL     1       0.848  -0.370 -10.063  0.00  0.00    +0.026 A 
ATOM     18 BR   UNL     1       2.725   0.119 -13.722  0.00  0.00    -0.050 Br
ENDBRANCH  10  12
BRANCH   1  21
ATOM     19  C   UNL     1       0.606  -0.608  -1.056  0.00  0.00    +0.165 A 
ATOM     20  C   UNL     1       1.173   0.160  -2.063  0.00  0.00    +0.054 A 
ATOM     21  C   UNL     1       1.787  -0.452  -3.139  0.00  0.00    -0.032 A 
ATOM     22  C   UNL     1       1.839  -1.831  -3.217  0.00  0.00    +0.054 A 
ATOM     23  C   UNL     1       1.275  -2.606  -2.215  0.00  0.00    +0.165 A 
ATOM     24  C   UNL     1       0.661  -1.994  -1.128  0.00  0.00    +0.201 A 
BRANCH  19  26
ATOM     25  C   UNL     1      -0.017   1.425   0.010  0.00  0.00    +0.277 C 
ATOM     26  O   UNL     1       0.002  -0.004   0.002  0.00  0.00    -0.491 OA
ENDBRANCH  19  26
BRANCH  24  27
ATOM     27  O   UNL     1       0.111  -2.751  -0.140  0.00  0.00    -0.501 OA
ATOM     28  H   UNL     1      -0.817  -2.978  -0.289  0.00  0.00    +0.292 HD
ENDBRANCH  24  27
BRANCH  23  29
ATOM     29  O   UNL     1       1.326  -3.963  -2.293  0.00  0.00    -0.491 OA
ATOM     30  C   UNL     1       1.977  -4.523  -3.435  0.00  0.00    +0.277 C 
ENDBRANCH  23  29
ENDBRANCH   1  21
TORSDOF 5
