REMARK  Name = ZINC09416153
REMARK  8 active torsions:
REMARK  status: ('A' for Active; 'I' for Inactive)
REMARK    1  A    between atoms: C_1  and  C_2
REMARK    2  A    between atoms: C_2  and  C_4
REMARK    3  A    between atoms: C_7  and  N_11
REMARK    4  A    between atoms: C_16  and  C_17
REMARK    5  A    between atoms: C_16  and  N_58
REMARK    6  A    between atoms: N_19  and  C_20
REMARK    7  A    between atoms: C_20  and  C_22
REMARK    8  A    between atoms: C_20  and  C_29
REMARK                            x       y       z     vdW  Elec       q    Type
REMARK                         _______ _______ _______ _____ _____    ______ ____
ROOT
ATOM      1  C   UNL     1       1.498  -3.454  -3.153  0.00  0.00    +0.019 C 
ENDROOT
BRANCH   1   7
ATOM      2  N   UNL     1       1.566  -2.780  -7.322  0.00  0.00    -0.331 N 
ATOM      3  C   UNL     1       2.041  -4.080  -6.827  0.00  0.00    +0.086 C 
ATOM      4  C   UNL     1       1.496  -4.315  -5.416  0.00  0.00    -0.059 C 
ATOM      5  C   UNL     1       1.463  -1.926  -5.031  0.00  0.00    -0.059 C 
ATOM      6  C   UNL     1       2.009  -1.691  -6.441  0.00  0.00    +0.086 C 
ATOM      7  N   UNL     1       1.966  -3.225  -4.536  0.00  0.00    +0.387 N 
ATOM      8  H   UNL     1       2.993  -3.209  -4.542  0.00  0.00    -0.081 HD
BRANCH   2  12
ATOM      9  C   UNL     1       2.820  -2.132 -11.235  0.00  0.00    +0.020 A 
ATOM     10  C   UNL     1       3.760  -2.325 -10.214  0.00  0.00    +0.013 A 
ATOM     11  C   UNL     1       3.343  -2.537  -8.931  0.00  0.00    +0.027 A 
ATOM     12  C   UNL     1       1.984  -2.563  -8.631  0.00  0.00    +0.065 A 
ATOM     13  C   UNL     1       1.039  -2.379  -9.640  0.00  0.00    +0.145 A 
ATOM     14  C   UNL     1       1.452  -2.158 -10.936  0.00  0.00    +0.051 A 
ATOM     15  F   UNL     1      -0.280  -2.410  -9.347  0.00  0.00    -0.204 F 
BRANCH   9  17
ATOM     16  C   UNL     1       2.256  -1.697 -13.710  0.00  0.00    +0.091 C 
ATOM     17  C   UNL     1       3.268  -1.904 -12.613  0.00  0.00    +0.160 C 
ATOM     18  O   UNL     1       4.454  -1.882 -12.870  0.00  0.00    -0.292 OA
ENDBRANCH   9  17
ENDBRANCH   2  12
ENDBRANCH   1   7
BRANCH   1  19
ATOM     19  C   UNL     1       2.168  -2.460  -2.240  0.00  0.00    +0.197 C 
ATOM     20  O   UNL     1       2.937  -1.641  -2.697  0.00  0.00    -0.278 OA
ATOM     21  N   UNL     1       1.913  -2.481  -0.917  0.00  0.00    -0.306 N 
ATOM     22  H   UNL     1       1.298  -3.136  -0.552  0.00  0.00    +0.150 HD
BRANCH  21  23
ATOM     23  C   UNL     1       2.565  -1.514  -0.030  0.00  0.00    +0.140 C 
BRANCH  23  24
ATOM     24  C   UNL     1       2.631  -2.078   1.366  0.00  0.00    -0.022 A 
ATOM     25  C   UNL     1       1.557  -2.781   1.879  0.00  0.00    +0.008 A 
ATOM     26  C   UNL     1       1.619  -3.303   3.157  0.00  0.00    +0.038 A 
ATOM     27  C   UNL     1       2.754  -3.113   3.927  0.00  0.00    +0.123 A 
ATOM     28  C   UNL     1       3.827  -2.404   3.414  0.00  0.00    +0.038 A 
ATOM     29  C   UNL     1       3.765  -1.888   2.134  0.00  0.00    +0.008 A 
ATOM     30  F   UNL     1       2.814  -3.619   5.178  0.00  0.00    -0.205 F 
ENDBRANCH  23  24
BRANCH  23  31
ATOM     31  C   UNL     1       1.773  -0.232  -0.016  0.00  0.00    +0.014 A 
ATOM     32  C   UNL     1       2.220   1.048  -0.013  0.00  0.00    +0.013 A 
ATOM     33  C   UNL     1       1.300   2.079   0.001  0.00  0.00    +0.008 A 
ATOM     34  C   UNL     1      -0.022   1.781   0.012  0.00  0.00    +0.045 A 
ATOM     35  S   UNL     1       0.002  -0.004   0.002  0.00  0.00    -0.099 S 
ENDBRANCH  23  31
ENDBRANCH  21  23
ENDBRANCH   1  19
TORSDOF 7
