REMARK  Name = ZINC07856742
REMARK  9 active torsions:
REMARK  status: ('A' for Active; 'I' for Inactive)
REMARK    1  A    between atoms: C_1  and  C_2
REMARK    2  A    between atoms: C_2  and  C_24
REMARK    3  A    between atoms: N_5  and  N_9
REMARK    4  A    between atoms: C_10  and  C_12
REMARK    5  A    between atoms: C_12  and  N_60
REMARK    6  A    between atoms: C_16  and  C_18
REMARK    7  A    between atoms: N_22  and  C_23
REMARK    8  A    between atoms: C_24  and  C_25
REMARK    9  A    between atoms: C_25  and  C_26
REMARK                            x       y       z     vdW  Elec       q    Type
REMARK                         _______ _______ _______ _____ _____    ______ ____
ROOT
ATOM      1  C   UNL     1       1.403  -3.082   7.636  0.00  0.00    +0.041 C 
ATOM      2  C   UNL     1       1.223  -1.923   6.653  0.00  0.00    +0.112 C 
ATOM      3  C   UNL     1       0.839  -2.441   5.282  0.00  0.00    +0.263 C 
ATOM      4  O   UNL     1      -0.153  -3.073   4.989  0.00  0.00    -0.271 OA
ATOM      5  N   UNL     1       1.830  -2.053   4.455  0.00  0.00    -0.137 N 
ATOM      6  C   UNL     1       2.780  -1.373   5.108  0.00  0.00    +0.326 C 
ATOM      7  O   UNL     1       3.776  -0.924   4.576  0.00  0.00    -0.251 OA
ATOM      8  N   UNL     1       2.506  -1.239   6.418  0.00  0.00    -0.284 N 
ATOM      9  H   UNL     1       3.050  -0.784   7.080  0.00  0.00    +0.151 HD
ENDROOT
BRANCH   5  10
ATOM     10  N   UNL     1       1.865  -2.332   3.083  0.00  0.00    -0.225 N 
ATOM     11  C   UNL     1       1.594  -1.359   2.190  0.00  0.00    +0.213 C 
ATOM     12  O   UNL     1       1.320  -0.242   2.575  0.00  0.00    -0.276 OA
ATOM     13  H   UNL     1       2.084  -3.225   2.775  0.00  0.00    +0.173 HD
BRANCH  11  14
ATOM     14  C   UNL     1       1.632  -1.659   0.714  0.00  0.00    +0.021 C 
BRANCH  14  19
ATOM     15  C   UNL     1       2.590   0.505   0.164  0.00  0.00    -0.077 C 
ATOM     16  C   UNL     1       2.806   1.264  -1.158  0.00  0.00    -0.020 C 
ATOM     17  C   UNL     1       1.743   0.697  -2.127  0.00  0.00    -0.011 C 
ATOM     18  C   UNL     1       1.407  -0.681  -1.505  0.00  0.00    -0.020 C 
ATOM     19  N   UNL     1       1.458  -0.395  -0.062  0.00  0.00    +0.391 N 
ATOM     20  H   UNL     1       0.587   0.063   0.231  0.00  0.00    -0.080 HD
BRANCH  18  21
ATOM     21  C   UNL     1       0.032  -1.136  -1.922  0.00  0.00    +0.005 A 
ATOM     22  C   UNL     1      -1.005  -1.379  -1.095  0.00  0.00    +0.021 A 
ATOM     23  C   UNL     1      -2.095  -1.780  -1.892  0.00  0.00    +0.019 A 
ATOM     24  C   UNL     1      -1.683  -1.767  -3.176  0.00  0.00    +0.085 A 
ATOM     25  N   UNL     1      -0.380  -1.366  -3.201  0.00  0.00    -0.355 N 
ATOM     26  C   UNL     1       0.443  -1.213  -4.403  0.00  0.00    +0.148 C 
ENDBRANCH  18  21
ENDBRANCH  14  19
ENDBRANCH  11  14
ENDBRANCH   5  10
BRANCH   2  27
ATOM     27  C   UNL     1       0.174  -0.936   7.169  0.00  0.00    +0.040 C 
BRANCH  27  28
ATOM     28  C   UNL     1       0.646  -0.336   8.495  0.00  0.00    +0.038 C 
BRANCH  28  29
ATOM     29  C   UNL     1      -0.388   0.635   9.003  0.00  0.00    -0.047 A 
ATOM     30  C   UNL     1      -0.317   1.969   8.646  0.00  0.00    +0.003 A 
ATOM     31  C   UNL     1      -1.268   2.859   9.109  0.00  0.00    +0.000 A 
ATOM     32  C   UNL     1      -2.284   2.418   9.936  0.00  0.00    +0.000 A 
ATOM     33  C   UNL     1      -2.352   1.085  10.297  0.00  0.00    +0.000 A 
ATOM     34  C   UNL     1      -1.403   0.194   9.831  0.00  0.00    +0.003 A 
ENDBRANCH  28  29
ENDBRANCH  27  28
ENDBRANCH   2  27
TORSDOF 7
