REMARK  Name = ZINC36762890
REMARK  8 active torsions:
REMARK  status: ('A' for Active; 'I' for Inactive)
REMARK    1  A    between atoms: C_1  and  C_2
REMARK    2  A    between atoms: C_2  and  C_3
REMARK    3  A    between atoms: C_2  and  C_4
REMARK    4  A    between atoms: C_2  and  C_5
REMARK    5  A    between atoms: C_8  and  C_11
REMARK    6  A    between atoms: C_17  and  C_19
REMARK    7  A    between atoms: C_19  and  C_20
REMARK    8  A    between atoms: C_26  and  C_28
REMARK                            x       y       z     vdW  Elec       q    Type
REMARK                         _______ _______ _______ _____ _____    ______ ____
ROOT
ATOM      1  C   UNL     1       2.697  -1.861  -4.736  0.00  0.00    +0.080 A 
ATOM      2  C   UNL     1       4.003  -1.524  -4.964  0.00  0.00    +0.076 A 
ATOM      3  S   UNL     1       4.291  -2.353  -6.522  0.00  0.00    -0.060 S 
ATOM      4  C   UNL     1       2.658  -3.056  -6.707  0.00  0.00    +0.165 A 
ATOM      5  N   UNL     1       2.061  -2.624  -5.612  0.00  0.00    -0.225 NA
ATOM      6  N   UNL     1       2.153  -3.851  -7.729  0.00  0.00    -0.264 N 
ATOM      7  C   UNL     1       2.939  -4.189  -8.770  0.00  0.00    +0.224 C 
ATOM      8  O   UNL     1       4.087  -3.800  -8.815  0.00  0.00    -0.275 OA
ATOM      9  H   UNL     1       1.235  -4.162  -7.693  0.00  0.00    +0.157 HD
ENDROOT
BRANCH   1  13
ATOM     10  C   UNL     1       0.707  -0.490  -1.238  0.00  0.00    -0.042 A 
ATOM     11  C   UNL     1       0.033  -1.285  -2.147  0.00  0.00    +0.005 A 
ATOM     12  C   UNL     1       0.674  -1.733  -3.285  0.00  0.00    +0.010 A 
ATOM     13  C   UNL     1       2.003  -1.383  -3.516  0.00  0.00    +0.001 A 
ATOM     14  C   UNL     1       2.678  -0.581  -2.596  0.00  0.00    +0.010 A 
ATOM     15  C   UNL     1       2.025  -0.135  -1.465  0.00  0.00    +0.005 A 
BRANCH  10  17
ATOM     16  C   UNL     1      -0.019   1.526   0.010  0.00  0.00    +0.015 C 
ATOM     17  C   UNL     1       0.002  -0.004   0.002  0.00  0.00    -0.013 C 
ATOM     18  C   UNL     1       0.742  -0.511   1.242  0.00  0.00    +0.015 C 
ATOM     19  C   UNL     1      -1.433  -0.534   0.013  0.00  0.00    +0.015 C 
ENDBRANCH  10  17
ENDBRANCH   1  13
BRANCH   7  20
ATOM     20  C   UNL     1       2.392  -5.052  -9.878  0.00  0.00    +0.152 C 
BRANCH  20  21
ATOM     21  C   UNL     1       3.464  -5.282 -10.911  0.00  0.00    +0.059 A 
ATOM     22  C   UNL     1       3.823  -6.533 -11.292  0.00  0.00    +0.072 A 
ATOM     23  S   UNL     1       5.090  -6.163 -12.495  0.00  0.00    -0.060 S 
ATOM     24  C   UNL     1       5.030  -4.485 -12.388  0.00  0.00    +0.165 A 
ATOM     25  N   UNL     1       4.092  -4.275 -11.490  0.00  0.00    -0.229 NA
ATOM     26  N   UNL     1       5.785  -3.549 -13.083  0.00  0.00    -0.258 N 
ATOM     27  C   UNL     1       6.706  -3.956 -13.978  0.00  0.00    +0.285 C 
ATOM     28  O   UNL     1       6.877  -5.144 -14.178  0.00  0.00    -0.266 OA
ATOM     29  H   UNL     1       5.649  -2.602 -12.924  0.00  0.00    +0.157 HD
BRANCH  27  30
ATOM     30  C   UNL     1       7.503  -2.967 -14.712  0.00  0.00    +0.189 A 
ATOM     31  C   UNL     1       8.460  -3.242 -15.646  0.00  0.00    +0.054 A 
ATOM     32  C   UNL     1       8.961  -2.006 -16.086  0.00  0.00    +0.042 A 
ATOM     33  C   UNL     1       8.295  -1.044 -15.410  0.00  0.00    +0.196 A 
ATOM     34  O   UNL     1       7.413  -1.627 -14.587  0.00  0.00    -0.458 OA
ENDBRANCH  27  30
ENDBRANCH  20  21
ENDBRANCH   7  20
TORSDOF 5
