REMARK  Name = ZINC06299736
REMARK  8 active torsions:
REMARK  status: ('A' for Active; 'I' for Inactive)
REMARK    1  A    between atoms: C_4  and  N_11
REMARK    2  A    between atoms: C_5  and  C_7
REMARK    3  A    between atoms: N_11  and  C_12
REMARK    4  A    between atoms: C_12  and  N_14
REMARK    5  A    between atoms: N_14  and  N_15
REMARK    6  A    between atoms: C_16  and  C_17
REMARK    7  A    between atoms: C_21  and  O_24
REMARK    8  A    between atoms: C_22  and  O_23
REMARK                            x       y       z     vdW  Elec       q    Type
REMARK                         _______ _______ _______ _____ _____    ______ ____
ROOT
ATOM      1  C   UNL     1       4.775   0.037  -0.146  0.00  0.00    +0.154 C 
ATOM      2  S   UNL     1       4.755   1.749  -0.137  0.00  0.00    -0.017 S 
ENDROOT
BRANCH   1   3
ATOM      3  N   UNL     1       3.621  -0.650  -0.036  0.00  0.00    -0.295 N 
ATOM      4  H   UNL     1       3.638  -1.617   0.038  0.00  0.00    +0.154 HD
BRANCH   3   8
ATOM      5  C   UNL     1      -0.018   1.376  -0.020  0.00  0.00    +0.001 A 
ATOM      6  C   UNL     1       0.958   1.718  -0.938  0.00  0.00    +0.002 A 
ATOM      7  C   UNL     1       2.165   1.048  -0.946  0.00  0.00    +0.024 A 
ATOM      8  C   UNL     1       2.399   0.030  -0.031  0.00  0.00    +0.044 A 
ATOM      9  C   UNL     1       1.417  -0.311   0.890  0.00  0.00    +0.076 A 
ATOM     10  C   UNL     1       0.211   0.362   0.892  0.00  0.00    +0.014 A 
BRANCH   9  11
ATOM     11  C   UNL     1       1.666  -1.416   1.884  0.00  0.00    +0.419 C 
ATOM     12  F   UNL     1       0.539  -1.573   2.699  0.00  0.00    -0.166 F 
ATOM     13  F   UNL     1       1.918  -2.610   1.201  0.00  0.00    -0.166 F 
ATOM     14  F   UNL     1       2.772  -1.089   2.676  0.00  0.00    -0.166 F 
ENDBRANCH   9  11
ENDBRANCH   3   8
ENDBRANCH   1   3
BRANCH   1  15
ATOM     15  N   UNL     1       5.944  -0.622  -0.263  0.00  0.00    -0.218 N 
ATOM     16  H   UNL     1       6.775  -0.127  -0.341  0.00  0.00    +0.176 HD
BRANCH  15  17
ATOM     17  N   UNL     1       5.960  -2.023  -0.270  0.00  0.00    -0.188 NA
ATOM     18  C   UNL     1       7.087  -2.659  -0.382  0.00  0.00    +0.142 C 
BRANCH  18  19
ATOM     19  C   UNL     1       7.104  -4.133  -0.390  0.00  0.00    +0.040 A 
ATOM     20  C   UNL     1       8.315  -4.820  -0.505  0.00  0.00    +0.013 A 
ATOM     21  C   UNL     1       8.327  -6.199  -0.511  0.00  0.00    +0.004 A 
ATOM     22  C   UNL     1       7.143  -6.908  -0.405  0.00  0.00    +0.049 A 
ATOM     23  C   UNL     1       5.934  -6.240  -0.291  0.00  0.00    +0.159 A 
ATOM     24  C   UNL     1       5.907  -4.850  -0.277  0.00  0.00    +0.167 A 
BRANCH  24  25
ATOM     25  O   UNL     1       4.724  -4.191  -0.159  0.00  0.00    -0.503 OA
ATOM     26  H   UNL     1       4.296  -3.997  -1.004  0.00  0.00    +0.292 HD
ENDBRANCH  24  25
BRANCH  23  27
ATOM     27  O   UNL     1       4.775  -6.944  -0.187  0.00  0.00    -0.503 OA
ATOM     28  H   UNL     1       4.521  -7.151   0.723  0.00  0.00    +0.292 HD
ENDBRANCH  23  27
ENDBRANCH  18  19
ENDBRANCH  15  17
ENDBRANCH   1  15
TORSDOF 8
