REMARK  Name = ZINC45782031
REMARK  8 active torsions:
REMARK  status: ('A' for Active; 'I' for Inactive)
REMARK    1  A    between atoms: C_1  and  C_2
REMARK    2  A    between atoms: C_2  and  C_4
REMARK    3  A    between atoms: C_2  and  N_14
REMARK    4  A    between atoms: C_7  and  N_10
REMARK    5  A    between atoms: C_15  and  C_17
REMARK    6  A    between atoms: C_18  and  C_19
REMARK    7  A    between atoms: C_24  and  O_25
REMARK    8  A    between atoms: O_25  and  C_26
REMARK                            x       y       z     vdW  Elec       q    Type
REMARK                         _______ _______ _______ _____ _____    ______ ____
ROOT
ATOM      1  N   UNL     1       0.577  -0.661  -1.205  0.00  0.00    -0.305 N 
ATOM      2  C   UNL     1      -0.172  -0.793  -2.317  0.00  0.00    +0.237 C 
ATOM      3  O   UNL     1      -1.319  -0.383  -2.331  0.00  0.00    -0.271 OA
ATOM      4  H   UNL     1       1.490  -0.988  -1.194  0.00  0.00    +0.150 HD
ENDROOT
BRANCH   1   6
ATOM      5  C   UNL     1       0.169   1.493  -0.121  0.00  0.00    +0.033 C 
ATOM      6  C   UNL     1       0.012  -0.025  -0.012  0.00  0.00    +0.100 C 
BRANCH   6   7
ATOM      7  C   UNL     1       0.738  -0.518   1.212  0.00  0.00    -0.027 A 
ATOM      8  C   UNL     1       2.110  -0.692   1.178  0.00  0.00    +0.007 A 
ATOM      9  C   UNL     1       2.778  -1.144   2.299  0.00  0.00    +0.023 A 
ATOM     10  C   UNL     1       2.072  -1.425   3.461  0.00  0.00    +0.035 A 
ATOM     11  C   UNL     1       0.694  -1.250   3.492  0.00  0.00    +0.023 A 
ATOM     12  C   UNL     1       0.032  -0.792   2.370  0.00  0.00    +0.007 A 
BRANCH  10  13
ATOM     13  N   UNL     1       2.746  -1.884   4.598  0.00  0.00    -0.270 N 
ATOM     14  C   UNL     1       3.998  -1.458   4.857  0.00  0.00    +0.301 C 
ATOM     15  O   UNL     1       4.506  -0.603   4.157  0.00  0.00    -0.253 OA
ATOM     16  N   UNL     1       4.688  -1.980   5.891  0.00  0.00    -0.313 N 
ATOM     17  H   UNL     1       2.312  -2.509   5.200  0.00  0.00    +0.156 HD
ATOM     18  H   UNL     1       4.282  -2.662   6.449  0.00  0.00    +0.146 HD
ATOM     19  H   UNL     1       5.589  -1.673   6.077  0.00  0.00    +0.146 HD
ENDBRANCH  10  13
ENDBRANCH   6   7
ENDBRANCH   1   6
BRANCH   2  20
ATOM     20  C   UNL     1       0.392  -1.428  -3.508  0.00  0.00    +0.068 C 
ATOM     21  C   UNL     1      -0.359  -1.560  -4.622  0.00  0.00    +0.016 C 
BRANCH  21  22
ATOM     22  C   UNL     1       0.208  -2.199  -5.818  0.00  0.00    +0.017 A 
ATOM     23  C   UNL     1       1.523  -2.676  -5.805  0.00  0.00    +0.011 A 
ATOM     24  C   UNL     1       2.047  -3.273  -6.930  0.00  0.00    +0.001 A 
ATOM     25  C   UNL     1       1.279  -3.403  -8.076  0.00  0.00    +0.004 A 
ATOM     26  C   UNL     1      -0.021  -2.936  -8.104  0.00  0.00    +0.046 A 
ATOM     27  C   UNL     1      -0.569  -2.338  -6.979  0.00  0.00    +0.134 A 
BRANCH  27  28
ATOM     28  O   UNL     1      -1.847  -1.885  -7.003  0.00  0.00    -0.434 OA
BRANCH  28  29
ATOM     29  C   UNL     1      -2.576  -2.062  -8.220  0.00  0.00    +0.541 C 
ATOM     30  F   UNL     1      -1.920  -1.392  -9.258  0.00  0.00    -0.166 F 
ATOM     31  F   UNL     1      -2.655  -3.425  -8.521  0.00  0.00    -0.166 F 
ENDBRANCH  28  29
ENDBRANCH  27  28
ENDBRANCH  21  22
ENDBRANCH   2  20
TORSDOF 7
