REMARK  Name = ZINC27020464
REMARK  9 active torsions:
REMARK  status: ('A' for Active; 'I' for Inactive)
REMARK    1  A    between atoms: C_1  and  C_2
REMARK    2  A    between atoms: C_5  and  C_8
REMARK    3  A    between atoms: C_8  and  C_10
REMARK    4  A    between atoms: C_12  and  C_24
REMARK    5  A    between atoms: C_18  and  C_19
REMARK    6  A    between atoms: C_18  and  O_23
REMARK    7  A    between atoms: C_27  and  C_30
REMARK    8  A    between atoms: C_30  and  C_31
REMARK    9  A    between atoms: C_30  and  C_32
REMARK                            x       y       z     vdW  Elec       q    Type
REMARK                         _______ _______ _______ _____ _____    ______ ____
ROOT
ATOM      1  C   UNL     1      -3.844   1.717   0.133  0.00  0.00    +0.144 C 
ATOM      2  C   UNL     1      -4.811   0.838   0.932  0.00  0.00    +0.120 C 
ATOM      3  N   UNL     1      -5.040  -0.411   0.195  0.00  0.00    -0.292 N 
ATOM      4  C   UNL     1      -4.963  -0.457  -1.144  0.00  0.00    +0.302 C 
ATOM      5  O   UNL     1      -5.172  -1.515  -1.704  0.00  0.00    -0.253 OA
ATOM      6  N   UNL     1      -4.665   0.619  -1.888  0.00  0.00    -0.264 N 
ATOM      7  C   UNL     1      -4.415   1.924  -1.274  0.00  0.00    +0.243 C 
ATOM      8  H   UNL     1      -5.281  -1.335   0.740  0.00  0.00    +0.151 HD
ATOM      9  H   UNL     1      -4.609   0.505  -2.981  0.00  0.00    +0.153 HD
ENDROOT
BRANCH   2  10
ATOM     10  C   UNL     1      -4.214   0.531   2.281  0.00  0.00    -0.026 A 
ATOM     11  C   UNL     1      -3.345  -0.534   2.427  0.00  0.00    +0.006 A 
ATOM     12  C   UNL     1      -2.794  -0.813   3.663  0.00  0.00    +0.004 A 
ATOM     13  C   UNL     1      -3.120  -0.033   4.757  0.00  0.00    -0.045 A 
ATOM     14  C   UNL     1      -3.994   1.029   4.613  0.00  0.00    +0.004 A 
ATOM     15  C   UNL     1      -4.541   1.310   3.375  0.00  0.00    +0.006 A 
BRANCH  13  16
ATOM     16  C   UNL     1      -2.523  -0.339   6.106  0.00  0.00    +0.013 C 
ATOM     17  C   UNL     1      -2.921  -1.754   6.531  0.00  0.00    +0.012 C 
ATOM     18  C   UNL     1      -0.998  -0.241   6.023  0.00  0.00    +0.012 C 
ENDBRANCH  13  16
ENDBRANCH   2  10
BRANCH   7  19
ATOM     19  C   UNL     1      -3.411   2.705  -2.124  0.00  0.00    +0.436 C 
ATOM     20  F   UNL     1      -2.262   1.931  -2.318  0.00  0.00    -0.166 F 
ATOM     21  F   UNL     1      -3.985   3.006  -3.364  0.00  0.00    -0.166 F 
ATOM     22  F   UNL     1      -3.069   3.892  -1.468  0.00  0.00    -0.166 F 
ENDBRANCH   7  19
BRANCH   1  23
ATOM     23  C   UNL     1      -2.502   1.038   0.039  0.00  0.00    +0.173 C 
ATOM     24  O   UNL     1      -2.395  -0.015  -0.555  0.00  0.00    -0.292 OA
BRANCH  23  29
ATOM     25  C   UNL     1       2.114   3.437   2.485  0.00  0.00    +0.044 C 
ATOM     26  C   UNL     1       0.903   2.807   1.846  0.00  0.00    -0.050 A 
ATOM     27  C   UNL     1       1.006   1.557   1.261  0.00  0.00    +0.004 A 
ATOM     28  C   UNL     1      -0.097   0.973   0.675  0.00  0.00    +0.011 A 
ATOM     29  C   UNL     1      -1.321   1.651   0.667  0.00  0.00    +0.018 A 
ATOM     30  C   UNL     1      -1.417   2.912   1.264  0.00  0.00    +0.011 A 
ATOM     31  C   UNL     1      -0.305   3.482   1.846  0.00  0.00    +0.004 A 
ENDBRANCH  23  29
ENDBRANCH   1  23
BRANCH   7  32
ATOM     32  O   UNL     1      -5.640   2.655  -1.189  0.00  0.00    -0.364 OA
ATOM     33  H   UNL     1      -6.199   2.900  -2.104  0.00  0.00    +0.212 HD
ENDBRANCH   7  32
TORSDOF 6
