REMARK  Name = ZINC32988951
REMARK  10 active torsions:
REMARK  status: ('A' for Active; 'I' for Inactive)
REMARK    1  A    between atoms: C_1  and  C_2
REMARK    2  A    between atoms: C_2  and  C_3
REMARK    3  A    between atoms: C_3  and  C_4
REMARK    4  A    between atoms: C_4  and  N_5
REMARK    5  A    between atoms: C_6  and  N_35
REMARK    6  A    between atoms: C_7  and  N_14
REMARK    7  A    between atoms: N_14  and  C_15
REMARK    8  A    between atoms: C_15  and  C_16
REMARK    9  A    between atoms: C_21  and  C_23
REMARK   10  A    between atoms: C_26  and  C_28
REMARK                            x       y       z     vdW  Elec       q    Type
REMARK                         _______ _______ _______ _____ _____    ______ ____
ROOT
ATOM      1  N   UNL     1       0.005  -2.884  -2.299  0.00  0.00    -0.252 N 
ATOM      2  C   UNL     1      -0.131  -2.289  -3.500  0.00  0.00    +0.258 C 
ATOM      3  O   UNL     1      -0.211  -2.965  -4.510  0.00  0.00    -0.269 OA
ENDROOT
BRANCH   1   6
ATOM      4  N   UNL     1       1.104  -1.220   0.787  0.00  0.00    -0.280 N 
ATOM      5  C   UNL     1       1.142  -1.981  -0.358  0.00  0.00    +0.127 A 
ATOM      6  C   UNL     1      -0.001  -2.107  -1.122  0.00  0.00    +0.140 A 
ATOM      7  C   UNL     1      -1.170  -1.442  -0.708  0.00  0.00    +0.277 A 
ATOM      8  O   UNL     1      -2.193  -1.532  -1.366  0.00  0.00    -0.266 OA
ATOM      9  N   UNL     1      -1.152  -0.704   0.419  0.00  0.00    -0.273 N 
ATOM     10  H   UNL     1      -2.062  -0.181   0.749  0.00  0.00    +0.173 HD
ATOM     11  C   UNL     1      -0.030  -0.597   1.153  0.00  0.00    +0.331 A 
ATOM     12  O   UNL     1      -0.042   0.074   2.167  0.00  0.00    -0.246 OA
BRANCH   5  13
ATOM     13  N   UNL     1       2.303  -2.613  -0.736  0.00  0.00    -0.343 N 
ATOM     14  H   UNL     1       2.326  -3.220  -1.653  0.00  0.00    +0.144 HD
ATOM     15  H   UNL     1       3.209  -2.512  -0.120  0.00  0.00    +0.144 HD
ENDBRANCH   5  13
BRANCH   4  16
ATOM     16  C   UNL     1       2.309  -1.083   1.609  0.00  0.00    +0.128 C 
BRANCH  16  17
ATOM     17  C   UNL     1       2.338  -2.194   2.660  0.00  0.00    +0.021 C 
BRANCH  17  19
ATOM     18  C   UNL     1       3.626  -3.162   4.571  0.00  0.00    +0.004 C 
ATOM     19  C   UNL     1       3.596  -2.050   3.520  0.00  0.00    -0.002 C 
ENDBRANCH  17  19
ENDBRANCH  16  17
ENDBRANCH   4  16
ENDBRANCH   1   6
BRANCH   2  20
ATOM     20  C   UNL     1      -0.183  -0.828  -3.592  0.00  0.00    +0.075 A 
ATOM     21  C   UNL     1      -0.425  -0.032  -4.702  0.00  0.00    +0.021 A 
ATOM     22  C   UNL     1      -0.430   1.326  -4.548  0.00  0.00    +0.017 A 
ATOM     23  C   UNL     1      -0.181   1.855  -3.292  0.00  0.00    +0.020 A 
ATOM     24  S   UNL     1       0.056   0.386  -2.305  0.00  0.00    -0.084 S 
BRANCH  23  25
ATOM     25  C   UNL     1      -0.128   3.272  -2.876  0.00  0.00    -0.011 A 
ATOM     26  C   UNL     1      -0.339   4.286  -3.812  0.00  0.00    +0.010 A 
ATOM     27  C   UNL     1      -0.293   5.606  -3.416  0.00  0.00    +0.020 A 
ATOM     28  C   UNL     1      -0.026   5.927  -2.095  0.00  0.00    +0.041 A 
ATOM     29  C   UNL     1       0.190   4.926  -1.163  0.00  0.00    +0.020 A 
ATOM     30  C   UNL     1       0.141   3.602  -1.546  0.00  0.00    +0.010 A 
ATOM     31 CL   UNL     1       0.037   7.592  -1.606  0.00  0.00    -0.084 Cl
ENDBRANCH  23  25
ENDBRANCH   2  20
BRANCH   1  32
ATOM     32  C   UNL     1       0.158  -4.339  -2.215  0.00  0.00    +0.188 C 
BRANCH  32  33
ATOM     33  C   UNL     1      -1.189  -4.973  -1.981  0.00  0.00    +0.122 A 
ATOM     34  C   UNL     1      -1.998  -5.475  -2.931  0.00  0.00    +0.046 A 
ATOM     35  C   UNL     1      -3.148  -5.966  -2.271  0.00  0.00    +0.041 A 
ATOM     36  C   UNL     1      -2.973  -5.734  -0.958  0.00  0.00    +0.195 A 
ATOM     37  O   UNL     1      -1.782  -5.138  -0.787  0.00  0.00    -0.466 OA
ENDBRANCH  32  33
ENDBRANCH   1  32
TORSDOF 9
