REMARK  Name = ZINC54945953
REMARK  11 active torsions:
REMARK  status: ('A' for Active; 'I' for Inactive)
REMARK    1  A    between atoms: C_1  and  C_2
REMARK    2  A    between atoms: C_5  and  C_30
REMARK    3  A    between atoms: N_8  and  C_10
REMARK    4  A    between atoms: C_10  and  C_11
REMARK    5  A    between atoms: C_10  and  C_12
REMARK    6  A    between atoms: C_10  and  C_13
REMARK    7  A    between atoms: C_13  and  N_14
REMARK    8  A    between atoms: C_15  and  C_17
REMARK    9  A    between atoms: N_19  and  C_20
REMARK   10  A    between atoms: C_23  and  C_26
REMARK   11  A    between atoms: C_26  and  C_27
REMARK                            x       y       z     vdW  Elec       q    Type
REMARK                         _______ _______ _______ _____ _____    ______ ____
ROOT
ATOM      1  N   UNL     1       3.486  -2.422   0.921  0.00  0.00    -0.309 N 
ATOM      2  C   UNL     1       4.773  -2.205   0.585  0.00  0.00    +0.299 C 
ATOM      3  O   UNL     1       5.533  -1.700   1.385  0.00  0.00    -0.265 OA
ATOM      4  H   UNL     1       2.879  -2.826   0.281  0.00  0.00    +0.149 HD
ENDROOT
BRANCH   2   5
ATOM      5  C   UNL     1       5.265  -2.587  -0.773  0.00  0.00    +0.303 C 
ATOM      6  O   UNL     1       4.505  -3.092  -1.574  0.00  0.00    -0.265 OA
ATOM      7  N   UNL     1       6.552  -2.370  -1.109  0.00  0.00    -0.278 N 
ATOM      8  H   UNL     1       7.143  -1.909  -0.494  0.00  0.00    +0.155 HD
BRANCH   7   9
ATOM      9  C   UNL     1       7.035  -2.811  -2.344  0.00  0.00    +0.034 A 
ATOM     10  C   UNL     1       8.330  -3.301  -2.450  0.00  0.00    +0.023 A 
ATOM     11  C   UNL     1       8.804  -3.736  -3.673  0.00  0.00    +0.006 A 
ATOM     12  C   UNL     1       7.991  -3.682  -4.790  0.00  0.00    -0.039 A 
ATOM     13  C   UNL     1       6.702  -3.194  -4.688  0.00  0.00    +0.006 A 
ATOM     14  C   UNL     1       6.219  -2.764  -3.468  0.00  0.00    +0.023 A 
BRANCH  12  15
ATOM     15  C   UNL     1       8.512  -4.157  -6.122  0.00  0.00    +0.130 C 
BRANCH  15  16
ATOM     16  C   UNL     1       8.213  -5.625  -6.285  0.00  0.00    +0.215 C 
ATOM     17  O   UNL     1       7.633  -6.226  -5.405  0.00  0.00    -0.276 OA
ATOM     18  N   UNL     1       8.589  -6.269  -7.407  0.00  0.00    -0.329 N 
ATOM     19  H   UNL     1       9.052  -5.788  -8.110  0.00  0.00    +0.145 HD
ATOM     20  H   UNL     1       8.396  -7.214  -7.511  0.00  0.00    +0.145 HD
ENDBRANCH  15  16
ENDBRANCH  12  15
ENDBRANCH   7   9
ENDBRANCH   2   5
BRANCH   1  21
ATOM     21  C   UNL     1       3.004  -2.048   2.253  0.00  0.00    +0.092 C 
BRANCH  21  22
ATOM     22  C   UNL     1       1.550  -2.495   2.413  0.00  0.00    -0.055 C 
ATOM     23  C   UNL     1       1.021  -2.033   3.772  0.00  0.00    -0.008 C 
ATOM     24  C   UNL     1       1.473  -4.021   2.328  0.00  0.00    -0.008 C 
BRANCH  22  30
ATOM     25  C   UNL     1       0.145   1.705   0.326  0.00  0.00    +0.005 C 
ATOM     26  C   UNL     1       0.047   0.180   0.251  0.00  0.00    -0.031 C 
ATOM     27  C   UNL     1      -1.421  -0.244   0.347  0.00  0.00    +0.003 C 
ATOM     28  C   UNL     1      -1.502  -1.773   0.350  0.00  0.00    -0.031 C 
ATOM     29  C   UNL     1      -0.663  -2.321   1.507  0.00  0.00    -0.075 C 
ATOM     30  N   UNL     1       0.735  -1.903   1.343  0.00  0.00    +0.384 N 
ATOM     31  C   UNL     1       0.830  -0.440   1.411  0.00  0.00    -0.075 C 
ATOM     32  C   UNL     1      -2.958  -2.208   0.524  0.00  0.00    +0.005 C 
ATOM     33  H   UNL     1       1.077  -2.220   0.448  0.00  0.00    -0.081 HD
ENDBRANCH  22  30
ENDBRANCH  21  22
ENDBRANCH   1  21
TORSDOF 7
