REMARK  Name = ZINC53113519
REMARK  7 active torsions:
REMARK  status: ('A' for Active; 'I' for Inactive)
REMARK    1  A    between atoms: C_1  and  C_2
REMARK    2  A    between atoms: C_7  and  C_9
REMARK    3  A    between atoms: C_7  and  N_11
REMARK    4  A    between atoms: C_9  and  O_10
REMARK    5  A    between atoms: N_11  and  S_12
REMARK    6  A    between atoms: S_12  and  C_15
REMARK    7  A    between atoms: C_16  and  N_22
REMARK                            x       y       z     vdW  Elec       q    Type
REMARK                         _______ _______ _______ _____ _____    ______ ____
ROOT
ATOM      1  S   UNL     1       1.180   1.444   2.986  0.00  0.00    +0.062 S 
ATOM      2  O   UNL     1       1.311   2.858   3.013  0.00  0.00    -0.153 OA
ATOM      3  O   UNL     1      -0.026   0.783   3.342  0.00  0.00    -0.153 OA
ENDROOT
BRANCH   1   4
ATOM      4  C   UNL     1       2.436   0.801   4.042  0.00  0.00    +0.144 A 
ATOM      5  C   UNL     1       3.721   1.327   3.993  0.00  0.00    +0.053 A 
ATOM      6  C   UNL     1       4.709   0.818   4.827  0.00  0.00    +0.025 A 
ATOM      7  C   UNL     1       4.411  -0.209   5.702  0.00  0.00    +0.003 A 
ATOM      8  C   UNL     1       3.131  -0.730   5.748  0.00  0.00    +0.022 A 
ATOM      9  C   UNL     1       2.143  -0.222   4.923  0.00  0.00    +0.069 A 
ATOM     10 CL   UNL     1       0.536  -0.874   4.991  0.00  0.00    -0.081 Cl
BRANCH   5  11
ATOM     11  N   UNL     1       4.020   2.365   3.107  0.00  0.00    -0.356 N 
ATOM     12  H   UNL     1       3.319   2.751   2.559  0.00  0.00    +0.142 HD
ATOM     13  H   UNL     1       4.928   2.699   3.040  0.00  0.00    +0.142 HD
ENDBRANCH   5  11
ENDBRANCH   1   4
BRANCH   1  14
ATOM     14  N   UNL     1       1.545   0.964   1.443  0.00  0.00    -0.182 NA
ATOM     15  H   UNL     1       1.837   1.617   0.788  0.00  0.00    +0.149 HD
BRANCH  14  21
ATOM     16  C   UNL     1      -0.721   1.469   0.516  0.00  0.00    +0.007 C 
ATOM     17  C   UNL     1      -0.845  -0.005   0.124  0.00  0.00    -0.012 C 
ATOM     18  C   UNL     1      -0.296  -0.204  -1.290  0.00  0.00    +0.003 C 
ATOM     19  C   UNL     1       1.176   0.211  -1.329  0.00  0.00    +0.002 C 
ATOM     20  C   UNL     1       1.974  -0.647  -0.346  0.00  0.00    +0.026 C 
ATOM     21  C   UNL     1       1.425  -0.448   1.068  0.00  0.00    +0.063 C 
ATOM     22  C   UNL     1      -0.046  -0.863   1.107  0.00  0.00    +0.029 C 
BRANCH  21  23
ATOM     23  C   UNL     1       2.224  -1.306   2.051  0.00  0.00    +0.179 C 
BRANCH  23  24
ATOM     24  O   UNL     1       3.606  -0.949   1.981  0.00  0.00    -0.393 OA
ATOM     25  H   UNL     1       4.173  -1.455   2.579  0.00  0.00    +0.209 HD
ENDBRANCH  23  24
ENDBRANCH  21  23
ENDBRANCH  14  21
ENDBRANCH   1  14
TORSDOF 6
