REMARK  Name = ZINC39686463
REMARK  11 active torsions:
REMARK  status: ('A' for Active; 'I' for Inactive)
REMARK    1  A    between atoms: C_1  and  C_2
REMARK    2  A    between atoms: C_2  and  O_3
REMARK    3  A    between atoms: O_3  and  C_4
REMARK    4  A    between atoms: C_7  and  C_10
REMARK    5  A    between atoms: C_14  and  C_23
REMARK    6  A    between atoms: N_25  and  C_26
REMARK    7  A    between atoms: C_26  and  C_28
REMARK    8  A    between atoms: C_26  and  C_29
REMARK    9  A    between atoms: C_29  and  C_30
REMARK   10  A    between atoms: C_35  and  O_36
REMARK   11  A    between atoms: O_36  and  C_37
REMARK                            x       y       z     vdW  Elec       q    Type
REMARK                         _______ _______ _______ _____ _____    ______ ____
ROOT
ATOM      1  C   UNL     1       1.596  -5.364  -0.790  0.00  0.00    +0.247 C 
ATOM      2  O   UNL     1       1.276  -6.129   0.099  0.00  0.00    -0.270 OA
ATOM      3  N   UNL     1       1.883  -5.840  -2.018  0.00  0.00    -0.296 N 
ATOM      4  C   UNL     1       2.400  -5.087  -3.186  0.00  0.00    +0.121 C 
ATOM      5  C   UNL     1       3.423  -6.040  -3.843  0.00  0.00    +0.100 C 
ATOM      6  C   UNL     1       2.994  -7.447  -3.394  0.00  0.00    -0.004 C 
ATOM      7  C   UNL     1       1.761  -7.235  -2.504  0.00  0.00    +0.115 C 
ATOM      8  C   UNL     1       4.109  -8.109  -2.591  0.00  0.00    -0.010 C 
ATOM      9  C   UNL     1       3.681  -9.528  -2.205  0.00  0.00    -0.082 C 
ATOM     10  N   UNL     1       3.398 -10.303  -3.419  0.00  0.00    +0.379 N 
ATOM     11  C   UNL     1       2.263  -9.712  -4.138  0.00  0.00    -0.082 C 
ATOM     12  C   UNL     1       2.631  -8.301  -4.605  0.00  0.00    -0.010 C 
ATOM     13  H   UNL     1       4.212 -10.299  -4.016  0.00  0.00    -0.086 HD
ATOM     14  H   UNL     1       3.176 -11.254  -3.166  0.00  0.00    -0.086 HD
ENDROOT
BRANCH   1  18
ATOM     15  C   UNL     1       1.809  -1.192  -0.026  0.00  0.00    +0.121 A 
ATOM     16  C   UNL     1       1.825  -2.092   1.033  0.00  0.00    +0.046 A 
ATOM     17  C   UNL     1       1.756  -3.446   0.789  0.00  0.00    +0.016 A 
ATOM     18  C   UNL     1       1.669  -3.914  -0.525  0.00  0.00    +0.037 A 
ATOM     19  C   UNL     1       1.653  -3.006  -1.586  0.00  0.00    +0.016 A 
ATOM     20  C   UNL     1       1.717  -1.653  -1.334  0.00  0.00    +0.046 A 
BRANCH  15  21
ATOM     21  O   UNL     1       1.877   0.141   0.218  0.00  0.00    -0.492 OA
BRANCH  21  23
ATOM     22  C   UNL     1       2.036   2.073   1.661  0.00  0.00    +0.048 C 
ATOM     23  C   UNL     1       1.970   0.546   1.585  0.00  0.00    +0.225 C 
ENDBRANCH  21  23
ENDBRANCH  15  21
ENDBRANCH   1  18
BRANCH   5  24
ATOM     24  C   UNL     1       4.815  -5.733  -3.353  0.00  0.00    +0.218 C 
ATOM     25  O   UNL     1       4.986  -5.335  -2.220  0.00  0.00    -0.275 OA
ATOM     26  N   UNL     1       5.870  -5.900  -4.175  0.00  0.00    -0.312 N 
ATOM     27  H   UNL     1       5.743  -6.288  -5.055  0.00  0.00    +0.149 HD
BRANCH  26  28
ATOM     28  C   UNL     1       7.209  -5.496  -3.739  0.00  0.00    +0.074 C 
ATOM     29  C   UNL     1       7.875  -6.655  -2.995  0.00  0.00    +0.028 C 
BRANCH  28  30
ATOM     30  C   UNL     1       8.052  -5.122  -4.960  0.00  0.00    +0.060 C 
BRANCH  30  31
ATOM     31  C   UNL     1       7.458  -3.909  -5.629  0.00  0.00    -0.004 A 
ATOM     32  C   UNL     1       6.633  -4.059  -6.727  0.00  0.00    +0.007 A 
ATOM     33  C   UNL     1       6.088  -2.946  -7.340  0.00  0.00    +0.000 A 
ATOM     34  C   UNL     1       6.366  -1.681  -6.857  0.00  0.00    +0.004 A 
ATOM     35  C   UNL     1       7.190  -1.526  -5.759  0.00  0.00    +0.046 A 
ATOM     36  C   UNL     1       7.734  -2.641  -5.138  0.00  0.00    +0.123 A 
BRANCH  36  37
ATOM     37  O   UNL     1       8.540  -2.491  -4.054  0.00  0.00    -0.495 OA
ATOM     38  C   UNL     1       8.781  -1.157  -3.604  0.00  0.00    +0.277 C 
ENDBRANCH  36  37
ENDBRANCH  30  31
ENDBRANCH  28  30
ENDBRANCH  26  28
ENDBRANCH   5  24
TORSDOF 8
