REMARK  Name = ZINC08914638
REMARK  5 active torsions:
REMARK  status: ('A' for Active; 'I' for Inactive)
REMARK    1  A    between atoms: C_1  and  C_2
REMARK    2  A    between atoms: C_20  and  O_35
REMARK    3  A    between atoms: N_24  and  C_27
REMARK    4  A    between atoms: C_27  and  C_28
REMARK    5  A    between atoms: C_28  and  C_29
REMARK                            x       y       z     vdW  Elec       q    Type
REMARK                         _______ _______ _______ _____ _____    ______ ____
ROOT
ATOM      1  C   UNL     1       2.472   3.908   0.001  0.00  0.00    +0.044 C 
ATOM      2  C   UNL     1       1.159   3.168   0.008  0.00  0.00    -0.050 A 
ATOM      3  C   UNL     1       1.155   1.775   0.001  0.00  0.00    +0.005 A 
ATOM      4  C   UNL     1      -0.013   1.076   0.008  0.00  0.00    +0.026 A 
ATOM      5  C   UNL     1      -1.238   1.764   0.018  0.00  0.00    +0.048 A 
ATOM      6  C   UNL     1      -1.231   3.181   0.029  0.00  0.00    -0.001 A 
ATOM      7  C   UNL     1      -0.008   3.869   0.022  0.00  0.00    +0.013 A 
ATOM      8  C   UNL     1      -2.461   3.865   0.042  0.00  0.00    +0.017 A 
ATOM      9  C   UNL     1      -3.617   3.137   0.051  0.00  0.00    -0.007 A 
ATOM     10  C   UNL     1      -3.566   1.740   0.042  0.00  0.00    +0.103 A 
ATOM     11  N   UNL     1      -4.704   0.949   0.039  0.00  0.00    -0.312 N 
ATOM     12  C   UNL     1      -4.484  -0.289   0.800  0.00  0.00    +0.107 C 
ATOM     13  C   UNL     1      -5.670  -1.233   0.591  0.00  0.00    +0.019 C 
ATOM     14  C   UNL     1      -6.955  -0.543   1.058  0.00  0.00    +0.003 C 
ATOM     15  C   UNL     1      -7.133   0.764   0.280  0.00  0.00    +0.024 C 
ATOM     16  C   UNL     1      -5.904   1.650   0.494  0.00  0.00    +0.099 C 
ATOM     17  C   UNL     1      -6.065   2.944  -0.314  0.00  0.00    +0.143 C 
ATOM     18  C   UNL     1      -4.925   3.888   0.077  0.00  0.00    +0.066 C 
ATOM     19  C   UNL     1      -5.982   2.633  -1.781  0.00  0.00    +0.198 C 
ATOM     20  N   UNL     1      -6.949   2.902  -2.604  0.00  0.00    -0.131 NA
ATOM     21  C   UNL     1      -8.094   3.477  -2.208  0.00  0.00    +0.335 C 
ATOM     22  O   UNL     1      -8.960   3.702  -3.032  0.00  0.00    -0.250 OA
ATOM     23  N   UNL     1      -8.309   3.810  -0.926  0.00  0.00    -0.223 N 
ATOM     24  C   UNL     1      -7.384   3.581   0.020  0.00  0.00    +0.240 C 
ATOM     25  O   UNL     1      -7.617   3.896   1.167  0.00  0.00    -0.274 OA
ATOM     26  N   UNL     1      -2.398   1.025   0.031  0.00  0.00    -0.343 N 
ATOM     27  H   UNL     1      -2.389  -0.002   0.032  0.00  0.00    +0.167 HD
ENDROOT
BRANCH  19  28
ATOM     28  O   UNL     1      -4.867   2.056  -2.258  0.00  0.00    -0.496 OA
ATOM     29  H   UNL     1      -4.842   1.867  -3.206  0.00  0.00    +0.293 HD
ENDBRANCH  19  28
BRANCH  23  30
ATOM     30  C   UNL     1      -9.579   4.435  -0.550  0.00  0.00    +0.122 C 
BRANCH  30  31
ATOM     31  C   UNL     1     -10.591   3.349  -0.176  0.00  0.00    +0.054 C 
BRANCH  31  32
ATOM     32  C   UNL     1     -11.898   3.992   0.210  0.00  0.00    -0.046 A 
ATOM     33  C   UNL     1     -12.136   4.335   1.528  0.00  0.00    +0.004 A 
ATOM     34  C   UNL     1     -13.334   4.929   1.882  0.00  0.00    +0.000 A 
ATOM     35  C   UNL     1     -14.296   5.171   0.920  0.00  0.00    +0.000 A 
ATOM     36  C   UNL     1     -14.060   4.824  -0.397  0.00  0.00    +0.000 A 
ATOM     37  C   UNL     1     -12.861   4.234  -0.752  0.00  0.00    +0.004 A 
ENDBRANCH  31  32
ENDBRANCH  30  31
ENDBRANCH  23  30
TORSDOF 4
