REMARK  Name = ZINC10786597
REMARK  4 active torsions:
REMARK  status: ('A' for Active; 'I' for Inactive)
REMARK    1  A    between atoms: C_1  and  C_2
REMARK    2  A    between atoms: C_15  and  C_17
REMARK    3  A    between atoms: N_23  and  S_24
REMARK    4  A    between atoms: S_24  and  C_27
REMARK                            x       y       z     vdW  Elec       q    Type
REMARK                         _______ _______ _______ _____ _____    ______ ____
ROOT
ATOM      1  C   UNL     1       3.785   0.569  -0.966  0.00  0.00    +0.073 C 
ATOM      2  C   UNL     1       3.128  -0.766  -0.727  0.00  0.00    +0.076 A 
ATOM      3  N   UNL     1       1.961  -1.179  -1.135  0.00  0.00    -0.244 NA
ATOM      4  C   UNL     1       1.489  -2.409  -0.854  0.00  0.00    +0.080 A 
ATOM      5  C   UNL     1       0.257  -3.004  -1.223  0.00  0.00    +0.031 A 
ATOM      6  C   UNL     1      -0.073  -4.259  -0.852  0.00  0.00    +0.031 A 
ATOM      7  C   UNL     1       0.789  -5.068  -0.068  0.00  0.00    +0.081 A 
ATOM      8  C   UNL     1       2.019  -4.480   0.302  0.00  0.00    +0.057 A 
ATOM      9  C   UNL     1       2.354  -3.208  -0.073  0.00  0.00    +0.055 A 
ATOM     10  S   UNL     1       3.741  -2.123   0.166  0.00  0.00    -0.071 S 
ATOM     11  S   UNL     1       2.785  -5.777   1.247  0.00  0.00    -0.051 S 
ATOM     12  C   UNL     1       1.469  -6.976   1.093  0.00  0.00    +0.166 A 
ATOM     13  N   UNL     1       0.586  -6.328   0.369  0.00  0.00    -0.225 NA
ATOM     14  N   UNL     1       1.398  -8.261   1.609  0.00  0.00    -0.263 N 
ATOM     15  C   UNL     1       0.307  -9.019   1.380  0.00  0.00    +0.238 C 
ATOM     16  O   UNL     1      -0.612  -8.577   0.724  0.00  0.00    -0.274 OA
ATOM     17  H   UNL     1       2.133  -8.614   2.134  0.00  0.00    +0.157 HD
ENDROOT
BRANCH  15  18
ATOM     18  C   UNL     1       0.230 -10.416   1.941  0.00  0.00    +0.166 C 
ATOM     19  C   UNL     1      -0.944 -10.512   2.920  0.00  0.00    +0.030 C 
ATOM     20  C   UNL     1      -1.105 -11.965   3.376  0.00  0.00    +0.003 C 
ATOM     21  C   UNL     1      -1.406 -12.853   2.166  0.00  0.00    +0.017 C 
ATOM     22  C   UNL     1      -0.235 -12.782   1.181  0.00  0.00    +0.110 C 
ATOM     23  N   UNL     1       0.018 -11.374   0.847  0.00  0.00    -0.164 NA
BRANCH  23  24
ATOM     24  S   UNL     1       0.062 -10.876  -0.732  0.00  0.00    +0.068 S 
ATOM     25  O   UNL     1       0.833  -9.682  -0.759  0.00  0.00    -0.152 OA
ATOM     26  O   UNL     1       0.399 -12.018  -1.508  0.00  0.00    -0.152 OA
BRANCH  24  27
ATOM     27  C   UNL     1      -1.580 -10.426  -1.183  0.00  0.00    +0.144 A 
ATOM     28  C   UNL     1      -2.147  -9.196  -1.226  0.00  0.00    +0.038 A 
ATOM     29  C   UNL     1      -3.467  -9.079  -1.619  0.00  0.00    +0.030 A 
ATOM     30  C   UNL     1      -4.160 -10.201  -1.939  0.00  0.00    +0.080 A 
ATOM     31  S   UNL     1      -2.932 -11.474  -1.694  0.00  0.00    -0.057 S 
ATOM     32 CL   UNL     1      -5.810 -10.357  -2.453  0.00  0.00    -0.076 Cl
ENDBRANCH  24  27
ENDBRANCH  23  24
ENDBRANCH  15  18
TORSDOF 3
