REMARK  Name = ZINC00232252
REMARK  3 active torsions:
REMARK  status: ('A' for Active; 'I' for Inactive)
REMARK    1  A    between atoms: C_12  and  C_14
REMARK    2  A    between atoms: C_17  and  O_21
REMARK    3  A    between atoms: C_18  and  O_20
REMARK                            x       y       z     vdW  Elec       q    Type
REMARK                         _______ _______ _______ _____ _____    ______ ____
ROOT
ATOM      1  C   UNL     1      -0.217  -3.016   4.151  0.00  0.00    +0.002 A 
ATOM      2  C   UNL     1      -0.765  -1.998   4.874  0.00  0.00    +0.009 A 
ATOM      3  C   UNL     1      -1.446  -0.959   4.218  0.00  0.00    -0.014 A 
ATOM      4  C   UNL     1      -2.024   0.112   4.922  0.00  0.00    +0.009 A 
ATOM      5  C   UNL     1      -2.671   1.101   4.245  0.00  0.00    +0.002 A 
ATOM      6  C   UNL     1      -2.778   1.079   2.856  0.00  0.00    +0.023 A 
ATOM      7  C   UNL     1      -2.228   0.047   2.133  0.00  0.00    +0.038 A 
ATOM      8  C   UNL     1      -1.552  -0.990   2.809  0.00  0.00    +0.024 A 
ATOM      9  C   UNL     1      -0.978  -2.056   2.085  0.00  0.00    +0.038 A 
ATOM     10  C   UNL     1      -0.318  -3.054   2.762  0.00  0.00    +0.023 A 
ATOM     11  N   UNL     1      -1.101  -2.064   0.695  0.00  0.00    -0.322 N 
ATOM     12  C   UNL     1      -1.294  -0.774   0.010  0.00  0.00    +0.187 C 
ATOM     13  N   UNL     1      -2.320  -0.010   0.741  0.00  0.00    -0.322 N 
ATOM     14  H   UNL     1      -1.060  -2.894   0.195  0.00  0.00    +0.148 HD
ATOM     15  H   UNL     1      -3.039   0.439   0.269  0.00  0.00    +0.148 HD
ENDROOT
BRANCH  12  16
ATOM     16  C   UNL     1       0.002  -0.004   0.002  0.00  0.00    -0.006 A 
ATOM     17  C   UNL     1       1.207  -0.682  -0.013  0.00  0.00    +0.011 A 
ATOM     18  C   UNL     1       2.398   0.019  -0.020  0.00  0.00    +0.049 A 
ATOM     19  C   UNL     1       2.386   1.405  -0.013  0.00  0.00    +0.158 A 
ATOM     20  C   UNL     1       1.174   2.087   0.002  0.00  0.00    +0.159 A 
ATOM     21  C   UNL     1      -0.017   1.378   0.010  0.00  0.00    +0.056 A 
BRANCH  20  22
ATOM     22  O   UNL     1       1.157   3.447   0.010  0.00  0.00    -0.503 OA
ATOM     23  H   UNL     1       1.161   3.835   0.896  0.00  0.00    +0.292 HD
ENDBRANCH  20  22
BRANCH  19  24
ATOM     24  O   UNL     1       3.557   2.096  -0.020  0.00  0.00    -0.503 OA
ATOM     25  H   UNL     1       3.888   2.301  -0.906  0.00  0.00    +0.292 HD
ENDBRANCH  19  24
ENDBRANCH  12  16
TORSDOF 3
