REMARK  Name = ZINC13626591
REMARK  10 active torsions:
REMARK  status: ('A' for Active; 'I' for Inactive)
REMARK    1  A    between atoms: C_1  and  C_2
REMARK    2  A    between atoms: C_2  and  N_3
REMARK    3  A    between atoms: C_5  and  C_17
REMARK    4  A    between atoms: N_19  and  C_20
REMARK    5  A    between atoms: C_20  and  C_21
REMARK    6  A    between atoms: C_21  and  C_22
REMARK    7  A    between atoms: N_24  and  C_25
REMARK    8  A    between atoms: C_25  and  C_27
REMARK    9  A    between atoms: C_25  and  C_28
REMARK   10  A    between atoms: C_28  and  C_29
REMARK                            x       y       z     vdW  Elec       q    Type
REMARK                         _______ _______ _______ _____ _____    ______ ____
ROOT
ATOM      1  C   UNL     1       4.891   1.093  -0.039  0.00  0.00    +0.249 C 
ATOM      2  O   UNL     1       4.908  -0.123  -0.045  0.00  0.00    -0.270 OA
ATOM      3  N   UNL     1       3.715   1.751  -0.024  0.00  0.00    -0.311 N 
ATOM      4  H   UNL     1       3.702   2.721  -0.019  0.00  0.00    +0.149 HD
ENDROOT
BRANCH   1   7
ATOM      5  N   UNL     1       7.280   3.944  -0.047  0.00  0.00    -0.346 N 
ATOM      6  C   UNL     1       6.149   3.225  -0.039  0.00  0.00    +0.103 A 
ATOM      7  C   UNL     1       6.155   1.846  -0.047  0.00  0.00    +0.100 A 
ATOM      8  C   UNL     1       7.446   1.140  -0.057  0.00  0.00    +0.202 A 
ATOM      9  O   UNL     1       7.504  -0.078  -0.058  0.00  0.00    -0.286 OA
ATOM     10  C   UNL     1       8.666   1.965  -0.071  0.00  0.00    +0.050 A 
ATOM     11  C   UNL     1       8.532   3.365  -0.064  0.00  0.00    +0.056 A 
ATOM     12  C   UNL     1       9.674   4.159  -0.074  0.00  0.00    +0.076 A 
ATOM     13  C   UNL     1      10.927   3.572  -0.090  0.00  0.00    +0.168 A 
ATOM     14  C   UNL     1      11.056   2.179  -0.096  0.00  0.00    +0.167 A 
ATOM     15  C   UNL     1       9.933   1.379  -0.087  0.00  0.00    +0.063 A 
ATOM     16  O   UNL     1      12.386   1.866  -0.112  0.00  0.00    -0.453 OA
ATOM     17  C   UNL     1      13.057   3.068  -0.530  0.00  0.00    +0.466 C 
ATOM     18  O   UNL     1      12.175   4.122  -0.103  0.00  0.00    -0.453 OA
BRANCH   5  20
ATOM     19  C   UNL     1       7.259   5.931  -1.472  0.00  0.00    +0.027 C 
ATOM     20  C   UNL     1       7.182   5.405  -0.038  0.00  0.00    +0.118 C 
ENDBRANCH   5  20
ENDBRANCH   1   7
BRANCH   3  21
ATOM     21  C   UNL     1       2.457   1.002  -0.016  0.00  0.00    +0.113 C 
BRANCH  21  22
ATOM     22  C   UNL     1       1.280   1.980   0.001  0.00  0.00    +0.114 C 
BRANCH  22  23
ATOM     23  C   UNL     1      -0.014   1.209   0.009  0.00  0.00    +0.215 C 
ATOM     24  O   UNL     1       0.002  -0.004   0.002  0.00  0.00    -0.276 OA
ATOM     25  N   UNL     1      -1.191   1.867   0.018  0.00  0.00    -0.312 N 
ATOM     26  H   UNL     1      -1.204   2.837   0.023  0.00  0.00    +0.149 HD
BRANCH  25  27
ATOM     27  C   UNL     1      -2.449   1.117   0.020  0.00  0.00    +0.074 C 
ATOM     28  C   UNL     1      -2.816   0.740   1.456  0.00  0.00    +0.028 C 
BRANCH  27  29
ATOM     29  C   UNL     1      -3.559   1.982  -0.580  0.00  0.00    +0.059 C 
BRANCH  29  30
ATOM     30  C   UNL     1      -3.258   2.251  -2.032  0.00  0.00    -0.021 A 
ATOM     31  C   UNL     1      -2.640   3.333  -2.532  0.00  0.00    +0.087 A 
ATOM     32  N   UNL     1      -2.541   3.227  -3.892  0.00  0.00    -0.360 N 
ATOM     33  H   UNL     1      -2.132   3.886  -4.475  0.00  0.00    +0.165 HD
ATOM     34  C   UNL     1      -3.114   2.047  -4.313  0.00  0.00    +0.047 A 
ATOM     35  C   UNL     1      -3.588   1.385  -3.166  0.00  0.00    +0.003 A 
ATOM     36  C   UNL     1      -4.223   0.148  -3.288  0.00  0.00    +0.010 A 
ATOM     37  C   UNL     1      -4.381  -0.414  -4.524  0.00  0.00    +0.001 A 
ATOM     38  C   UNL     1      -3.916   0.236  -5.659  0.00  0.00    +0.002 A 
ATOM     39  C   UNL     1      -3.286   1.457  -5.560  0.00  0.00    +0.026 A 
ENDBRANCH  29  30
ENDBRANCH  27  29
ENDBRANCH  25  27
ENDBRANCH  22  23
ENDBRANCH  21  22
ENDBRANCH   3  21
TORSDOF 8
