REMARK  Name = ZINC55869161
REMARK  10 active torsions:
REMARK  status: ('A' for Active; 'I' for Inactive)
REMARK    1  A    between atoms: C_1  and  C_2
REMARK    2  A    between atoms: C_2  and  N_3
REMARK    3  A    between atoms: N_3  and  C_4
REMARK    4  A    between atoms: N_3  and  C_6
REMARK    5  A    between atoms: C_4  and  C_5
REMARK    6  A    between atoms: C_6  and  C_7
REMARK    7  A    between atoms: C_12  and  N_13
REMARK    8  A    between atoms: N_13  and  C_14
REMARK    9  A    between atoms: C_14  and  C_15
REMARK   10  A    between atoms: C_28  and  C_30
REMARK                            x       y       z     vdW  Elec       q    Type
REMARK                         _______ _______ _______ _____ _____    ______ ____
ROOT
ATOM      1  C   UNL     1      -1.342  -1.639   5.309  0.00  0.00    +0.198 C 
ENDROOT
BRANCH   1   2
ATOM      2  C   UNL     1      -2.780  -1.353   4.960  0.00  0.00    +0.237 C 
ATOM      3  O   UNL     1      -3.118  -1.275   3.797  0.00  0.00    -0.274 OA
ATOM      4  N   UNL     1      -3.690  -1.182   5.939  0.00  0.00    -0.265 N 
ATOM      5  C   UNL     1      -3.313  -1.262   7.287  0.00  0.00    +0.058 A 
ATOM      6  C   UNL     1      -2.990  -2.482   7.858  0.00  0.00    +0.025 A 
ATOM      7  C   UNL     1      -2.642  -2.545   9.195  0.00  0.00    +0.002 A 
ATOM      8  C   UNL     1      -2.617  -1.396   9.963  0.00  0.00    +0.002 A 
ATOM      9  C   UNL     1      -2.929  -0.173   9.399  0.00  0.00    +0.025 A 
ATOM     10  C   UNL     1      -3.268  -0.100   8.057  0.00  0.00    +0.055 A 
ATOM     11  N   UNL     1      -3.533   1.133   7.450  0.00  0.00    -0.284 N 
ATOM     12  C   UNL     1      -4.629   1.293   6.677  0.00  0.00    +0.219 C 
ATOM     13  O   UNL     1      -4.804   2.340   6.090  0.00  0.00    -0.275 OA
ATOM     14  C   UNL     1      -5.636   0.182   6.539  0.00  0.00    +0.118 C 
ATOM     15  C   UNL     1      -5.090  -0.902   5.614  0.00  0.00    +0.087 C 
ATOM     16  C   UNL     1      -5.917  -2.178   5.791  0.00  0.00    +0.029 C 
ATOM     17  H   UNL     1      -2.926   1.877   7.586  0.00  0.00    +0.155 HD
ENDBRANCH   1   2
BRANCH   1  18
ATOM     18  N   UNL     1      -0.560  -1.783   4.079  0.00  0.00    -0.335 N 
ATOM     19  H   UNL     1      -0.992  -1.690   3.216  0.00  0.00    +0.147 HD
BRANCH  18  25
ATOM     20  C   UNL     1       1.572  -2.084   2.990  0.00  0.00    -0.043 A 
ATOM     21  C   UNL     1       2.926  -2.346   3.063  0.00  0.00    +0.003 A 
ATOM     22  C   UNL     1       3.520  -2.585   4.289  0.00  0.00    +0.000 A 
ATOM     23  C   UNL     1       2.762  -2.561   5.445  0.00  0.00    +0.002 A 
ATOM     24  C   UNL     1       1.407  -2.299   5.379  0.00  0.00    +0.023 A 
ATOM     25  C   UNL     1       0.808  -2.053   4.149  0.00  0.00    +0.029 A 
BRANCH  20  26
ATOM     26  C   UNL     1       0.926  -1.825   1.653  0.00  0.00    -0.041 C 
BRANCH  26  27
ATOM     27  N   UNL     1       0.654  -0.388   1.511  0.00  0.00    +0.382 N 
ATOM     28  H   UNL     1       0.099  -0.072   2.293  0.00  0.00    -0.081 HD
BRANCH  27  30
ATOM     29  C   UNL     1       1.640   1.853   1.459  0.00  0.00    -0.017 C 
ATOM     30  C   UNL     1       1.924   0.350   1.482  0.00  0.00    -0.082 C 
ENDBRANCH  27  30
BRANCH  27  31
ATOM     31  C   UNL     1      -0.080  -0.150   0.261  0.00  0.00    -0.082 C 
ATOM     32  C   UNL     1      -1.459  -0.807   0.347  0.00  0.00    -0.017 C 
ENDBRANCH  27  31
ENDBRANCH  26  27
ENDBRANCH  20  26
ENDBRANCH  18  25
ENDBRANCH   1  18
TORSDOF 7
