REMARK  Name = ZINC43236746
REMARK  7 active torsions:
REMARK  status: ('A' for Active; 'I' for Inactive)
REMARK    1  A    between atoms: C_1  and  C_2
REMARK    2  A    between atoms: C_2  and  C_4
REMARK    3  A    between atoms: C_2  and  N_14
REMARK    4  A    between atoms: N_17  and  C_18
REMARK    5  A    between atoms: N_17  and  C_19
REMARK    6  A    between atoms: C_19  and  C_20
REMARK    7  A    between atoms: C_23  and  C_26
REMARK                            x       y       z     vdW  Elec       q    Type
REMARK                         _______ _______ _______ _____ _____    ______ ____
ROOT
ATOM      1  N   UNL     1      -1.314  -0.642   0.092  0.00  0.00    -0.293 N 
ATOM      2  C   UNL     1      -1.955  -0.699   1.276  0.00  0.00    +0.303 C 
ATOM      3  O   UNL     1      -1.441  -0.222   2.270  0.00  0.00    -0.253 OA
ATOM      4  N   UNL     1      -3.166  -1.286   1.359  0.00  0.00    -0.284 N 
ATOM      5  C   UNL     1      -3.785  -1.861   0.163  0.00  0.00    +0.134 C 
ATOM      6  H   UNL     1      -1.724  -1.022  -0.700  0.00  0.00    +0.151 HD
ENDROOT
BRANCH   1   8
ATOM      7  C   UNL     1      -0.174   1.498  -0.231  0.00  0.00    +0.033 C 
ATOM      8  C   UNL     1       0.002  -0.004   0.002  0.00  0.00    +0.102 C 
BRANCH   8   9
ATOM      9  C   UNL     1       0.773  -0.604  -1.146  0.00  0.00    -0.020 A 
ATOM     10  C   UNL     1       0.112  -1.147  -2.205  0.00  0.00    +0.006 A 
ATOM     11  C   UNL     1       0.808  -1.705  -3.275  0.00  0.00    +0.001 A 
ATOM     12  C   UNL     1       2.169  -1.725  -3.292  0.00  0.00    +0.008 A 
ATOM     13  C   UNL     1       2.886  -1.175  -2.216  0.00  0.00    -0.018 A 
ATOM     14  C   UNL     1       2.178  -0.600  -1.131  0.00  0.00    -0.013 A 
ATOM     15  C   UNL     1       2.896  -0.044  -0.058  0.00  0.00    +0.009 A 
ATOM     16  C   UNL     1       4.256  -0.059  -0.078  0.00  0.00    +0.001 A 
ATOM     17  C   UNL     1       4.952  -0.618  -1.148  0.00  0.00    +0.001 A 
ATOM     18  C   UNL     1       4.291  -1.177  -2.198  0.00  0.00    +0.008 A 
ENDBRANCH   8   9
ENDBRANCH   1   8
BRANCH   4  19
ATOM     19  C   UNL     1      -3.862  -1.349   2.647  0.00  0.00    +0.144 C 
BRANCH  19  20
ATOM     20  C   UNL     1      -4.724  -0.123   2.811  0.00  0.00    -0.030 A 
ATOM     21  C   UNL     1      -4.201   1.012   3.405  0.00  0.00    +0.006 A 
ATOM     22  C   UNL     1      -4.984   2.137   3.559  0.00  0.00    +0.019 A 
ATOM     23  C   UNL     1      -6.308   2.128   3.114  0.00  0.00    +0.052 A 
ATOM     24  C   UNL     1      -6.829   0.979   2.515  0.00  0.00    +0.019 A 
ATOM     25  C   UNL     1      -6.033  -0.137   2.363  0.00  0.00    +0.006 A 
BRANCH  23  26
ATOM     26  C   UNL     1      -7.127   3.292   3.271  0.00  0.00    +0.099 C 
ATOM     27  N   UNL     1      -7.777   4.216   3.396  0.00  0.00    -0.191 NA
ENDBRANCH  23  26
ENDBRANCH  19  20
ENDBRANCH   4  19
TORSDOF 5
