REMARK  Name = ZINC39634400
REMARK  7 active torsions:
REMARK  status: ('A' for Active; 'I' for Inactive)
REMARK    1  A    between atoms: C_1  and  C_2
REMARK    2  A    between atoms: C_5  and  C_8
REMARK    3  A    between atoms: C_8  and  N_9
REMARK    4  A    between atoms: C_10  and  C_12
REMARK    5  A    between atoms: C_23  and  C_25
REMARK    6  A    between atoms: C_28  and  O_31
REMARK    7  A    between atoms: O_31  and  C_32
REMARK                            x       y       z     vdW  Elec       q    Type
REMARK                         _______ _______ _______ _____ _____    ______ ____
ROOT
ATOM      1  C   UNL     1       4.135  -6.279   0.107  0.00  0.00    +0.100 C 
ATOM      2  C   UNL     1       4.569  -5.752   1.493  0.00  0.00    +0.121 C 
ATOM      3  N   UNL     1       4.331  -6.886   2.417  0.00  0.00    -0.296 N 
ATOM      4  C   UNL     1       4.748  -8.082   1.647  0.00  0.00    +0.115 C 
ATOM      5  C   UNL     1       4.257  -7.809   0.211  0.00  0.00    -0.004 C 
ATOM      6  C   UNL     1       2.897  -8.463  -0.014  0.00  0.00    -0.010 C 
ATOM      7  C   UNL     1       3.054  -9.986   0.037  0.00  0.00    -0.082 C 
ATOM      8  N   UNL     1       4.005 -10.416  -0.996  0.00  0.00    +0.379 N 
ATOM      9  C   UNL     1       5.333  -9.856  -0.719  0.00  0.00    -0.082 C 
ATOM     10  C   UNL     1       5.272  -8.328  -0.802  0.00  0.00    -0.010 C 
ATOM     11  C   UNL     1       3.846  -6.840   3.674  0.00  0.00    +0.248 C 
ATOM     12  O   UNL     1       3.425  -5.793   4.125  0.00  0.00    -0.270 OA
ATOM     13  H   UNL     1       4.061 -11.424  -1.000  0.00  0.00    -0.086 HD
ATOM     14  H   UNL     1       3.687 -10.096  -1.898  0.00  0.00    -0.086 HD
ENDROOT
BRANCH  11  15
ATOM     15  C   UNL     1       3.826  -8.062   4.502  0.00  0.00    +0.055 A 
ATOM     16  C   UNL     1       4.652  -9.151   4.185  0.00  0.00    +0.020 A 
ATOM     17  C   UNL     1       4.597 -10.270   4.989  0.00  0.00    +0.068 A 
ATOM     18  C   UNL     1       3.732 -10.284   6.079  0.00  0.00    +0.220 A 
ATOM     19  N   UNL     1       2.964  -9.240   6.352  0.00  0.00    -0.220 NA
ATOM     20  C   UNL     1       2.989  -8.149   5.615  0.00  0.00    +0.127 A 
BRANCH  18  21
ATOM     21  O   UNL     1       3.674 -11.381   6.872  0.00  0.00    -0.438 OA
BRANCH  21  22
ATOM     22  C   UNL     1       2.892 -11.325   7.982  0.00  0.00    +0.130 A 
ATOM     23  C   UNL     1       1.517 -11.479   7.872  0.00  0.00    +0.046 A 
ATOM     24  C   UNL     1       0.725 -11.422   9.002  0.00  0.00    +0.004 A 
ATOM     25  C   UNL     1       1.300 -11.211  10.242  0.00  0.00    +0.000 A 
ATOM     26  C   UNL     1       2.669 -11.057  10.354  0.00  0.00    +0.004 A 
ATOM     27  C   UNL     1       3.467 -11.119   9.228  0.00  0.00    +0.046 A 
ENDBRANCH  21  22
ENDBRANCH  18  21
ENDBRANCH  11  15
BRANCH   1  29
ATOM     28  N   UNL     1       2.296  -5.736  -1.455  0.00  0.00    -0.311 N 
ATOM     29  C   UNL     1       2.710  -5.884  -0.181  0.00  0.00    +0.218 C 
ATOM     30  O   UNL     1       1.935  -5.700   0.733  0.00  0.00    -0.275 OA
ATOM     31  H   UNL     1       2.916  -5.884  -2.187  0.00  0.00    +0.149 HD
BRANCH  28  32
ATOM     32  C   UNL     1       0.911  -5.353  -1.736  0.00  0.00    +0.139 C 
BRANCH  32  37
ATOM     33  C   UNL     1       0.131  -4.981  -7.450  0.00  0.00    +0.044 C 
ATOM     34  C   UNL     1       0.334  -5.078  -5.960  0.00  0.00    -0.050 A 
ATOM     35  C   UNL     1       0.115  -6.278  -5.309  0.00  0.00    +0.003 A 
ATOM     36  C   UNL     1       0.302  -6.367  -3.942  0.00  0.00    +0.005 A 
ATOM     37  C   UNL     1       0.708  -5.256  -3.226  0.00  0.00    -0.030 A 
ATOM     38  C   UNL     1       0.928  -4.056  -3.877  0.00  0.00    +0.005 A 
ATOM     39  C   UNL     1       0.745  -3.969  -5.245  0.00  0.00    +0.003 A 
ENDBRANCH  32  37
ENDBRANCH  28  32
ENDBRANCH   1  29
TORSDOF 6
