REMARK  Name = ZINC60015768
REMARK  11 active torsions:
REMARK  status: ('A' for Active; 'I' for Inactive)
REMARK    1  A    between atoms: C_1  and  C_2
REMARK    2  A    between atoms: C_5  and  C_36
REMARK    3  A    between atoms: N_8  and  C_10
REMARK    4  A    between atoms: C_10  and  C_11
REMARK    5  A    between atoms: C_11  and  C_13
REMARK    6  A    between atoms: C_11  and  N_14
REMARK    7  A    between atoms: C_15  and  C_17
REMARK    8  A    between atoms: C_20  and  O_23
REMARK    9  A    between atoms: O_23  and  S_24
REMARK   10  A    between atoms: S_24  and  C_27
REMARK   11  A    between atoms: C_31  and  N_33
REMARK                            x       y       z     vdW  Elec       q    Type
REMARK                         _______ _______ _______ _____ _____    ______ ____
ROOT
ATOM      1  C   UNL     1       1.145   3.878   3.934  0.00  0.00    +0.037 A 
ATOM      2  C   UNL     1       2.086   4.500   3.108  0.00  0.00    +0.017 A 
ATOM      3  C   UNL     1       2.057   5.866   2.941  0.00  0.00    +0.049 A 
ATOM      4  C   UNL     1       1.094   6.627   3.593  0.00  0.00    +0.157 A 
ATOM      5  C   UNL     1       0.157   6.013   4.416  0.00  0.00    +0.049 A 
ATOM      6  C   UNL     1       0.176   4.647   4.583  0.00  0.00    +0.017 A 
ENDROOT
BRANCH   1   8
ATOM      7  N   UNL     1       2.109   1.674   3.488  0.00  0.00    -0.311 N 
ATOM      8  C   UNL     1       1.173   2.414   4.115  0.00  0.00    +0.244 C 
ATOM      9  O   UNL     1       0.351   1.874   4.831  0.00  0.00    -0.270 OA
ATOM     10  H   UNL     1       2.765   2.105   2.918  0.00  0.00    +0.149 HD
BRANCH   7  11
ATOM     11  C   UNL     1       2.136   0.221   3.668  0.00  0.00    +0.054 C 
ATOM     12  C   UNL     1       2.924  -0.122   4.934  0.00  0.00    +0.026 C 
BRANCH  11  13
ATOM     13  C   UNL     1       2.808  -0.431   2.458  0.00  0.00    -0.057 C 
BRANCH  13  19
ATOM     14  C   UNL     1      -0.019   1.526   0.010  0.00  0.00    +0.005 C 
ATOM     15  C   UNL     1       0.002  -0.004   0.002  0.00  0.00    -0.031 C 
ATOM     16  C   UNL     1       0.721  -0.499  -1.257  0.00  0.00    +0.003 C 
ATOM     17  C   UNL     1       2.177  -0.027  -1.220  0.00  0.00    -0.031 C 
ATOM     18  C   UNL     1       2.839  -0.534   0.063  0.00  0.00    -0.076 C 
ATOM     19  N   UNL     1       2.123  -0.005   1.230  0.00  0.00    +0.381 N 
ATOM     20  C   UNL     1       0.744  -0.512   1.240  0.00  0.00    -0.076 C 
ATOM     21  C   UNL     1       2.924  -0.581  -2.434  0.00  0.00    +0.005 C 
ATOM     22  H   UNL     1       2.109   1.003   1.187  0.00  0.00    -0.082 HD
ENDBRANCH  13  19
ENDBRANCH  11  13
ENDBRANCH   7  11
ENDBRANCH   1   8
BRANCH   4  23
ATOM     23  O   UNL     1       1.069   7.974   3.426  0.00  0.00    -0.342 OA
BRANCH  23  24
ATOM     24  S   UNL     1       0.203   8.438   2.264  0.00  0.00    +0.151 S 
ATOM     25  O   UNL     1       0.451   9.828   2.102  0.00  0.00    -0.131 OA
ATOM     26  O   UNL     1       0.398   7.502   1.213  0.00  0.00    -0.131 OA
BRANCH  24  27
ATOM     27  C   UNL     1      -1.477   8.282   2.772  0.00  0.00    +0.130 A 
ATOM     28  C   UNL     1      -2.160   7.101   2.548  0.00  0.00    +0.031 A 
ATOM     29  C   UNL     1      -3.478   6.979   2.946  0.00  0.00    +0.004 A 
ATOM     30  C   UNL     1      -4.113   8.038   3.568  0.00  0.00    +0.033 A 
ATOM     31  C   UNL     1      -3.430   9.218   3.792  0.00  0.00    +0.128 A 
ATOM     32  C   UNL     1      -2.111   9.339   3.398  0.00  0.00    +0.063 A 
BRANCH  31  33
ATOM     33  N   UNL     1      -4.111  10.352   4.458  0.00  0.00    +0.056 N 
ATOM     34  O   UNL     1      -5.264  10.245   4.805  0.00  0.00    -0.126 OA
ATOM     35  O   UNL     1      -3.513  11.385   4.654  0.00  0.00    -0.126 OA
ENDBRANCH  31  33
ENDBRANCH  24  27
ENDBRANCH  23  24
ENDBRANCH   4  23
TORSDOF 8
