REMARK  Name = ZINC38984513
REMARK  6 active torsions:
REMARK  status: ('A' for Active; 'I' for Inactive)
REMARK    1  A    between atoms: C_1  and  C_2
REMARK    2  A    between atoms: C_2  and  C_3
REMARK    3  A    between atoms: C_8  and  N_9
REMARK    4  A    between atoms: N_9  and  C_10
REMARK    5  A    between atoms: N_13  and  S_14
REMARK    6  A    between atoms: S_14  and  C_17
REMARK                            x       y       z     vdW  Elec       q    Type
REMARK                         _______ _______ _______ _____ _____    ______ ____
ROOT
ATOM      1  C   UNL     1      -2.204  -0.561  -3.654  0.00  0.00    +0.237 C 
ATOM      2  C   UNL     1      -2.038   0.667  -4.520  0.00  0.00    +0.192 C 
ATOM      3  N   UNL     1      -2.441   1.830  -4.099  0.00  0.00    -0.110 NA
ATOM      4  N   UNL     1      -1.468   0.540  -5.728  0.00  0.00    -0.226 NA
ATOM      5  C   UNL     1      -1.052  -0.626  -6.176  0.00  0.00    +0.089 A 
ATOM      6  C   UNL     1      -0.454  -0.724  -7.458  0.00  0.00    +0.030 A 
ATOM      7  C   UNL     1      -0.025  -1.918  -7.923  0.00  0.00    +0.002 A 
ATOM      8  C   UNL     1      -0.142  -3.107  -7.184  0.00  0.00    +0.002 A 
ATOM      9  C   UNL     1      -0.697  -3.126  -5.952  0.00  0.00    +0.027 A 
ATOM     10  C   UNL     1      -1.188  -1.867  -5.374  0.00  0.00    +0.063 A 
ATOM     11  N   UNL     1      -1.727  -1.847  -4.188  0.00  0.00    -0.359 N 
ATOM     12  H   UNL     1      -1.812  -2.662  -3.668  0.00  0.00    +0.162 HD
ENDROOT
BRANCH   3  13
ATOM     13  S   UNL     1      -2.252   3.167  -5.057  0.00  0.00    +0.100 S 
ATOM     14  O   UNL     1      -0.853   3.388  -5.176  0.00  0.00    -0.146 OA
ATOM     15  O   UNL     1      -3.092   2.979  -6.188  0.00  0.00    -0.146 OA
BRANCH  13  16
ATOM     16  C   UNL     1      -2.905   4.541  -4.168  0.00  0.00    +0.113 A 
ATOM     17  C   UNL     1      -4.239   4.880  -4.302  0.00  0.00    +0.032 A 
ATOM     18  C   UNL     1      -4.753   5.957  -3.605  0.00  0.00    +0.040 A 
ATOM     19  C   UNL     1      -3.931   6.697  -2.772  0.00  0.00    +0.124 A 
ATOM     20  C   UNL     1      -2.595   6.358  -2.639  0.00  0.00    +0.040 A 
ATOM     21  C   UNL     1      -2.085   5.277  -3.333  0.00  0.00    +0.032 A 
ATOM     22  F   UNL     1      -4.431   7.751  -2.091  0.00  0.00    -0.205 F 
ENDBRANCH  13  16
ENDBRANCH   3  13
BRANCH   1  23
ATOM     23  N   UNL     1      -1.507  -0.315  -2.390  0.00  0.00    -0.318 N 
ATOM     24  H   UNL     1      -0.587  -0.008  -2.395  0.00  0.00    +0.148 HD
BRANCH  23  30
ATOM     25  C   UNL     1      -1.553  -0.170   0.019  0.00  0.00    -0.027 A 
ATOM     26  C   UNL     1      -2.210  -0.371   1.217  0.00  0.00    +0.005 A 
ATOM     27  C   UNL     1      -3.475  -0.929   1.228  0.00  0.00    +0.000 A 
ATOM     28  C   UNL     1      -4.087  -1.286   0.040  0.00  0.00    +0.002 A 
ATOM     29  C   UNL     1      -3.436  -1.087  -1.161  0.00  0.00    +0.023 A 
ATOM     30  C   UNL     1      -2.167  -0.523  -1.176  0.00  0.00    +0.032 A 
BRANCH  25  32
ATOM     31  C   UNL     1      -0.283   1.947  -0.211  0.00  0.00    +0.009 C 
ATOM     32  C   UNL     1      -0.173   0.437   0.008  0.00  0.00    +0.033 C 
ENDBRANCH  25  32
ENDBRANCH  23  30
ENDBRANCH   1  23
TORSDOF 5
