REMARK  Name = ZINC38700736
REMARK  11 active torsions:
REMARK  status: ('A' for Active; 'I' for Inactive)
REMARK    1  A    between atoms: C_1  and  C_2
REMARK    2  A    between atoms: C_4  and  C_37
REMARK    3  A    between atoms: C_6  and  C_36
REMARK    4  A    between atoms: C_7  and  C_11
REMARK    5  A    between atoms: C_11  and  O_13
REMARK    6  A    between atoms: O_13  and  C_14
REMARK    7  A    between atoms: C_21  and  N_35
REMARK    8  A    between atoms: C_22  and  C_33
REMARK    9  A    between atoms: C_23  and  C_25
REMARK   10  A    between atoms: C_28  and  S_31
REMARK   11  A    between atoms: S_31  and  C_32
REMARK                            x       y       z     vdW  Elec       q    Type
REMARK                         _______ _______ _______ _____ _____    ______ ____
ROOT
ATOM      1  C   UNL     1       0.151  -6.144   5.035  0.00  0.00    +0.136 A 
ATOM      2  C   UNL     1       0.171  -7.423   4.495  0.00  0.00    +0.047 A 
ATOM      3  C   UNL     1       0.153  -8.523   5.329  0.00  0.00    +0.012 A 
ATOM      4  C   UNL     1       0.114  -8.358   6.702  0.00  0.00    +0.008 A 
ATOM      5  C   UNL     1       0.094  -7.083   7.246  0.00  0.00    +0.138 A 
ATOM      6  C   UNL     1       0.119  -5.975   6.409  0.00  0.00    +0.093 A 
ATOM      7  O   UNL     1       0.056  -6.900   8.589  0.00  0.00    -0.441 OA
ATOM      8  C   UNL     1       0.418  -7.899   9.412  0.00  0.00    +0.199 C 
ATOM      9  C   UNL     1       0.457  -9.188   9.000  0.00  0.00    +0.098 C 
ATOM     10  C   UNL     1       0.093  -9.571   7.594  0.00  0.00    +0.098 C 
ENDROOT
BRANCH  10  11
ATOM     11  C   UNL     1      -1.288 -10.175   7.582  0.00  0.00    -0.035 A 
ATOM     12  C   UNL     1      -2.372  -9.425   8.000  0.00  0.00    +0.005 A 
ATOM     13  C   UNL     1      -3.639  -9.975   7.991  0.00  0.00    +0.015 A 
ATOM     14  C   UNL     1      -3.823 -11.284   7.562  0.00  0.00    +0.008 A 
ATOM     15  C   UNL     1      -2.731 -12.034   7.142  0.00  0.00    +0.015 A 
ATOM     16  C   UNL     1      -1.468 -11.476   7.149  0.00  0.00    +0.005 A 
BRANCH  14  17
ATOM     17  S   UNL     1      -5.437 -11.991   7.550  0.00  0.00    -0.129 S 
ATOM     18  C   UNL     1      -5.175 -13.674   6.925  0.00  0.00    +0.090 C 
ENDBRANCH  14  17
ENDBRANCH  10  11
BRANCH   8  19
ATOM     19  N   UNL     1       0.761  -7.602  10.707  0.00  0.00    -0.328 N 
ATOM     20  H   UNL     1       0.738  -6.683  11.017  0.00  0.00    +0.145 HD
ATOM     21  H   UNL     1       1.025  -8.312  11.313  0.00  0.00    +0.145 HD
ENDBRANCH   8  19
BRANCH   9  22
ATOM     22  C   UNL     1       0.854 -10.208   9.924  0.00  0.00    +0.101 C 
ATOM     23  N   UNL     1       1.168 -11.016  10.658  0.00  0.00    -0.191 NA
ENDBRANCH   9  22
BRANCH   1  24
ATOM     24  O   UNL     1       0.170  -5.059   4.216  0.00  0.00    -0.420 OA
BRANCH  24  25
ATOM     25  C   UNL     1       1.294  -4.316   4.174  0.00  0.00    +0.380 C 
ATOM     26  O   UNL     1       2.284  -4.677   4.781  0.00  0.00    -0.241 OA
BRANCH  25  33
ATOM     27  C   UNL     1      -0.175   1.551  -0.103  0.00  0.00    +0.044 C 
ATOM     28  C   UNL     1       0.575   0.595   0.789  0.00  0.00    -0.047 A 
ATOM     29  C   UNL     1       1.896   0.863   1.125  0.00  0.00    +0.007 A 
ATOM     30  C   UNL     1       2.591   0.008   1.932  0.00  0.00    -0.039 A 
ATOM     31  C   UNL     1       1.968  -1.143   2.422  0.00  0.00    +0.027 A 
ATOM     32  C   UNL     1       2.396  -2.244   3.284  0.00  0.00    +0.010 A 
ATOM     33  C   UNL     1       1.323  -3.071   3.397  0.00  0.00    +0.216 A 
ATOM     34  O   UNL     1       0.288  -2.574   2.687  0.00  0.00    -0.448 OA
ATOM     35  C   UNL     1       0.630  -1.418   2.086  0.00  0.00    +0.137 A 
ATOM     36  C   UNL     1      -0.059  -0.531   1.266  0.00  0.00    +0.050 A 
ATOM     37  C   UNL     1       3.751  -2.427   3.916  0.00  0.00    +0.048 C 
ATOM     38  C   UNL     1       4.025   0.304   2.291  0.00  0.00    +0.044 C 
ENDBRANCH  25  33
ENDBRANCH  24  25
ENDBRANCH   1  24
TORSDOF 7
