REMARK  Name = ZINC36049719
REMARK  11 active torsions:
REMARK  status: ('A' for Active; 'I' for Inactive)
REMARK    1  A    between atoms: C_1  and  C_2
REMARK    2  A    between atoms: C_6  and  N_8
REMARK    3  A    between atoms: C_10  and  C_29
REMARK    4  A    between atoms: C_14  and  C_16
REMARK    5  A    between atoms: C_16  and  N_17
REMARK    6  A    between atoms: N_17  and  C_18
REMARK    7  A    between atoms: C_18  and  C_19
REMARK    8  A    between atoms: N_24  and  C_25
REMARK    9  A    between atoms: C_25  and  C_26
REMARK   10  A    between atoms: C_25  and  C_27
REMARK   11  A    between atoms: C_25  and  C_28
REMARK                            x       y       z     vdW  Elec       q    Type
REMARK                         _______ _______ _______ _____ _____    ______ ____
ROOT
ATOM      1  N   UNL     1       0.052  -2.798   2.395  0.00  0.00    -0.287 N 
ATOM      2  C   UNL     1       0.897  -2.583   3.456  0.00  0.00    +0.122 A 
ATOM      3  C   UNL     1       0.567  -3.488   4.411  0.00  0.00    +0.091 A 
ATOM      4  N   UNL     1      -0.455  -4.237   3.942  0.00  0.00    -0.214 NA
ATOM      5  C   UNL     1      -0.774  -3.828   2.740  0.00  0.00    +0.207 A 
ATOM      6  N   UNL     1      -1.782  -4.357   1.946  0.00  0.00    -0.254 N 
ATOM      7  C   UNL     1      -2.533  -5.379   2.402  0.00  0.00    +0.237 C 
ATOM      8  O   UNL     1      -2.327  -5.836   3.506  0.00  0.00    -0.274 OA
ATOM      9  H   UNL     1      -1.946  -3.991   1.062  0.00  0.00    +0.158 HD
ENDROOT
BRANCH   1  15
ATOM     10  C   UNL     1      -0.018   1.503   0.010  0.00  0.00    +0.044 C 
ATOM     11  C   UNL     1       0.002  -0.004   0.002  0.00  0.00    -0.048 A 
ATOM     12  C   UNL     1       0.006  -0.688  -1.200  0.00  0.00    +0.003 A 
ATOM     13  C   UNL     1       0.025  -2.071  -1.212  0.00  0.00    +0.002 A 
ATOM     14  C   UNL     1       0.040  -2.773  -0.022  0.00  0.00    +0.026 A 
ATOM     15  C   UNL     1       0.036  -2.089   1.186  0.00  0.00    +0.049 A 
ATOM     16  C   UNL     1       0.023  -0.700   1.194  0.00  0.00    +0.029 A 
ENDBRANCH   1  15
BRANCH   3  17
ATOM     17  C   UNL     1       1.214  -3.631   5.738  0.00  0.00    +0.002 A 
ATOM     18  C   UNL     1       2.261  -2.784   6.100  0.00  0.00    +0.010 A 
ATOM     19  C   UNL     1       2.860  -2.922   7.336  0.00  0.00    +0.001 A 
ATOM     20  C   UNL     1       2.424  -3.898   8.214  0.00  0.00    +0.000 A 
ATOM     21  C   UNL     1       1.386  -4.741   7.860  0.00  0.00    +0.001 A 
ATOM     22  C   UNL     1       0.775  -4.608   6.630  0.00  0.00    +0.010 A 
ENDBRANCH   3  17
BRANCH   7  23
ATOM     23  C   UNL     1      -3.627  -5.954   1.540  0.00  0.00    +0.205 C 
BRANCH  23  24
ATOM     24  N   UNL     1      -4.291  -7.045   2.257  0.00  0.00    -0.277 N 
ATOM     25  C   UNL     1      -3.838  -8.308   2.131  0.00  0.00    +0.303 C 
ATOM     26  O   UNL     1      -2.878  -8.542   1.422  0.00  0.00    -0.253 OA
ATOM     27  N   UNL     1      -4.449  -9.313   2.790  0.00  0.00    -0.294 N 
ATOM     28  H   UNL     1      -5.214  -9.126   3.356  0.00  0.00    +0.151 HD
BRANCH  27  29
ATOM     29  C   UNL     1      -3.956 -10.685   2.653  0.00  0.00    +0.028 C 
ATOM     30  C   UNL     1      -2.505 -10.757   3.132  0.00  0.00    +0.031 C 
ATOM     31  C   UNL     1      -4.819 -11.624   3.498  0.00  0.00    +0.031 C 
ATOM     32  C   UNL     1      -4.029 -11.109   1.185  0.00  0.00    +0.031 C 
ENDBRANCH  27  29
BRANCH  24  33
ATOM     33  C   UNL     1      -5.448  -6.764   3.111  0.00  0.00    +0.113 C 
BRANCH  33  34
ATOM     34  C   UNL     1      -6.730  -6.870   2.284  0.00  0.00    +0.006 C 
ATOM     35  C   UNL     1      -7.567  -5.600   2.113  0.00  0.00    +0.005 C 
ATOM     36  C   UNL     1      -8.062  -6.725   3.024  0.00  0.00    +0.005 C 
ENDBRANCH  33  34
ENDBRANCH  24  33
ENDBRANCH  23  24
ENDBRANCH   7  23
TORSDOF 7
