REMARK  Name = ZINC63633318
REMARK  3 active torsions:
REMARK  status: ('A' for Active; 'I' for Inactive)
REMARK    1  A    between atoms: C_4  and  C_7
REMARK    2  A    between atoms: C_8  and  C_9
REMARK    3  A    between atoms: N_17  and  C_18
REMARK                            x       y       z     vdW  Elec       q    Type
REMARK                         _______ _______ _______ _____ _____    ______ ____
ROOT
ATOM      1  C   UNL     1       5.033  -2.743  -0.063  0.00  0.00    +0.021 C 
ATOM      2  C   UNL     1       5.117  -3.572  -1.345  0.00  0.00    +0.033 C 
ATOM      3  C   UNL     1       3.917  -4.520  -1.369  0.00  0.00    +0.115 C 
ATOM      4  C   UNL     1       4.068  -5.415  -0.145  0.00  0.00    +0.029 C 
ATOM      5  C   UNL     1       3.727  -6.649  -0.559  0.00  0.00    +0.093 C 
ATOM      6  N   UNL     1       3.517  -6.662  -1.906  0.00  0.00    -0.281 N 
ATOM      7  N   UNL     1       3.967  -5.479  -2.486  0.00  0.00    -0.182 NA
ATOM      8  C   UNL     1       4.591  -4.965   1.065  0.00  0.00    +0.163 C 
ATOM      9  O   UNL     1       4.600  -5.707   2.026  0.00  0.00    -0.292 OA
ATOM     10  C   UNL     1       5.142  -3.579   1.197  0.00  0.00    +0.087 C 
ATOM     11  H   UNL     1       3.102  -7.390  -2.396  0.00  0.00    +0.166 HD
ENDROOT
BRANCH   7  12
ATOM     12  C   UNL     1       3.101  -5.046  -3.590  0.00  0.00    +0.269 C 
ATOM     13  N   UNL     1       3.563  -3.756  -4.118  0.00  0.00    -0.350 N 
ATOM     14  C   UNL     1       2.595  -2.900  -3.959  0.00  0.00    +0.061 A 
ATOM     15  C   UNL     1       2.460  -1.473  -4.284  0.00  0.00    +0.027 A 
ATOM     16  C   UNL     1       1.310  -0.832  -3.996  0.00  0.00    +0.002 A 
ATOM     17  C   UNL     1       0.215  -1.473  -3.389  0.00  0.00    +0.002 A 
ATOM     18  C   UNL     1       0.234  -2.777  -3.049  0.00  0.00    +0.027 A 
ATOM     19  C   UNL     1       1.437  -3.579  -3.317  0.00  0.00    +0.061 A 
ATOM     20  N   UNL     1       1.733  -4.828  -3.103  0.00  0.00    -0.350 N 
ATOM     21  H   UNL     1       4.431  -3.574  -4.511  0.00  0.00    +0.163 HD
ATOM     22  H   UNL     1       1.156  -5.493  -2.696  0.00  0.00    +0.163 HD
ENDBRANCH   7  12
BRANCH   1  24
ATOM     23  C   UNL     1       3.695  -0.685  -0.038  0.00  0.00    +0.004 C 
ATOM     24  C   UNL     1       3.716  -2.010  -0.046  0.00  0.00    -0.022 C 
BRANCH  23  28
ATOM     25  C   UNL     1      -0.017   1.379   0.010  0.00  0.00    +0.000 A 
ATOM     26  C   UNL     1       1.168   2.093   0.002  0.00  0.00    +0.001 A 
ATOM     27  C   UNL     1       2.377   1.429  -0.013  0.00  0.00    +0.008 A 
ATOM     28  C   UNL     1       2.403   0.034  -0.021  0.00  0.00    -0.025 A 
ATOM     29  C   UNL     1       1.204  -0.681  -0.013  0.00  0.00    +0.008 A 
ATOM     30  C   UNL     1       0.002  -0.004   0.002  0.00  0.00    +0.001 A 
ENDBRANCH  23  28
ENDBRANCH   1  24
TORSDOF 3
