REMARK  Name = ZINC39694970
REMARK  5 active torsions:
REMARK  status: ('A' for Active; 'I' for Inactive)
REMARK    1  A    between atoms: C_1  and  C_2
REMARK    2  A    between atoms: C_3  and  C_9
REMARK    3  A    between atoms: C_9  and  N_10
REMARK    4  A    between atoms: C_11  and  C_13
REMARK    5  A    between atoms: C_24  and  C_26
REMARK                            x       y       z     vdW  Elec       q    Type
REMARK                         _______ _______ _______ _____ _____    ______ ____
ROOT
ATOM      1  C   UNL     1       2.757   1.900  -4.106  0.00  0.00    +0.100 C 
ATOM      2  C   UNL     1       3.290   2.983  -3.141  0.00  0.00    +0.121 C 
ATOM      3  N   UNL     1       4.118   3.869  -3.992  0.00  0.00    -0.296 N 
ATOM      4  C   UNL     1       3.360   3.973  -5.263  0.00  0.00    +0.115 C 
ATOM      5  C   UNL     1       2.804   2.554  -5.497  0.00  0.00    -0.004 C 
ATOM      6  C   UNL     1       3.733   1.769  -6.418  0.00  0.00    -0.010 C 
ATOM      7  C   UNL     1       3.720   2.404  -7.811  0.00  0.00    -0.082 C 
ATOM      8  N   UNL     1       2.351   2.397  -8.341  0.00  0.00    +0.379 N 
ATOM      9  C   UNL     1       1.483   3.230  -7.500  0.00  0.00    -0.082 C 
ATOM     10  C   UNL     1       1.402   2.630  -6.094  0.00  0.00    -0.010 C 
ATOM     11  C   UNL     1       5.293   4.450  -3.682  0.00  0.00    +0.247 C 
ATOM     12  O   UNL     1       5.812   5.227  -4.461  0.00  0.00    -0.270 OA
ATOM     13  H   UNL     1       2.354   2.760  -9.283  0.00  0.00    -0.086 HD
ATOM     14  H   UNL     1       2.000   1.451  -8.350  0.00  0.00    -0.086 HD
ENDROOT
BRANCH  11  15
ATOM     15  C   UNL     1       5.952   4.143  -2.396  0.00  0.00    +0.045 A 
ATOM     16  C   UNL     1       5.230   4.222  -1.200  0.00  0.00    +0.014 A 
ATOM     17  C   UNL     1       5.842   3.936   0.001  0.00  0.00    +0.001 A 
ATOM     18  C   UNL     1       7.178   3.567   0.038  0.00  0.00    +0.012 A 
ATOM     19  C   UNL     1       7.913   3.483  -1.138  0.00  0.00    +0.031 A 
ATOM     20  C   UNL     1       7.301   3.766  -2.370  0.00  0.00    +0.006 A 
ATOM     21  C   UNL     1       8.303   3.593  -3.451  0.00  0.00    -0.006 A 
ATOM     22  C   UNL     1       8.218   3.750  -4.828  0.00  0.00    +0.009 A 
ATOM     23  C   UNL     1       9.329   3.519  -5.623  0.00  0.00    +0.001 A 
ATOM     24  C   UNL     1      10.527   3.131  -5.055  0.00  0.00    +0.001 A 
ATOM     25  C   UNL     1      10.629   2.969  -3.683  0.00  0.00    +0.012 A 
ATOM     26  C   UNL     1       9.523   3.198  -2.874  0.00  0.00    +0.030 A 
ATOM     27  C   UNL     1       9.327   3.124  -1.406  0.00  0.00    +0.194 C 
ATOM     28  O   UNL     1      10.162   2.815  -0.581  0.00  0.00    -0.287 OA
ENDBRANCH  11  15
BRANCH   1  30
ATOM     29  N   UNL     1       0.837   0.341  -4.136  0.00  0.00    -0.311 N 
ATOM     30  C   UNL     1       1.341   1.530  -3.748  0.00  0.00    +0.218 C 
ATOM     31  O   UNL     1       0.654   2.301  -3.112  0.00  0.00    -0.275 OA
ATOM     32  H   UNL     1       1.386  -0.276  -4.645  0.00  0.00    +0.149 HD
BRANCH  29  33
ATOM     33  C   UNL     1      -0.540  -0.019  -3.788  0.00  0.00    +0.139 C 
BRANCH  33  36
ATOM     34  C   UNL     1       0.357  -2.378  -2.381  0.00  0.00    +0.045 C 
ATOM     35  C   UNL     1      -0.426  -2.516  -3.662  0.00  0.00    -0.027 A 
ATOM     36  C   UNL     1      -0.854  -1.388  -4.335  0.00  0.00    -0.026 A 
ATOM     37  C   UNL     1      -1.572  -1.514  -5.509  0.00  0.00    +0.005 A 
ATOM     38  C   UNL     1      -1.861  -2.769  -6.012  0.00  0.00    +0.002 A 
ATOM     39  C   UNL     1      -1.433  -3.898  -5.340  0.00  0.00    +0.020 A 
ATOM     40  C   UNL     1      -0.710  -3.772  -4.167  0.00  0.00    +0.044 A 
ATOM     41 CL   UNL     1      -0.166  -5.190  -3.325  0.00  0.00    -0.083 Cl
ENDBRANCH  33  36
ENDBRANCH  29  33
ENDBRANCH   1  30
TORSDOF 4
