REMARK  Name = ZINC07987762
REMARK  11 active torsions:
REMARK  status: ('A' for Active; 'I' for Inactive)
REMARK    1  A    between atoms: C_1  and  C_2
REMARK    2  A    between atoms: C_2  and  C_3
REMARK    3  A    between atoms: C_8  and  N_9
REMARK    4  A    between atoms: C_10  and  C_12
REMARK    5  A    between atoms: C_12  and  N_13
REMARK    6  A    between atoms: C_14  and  C_16
REMARK    7  A    between atoms: C_16  and  C_18
REMARK    8  A    between atoms: C_16  and  N_21
REMARK    9  A    between atoms: C_18  and  C_19
REMARK   10  A    between atoms: C_18  and  C_20
REMARK   11  A    between atoms: N_24  and  C_25
REMARK                            x       y       z     vdW  Elec       q    Type
REMARK                         _______ _______ _______ _____ _____    ______ ____
ROOT
ATOM      1  N   UNL     1       0.463  -0.582   1.239  0.00  0.00    -0.305 N 
ATOM      2  C   UNL     1      -0.082  -0.242   2.424  0.00  0.00    +0.234 C 
ATOM      3  O   UNL     1      -0.406  -1.106   3.212  0.00  0.00    -0.274 OA
ATOM      4  H   UNL     1       0.654   0.103   0.580  0.00  0.00    +0.149 HD
ENDROOT
BRANCH   1   5
ATOM      5  C   UNL     1       0.765  -1.985   0.947  0.00  0.00    +0.200 C 
BRANCH   5   7
ATOM      6  N   UNL     1       1.721  -3.299  -0.918  0.00  0.00    -0.284 N 
ATOM      7  C   UNL     1       1.362  -2.094  -0.432  0.00  0.00    +0.234 C 
ATOM      8  O   UNL     1       1.520  -1.097  -1.105  0.00  0.00    -0.274 OA
ATOM      9  H   UNL     1       1.538  -4.102  -0.407  0.00  0.00    +0.155 HD
BRANCH   6  15
ATOM     10  C   UNL     1       3.216  -4.449  -2.427  0.00  0.00    -0.026 A 
ATOM     11  C   UNL     1       3.843  -4.537  -3.654  0.00  0.00    +0.005 A 
ATOM     12  C   UNL     1       3.617  -3.572  -4.618  0.00  0.00    +0.000 A 
ATOM     13  C   UNL     1       2.762  -2.516  -4.357  0.00  0.00    +0.002 A 
ATOM     14  C   UNL     1       2.128  -2.425  -3.133  0.00  0.00    +0.023 A 
ATOM     15  C   UNL     1       2.358  -3.390  -2.161  0.00  0.00    +0.037 A 
BRANCH  10  17
ATOM     16  C   UNL     1       2.365  -6.565  -1.452  0.00  0.00    +0.009 C 
ATOM     17  C   UNL     1       3.462  -5.502  -1.377  0.00  0.00    +0.033 C 
ENDBRANCH  10  17
ENDBRANCH   6  15
ENDBRANCH   5   7
ENDBRANCH   1   5
BRANCH   2  18
ATOM     18  C   UNL     1      -0.289   1.210   2.770  0.00  0.00    +0.163 C 
BRANCH  18  19
ATOM     19  N   UNL     1      -0.670   1.326   4.180  0.00  0.00    -0.288 N 
ATOM     20  C   UNL     1      -0.427   2.469   4.852  0.00  0.00    +0.304 C 
ATOM     21  O   UNL     1       0.110   3.403   4.288  0.00  0.00    -0.252 OA
ATOM     22  N   UNL     1      -0.777   2.576   6.149  0.00  0.00    -0.269 N 
ATOM     23  H   UNL     1      -1.098   0.581   4.630  0.00  0.00    +0.151 HD
ATOM     24  H   UNL     1      -1.147   1.811   6.616  0.00  0.00    +0.156 HD
BRANCH  22  25
ATOM     25  C   UNL     1      -0.609   3.792   6.821  0.00  0.00    +0.035 A 
ATOM     26  C   UNL     1       0.492   4.592   6.546  0.00  0.00    +0.023 A 
ATOM     27  C   UNL     1       0.653   5.794   7.208  0.00  0.00    +0.002 A 
ATOM     28  C   UNL     1      -0.276   6.195   8.151  0.00  0.00    +0.000 A 
ATOM     29  C   UNL     1      -1.371   5.398   8.430  0.00  0.00    +0.002 A 
ATOM     30  C   UNL     1      -1.540   4.198   7.768  0.00  0.00    +0.023 A 
ENDBRANCH  22  25
ENDBRANCH  18  19
BRANCH  18  31
ATOM     31  C   UNL     1      -1.399   1.790   1.892  0.00  0.00    +0.012 C 
ATOM     32  C   UNL     1      -1.560   3.281   2.194  0.00  0.00    +0.009 C 
ATOM     33  C   UNL     1      -2.714   1.065   2.185  0.00  0.00    +0.009 C 
ENDBRANCH  18  31
ENDBRANCH   2  18
TORSDOF 8
