REMARK  Name = ZINC40035629
REMARK  9 active torsions:
REMARK  status: ('A' for Active; 'I' for Inactive)
REMARK    1  A    between atoms: C_1  and  C_2
REMARK    2  A    between atoms: C_2  and  C_3
REMARK    3  A    between atoms: C_3  and  C_38
REMARK    4  A    between atoms: N_15  and  C_32
REMARK    5  A    between atoms: N_18  and  N_19
REMARK    6  A    between atoms: C_20  and  C_21
REMARK    7  A    between atoms: C_24  and  O_27
REMARK    8  A    between atoms: O_27  and  C_28
REMARK    9  A    between atoms: C_28  and  C_29
REMARK                            x       y       z     vdW  Elec       q    Type
REMARK                         _______ _______ _______ _____ _____    ______ ____
ROOT
ATOM      1  C   UNL     1       1.023  -1.140  -1.880  0.00  0.00    +0.004 C 
ATOM      2  C   UNL     1       1.294  -2.642  -1.828  0.00  0.00    +0.047 C 
ATOM      3  C   UNL     1       2.031  -3.003  -0.567  0.00  0.00    -0.037 A 
ATOM      4  C   UNL     1       1.777  -4.199   0.073  0.00  0.00    +0.004 A 
ATOM      5  C   UNL     1       2.462  -4.525   1.230  0.00  0.00    +0.000 A 
ATOM      6  C   UNL     1       3.405  -3.658   1.754  0.00  0.00    +0.001 A 
ATOM      7  C   UNL     1       3.667  -2.458   1.125  0.00  0.00    +0.010 A 
ATOM      8  C   UNL     1       2.979  -2.125  -0.039  0.00  0.00    +0.004 A 
ATOM      9  C   UNL     1       3.231  -0.841  -0.731  0.00  0.00    +0.084 A 
ATOM     10  C   UNL     1       2.285  -0.365  -1.627  0.00  0.00    +0.050 A 
ATOM     11  C   UNL     1       2.529   0.845  -2.288  0.00  0.00    +0.264 A 
ATOM     12  O   UNL     1       1.721   1.294  -3.084  0.00  0.00    -0.267 OA
ATOM     13  N   UNL     1       3.678   1.505  -2.024  0.00  0.00    -0.248 N 
ATOM     14  C   UNL     1       4.573   0.996  -1.130  0.00  0.00    +0.223 A 
ATOM     15  N   UNL     1       4.349  -0.142  -0.505  0.00  0.00    -0.214 NA
ATOM     16  N   UNL     1       5.730   1.684  -0.874  0.00  0.00    -0.206 N 
ATOM     17  C   UNL     1       0.474  -0.775  -3.260  0.00  0.00    +0.016 C 
ATOM     18  H   UNL     1       5.934   2.493  -1.370  0.00  0.00    +0.177 HD
ENDROOT
BRANCH  13  19
ATOM     19  C   UNL     1       3.951   2.717  -2.672  0.00  0.00    +0.053 A 
ATOM     20  C   UNL     1       4.658   2.723  -3.867  0.00  0.00    +0.026 A 
ATOM     21  C   UNL     1       4.925   3.919  -4.504  0.00  0.00    +0.002 A 
ATOM     22  C   UNL     1       4.489   5.110  -3.953  0.00  0.00    +0.000 A 
ATOM     23  C   UNL     1       3.786   5.107  -2.762  0.00  0.00    +0.002 A 
ATOM     24  C   UNL     1       3.510   3.914  -2.124  0.00  0.00    +0.026 A 
ENDBRANCH  13  19
BRANCH   1  26
ATOM     25  C   UNL     1      -0.310   0.722  -0.879  0.00  0.00    +0.005 C 
ATOM     26  C   UNL     1      -0.013  -0.778  -0.813  0.00  0.00    +0.008 C 
ENDBRANCH   1  26
BRANCH  16  27
ATOM     27  N   UNL     1       6.620   1.220   0.103  0.00  0.00    -0.188 NA
ATOM     28  C   UNL     1       7.716   1.871   0.345  0.00  0.00    +0.138 C 
BRANCH  28  29
ATOM     29  C   UNL     1       8.653   1.382   1.373  0.00  0.00    -0.005 A 
ATOM     30  C   UNL     1       8.365   0.214   2.085  0.00  0.00    +0.013 A 
ATOM     31  C   UNL     1       9.243  -0.239   3.046  0.00  0.00    +0.046 A 
ATOM     32  C   UNL     1      10.413   0.463   3.307  0.00  0.00    +0.121 A 
ATOM     33  C   UNL     1      10.703   1.624   2.602  0.00  0.00    +0.046 A 
ATOM     34  C   UNL     1       9.834   2.082   1.636  0.00  0.00    +0.013 A 
BRANCH  32  35
ATOM     35  O   UNL     1      11.276   0.013   4.255  0.00  0.00    -0.483 OA
BRANCH  35  36
ATOM     36  C   UNL     1      12.460   0.783   4.473  0.00  0.00    +0.324 C 
BRANCH  36  37
ATOM     37  C   UNL     1      13.289   0.135   5.552  0.00  0.00    +0.248 C 
ATOM     38  O   UNL     1      12.903  -0.885   6.082  0.00  0.00    -0.272 OA
ATOM     39  N   UNL     1      14.458   0.690   5.928  0.00  0.00    -0.327 N 
ATOM     40  H   UNL     1      14.766   1.506   5.503  0.00  0.00    +0.145 HD
ATOM     41  H   UNL     1      14.992   0.273   6.622  0.00  0.00    +0.145 HD
ENDBRANCH  36  37
ENDBRANCH  35  36
ENDBRANCH  32  35
ENDBRANCH  28  29
ENDBRANCH  16  27
TORSDOF 7
