REMARK  Name = ZINC39695832
REMARK  6 active torsions:
REMARK  status: ('A' for Active; 'I' for Inactive)
REMARK    1  A    between atoms: C_1  and  C_2
REMARK    2  A    between atoms: C_9  and  C_11
REMARK    3  A    between atoms: C_11  and  C_13
REMARK    4  A    between atoms: C_11  and  N_14
REMARK    5  A    between atoms: C_15  and  C_17
REMARK    6  A    between atoms: C_28  and  C_30
REMARK                            x       y       z     vdW  Elec       q    Type
REMARK                         _______ _______ _______ _____ _____    ______ ____
ROOT
ATOM      1  C   UNL     1       2.397  -8.772   0.762  0.00  0.00    +0.100 C 
ATOM      2  C   UNL     1       1.159  -9.374   0.060  0.00  0.00    +0.121 C 
ATOM      3  N   UNL     1       1.411 -10.835   0.046  0.00  0.00    -0.296 N 
ATOM      4  C   UNL     1       2.025 -11.115   1.366  0.00  0.00    +0.115 C 
ATOM      5  C   UNL     1       2.962  -9.917   1.619  0.00  0.00    -0.004 C 
ATOM      6  C   UNL     1       2.939  -9.533   3.095  0.00  0.00    -0.010 C 
ATOM      7  C   UNL     1       3.559 -10.664   3.921  0.00  0.00    -0.082 C 
ATOM      8  N   UNL     1       4.938 -10.898   3.477  0.00  0.00    +0.379 N 
ATOM      9  C   UNL     1       4.944 -11.356   2.082  0.00  0.00    -0.082 C 
ATOM     10  C   UNL     1       4.383 -10.255   1.178  0.00  0.00    -0.010 C 
ATOM     11  C   UNL     1       1.142 -11.710  -0.943  0.00  0.00    +0.248 C 
ATOM     12  O   UNL     1       1.322 -12.900  -0.767  0.00  0.00    -0.270 OA
ATOM     13  H   UNL     1       5.464 -10.039   3.549  0.00  0.00    -0.086 HD
ATOM     14  H   UNL     1       5.364 -11.600   4.062  0.00  0.00    -0.086 HD
ENDROOT
BRANCH  11  15
ATOM     15  C   UNL     1       0.632 -11.227  -2.232  0.00  0.00    +0.052 A 
ATOM     16  C   UNL     1      -0.198 -10.154  -2.300  0.00  0.00    +0.059 A 
ATOM     17  S   UNL     1      -0.532  -9.950  -3.930  0.00  0.00    -0.096 S 
ATOM     18  C   UNL     1       0.416 -11.281  -4.614  0.00  0.00    +0.020 A 
ATOM     19  C   UNL     1       1.008 -11.883  -3.487  0.00  0.00    +0.001 A 
ATOM     20  C   UNL     1       1.843 -12.994  -3.713  0.00  0.00    +0.010 A 
ATOM     21  C   UNL     1       2.062 -13.450  -4.989  0.00  0.00    +0.001 A 
ATOM     22  C   UNL     1       1.471 -12.836  -6.083  0.00  0.00    +0.001 A 
ATOM     23  C   UNL     1       0.638 -11.751  -5.891  0.00  0.00    +0.015 A 
ENDBRANCH  11  15
BRANCH   1  25
ATOM     24  N   UNL     1       2.860  -6.609   1.870  0.00  0.00    -0.305 N 
ATOM     25  C   UNL     1       1.992  -7.613   1.636  0.00  0.00    +0.219 C 
ATOM     26  O   UNL     1       0.884  -7.583   2.129  0.00  0.00    -0.275 OA
ATOM     27  H   UNL     1       3.746  -6.633   1.476  0.00  0.00    +0.149 HD
BRANCH  24  28
ATOM     28  C   UNL     1       2.466  -5.483   2.720  0.00  0.00    +0.136 C 
ATOM     29  C   UNL     1       1.721  -4.445   1.878  0.00  0.00    +0.036 C 
BRANCH  28  38
ATOM     30  C   UNL     1       7.713  -1.963   6.653  0.00  0.00    +0.044 C 
ATOM     31  C   UNL     1       7.018  -2.764   5.582  0.00  0.00    -0.048 A 
ATOM     32  C   UNL     1       7.747  -3.260   4.510  0.00  0.00    +0.005 A 
ATOM     33  C   UNL     1       7.135  -3.987   3.529  0.00  0.00    +0.030 A 
ATOM     34  C   UNL     1       5.763  -4.238   3.601  0.00  0.00    +0.089 A 
ATOM     35  C   UNL     1       5.024  -3.737   4.686  0.00  0.00    +0.067 A 
ATOM     36  C   UNL     1       5.664  -3.003   5.677  0.00  0.00    +0.031 A 
ATOM     37  N   UNL     1       3.721  -4.142   4.481  0.00  0.00    -0.340 N 
ATOM     38  C   UNL     1       3.696  -4.853   3.321  0.00  0.00    +0.128 A 
ATOM     39  N   UNL     1       4.890  -4.909   2.806  0.00  0.00    -0.231 NA
ATOM     40  H   UNL     1       2.963  -3.955   5.056  0.00  0.00    +0.167 HD
ENDBRANCH  28  38
ENDBRANCH  24  28
ENDBRANCH   1  25
TORSDOF 4
