REMARK  Name = ZINC40568808
REMARK  7 active torsions:
REMARK  status: ('A' for Active; 'I' for Inactive)
REMARK    1  A    between atoms: C_1  and  C_2
REMARK    2  A    between atoms: C_2  and  O_3
REMARK    3  A    between atoms: O_3  and  C_4
REMARK    4  A    between atoms: C_4  and  C_6
REMARK    5  A    between atoms: C_7  and  N_35
REMARK    6  A    between atoms: N_18  and  C_21
REMARK    7  A    between atoms: C_21  and  C_22
REMARK                            x       y       z     vdW  Elec       q    Type
REMARK                         _______ _______ _______ _____ _____    ______ ____
ROOT
ATOM      1  C   UNL     1       2.329  -2.469   2.408  0.00  0.00    +0.117 C 
ATOM      2  C   UNL     1       2.267  -3.783   2.752  0.00  0.00    +0.195 C 
ATOM      3  O   UNL     1       2.463  -4.175   4.021  0.00  0.00    -0.446 OA
ATOM      4  C   UNL     1       3.115  -3.381   4.892  0.00  0.00    +0.115 C 
ATOM      5  C   UNL     1       3.225  -2.056   4.679  0.00  0.00    +0.057 C 
ATOM      6  C   UNL     1       2.629  -1.429   3.447  0.00  0.00    +0.141 C 
ATOM      7  C   UNL     1       1.399  -0.652   3.801  0.00  0.00    -0.002 A 
ATOM      8  C   UNL     1       0.198  -1.046   4.350  0.00  0.00    +0.007 A 
ATOM      9  C   UNL     1      -0.755  -0.054   4.558  0.00  0.00    +0.000 A 
ATOM     10  C   UNL     1      -0.505   1.262   4.229  0.00  0.00    +0.002 A 
ATOM     11  C   UNL     1       0.700   1.665   3.676  0.00  0.00    +0.024 A 
ATOM     12  C   UNL     1       1.665   0.680   3.462  0.00  0.00    +0.041 A 
ATOM     13  N   UNL     1       2.938   0.796   2.933  0.00  0.00    -0.265 N 
ATOM     14  C   UNL     1       3.578  -0.391   2.886  0.00  0.00    +0.240 C 
ATOM     15  O   UNL     1       4.701  -0.589   2.474  0.00  0.00    -0.274 OA
ATOM     16  C   UNL     1       3.895  -1.221   5.594  0.00  0.00    +0.164 C 
ATOM     17  O   UNL     1       3.991  -0.034   5.359  0.00  0.00    -0.292 OA
ATOM     18  C   UNL     1       4.495  -1.774   6.859  0.00  0.00    +0.080 C 
ATOM     19  C   UNL     1       3.708  -3.020   7.278  0.00  0.00    +0.016 C 
ATOM     20  C   UNL     1       3.725  -4.018   6.118  0.00  0.00    +0.075 C 
ENDROOT
BRANCH   2  21
ATOM     21  N   UNL     1       2.000  -4.721   1.791  0.00  0.00    -0.329 N 
ATOM     22  H   UNL     1       1.783  -4.441   0.888  0.00  0.00    +0.145 HD
ATOM     23  H   UNL     1       2.028  -5.665   2.013  0.00  0.00    +0.145 HD
ENDBRANCH   2  21
BRANCH   1  24
ATOM     24  C   UNL     1       2.117  -2.085   1.075  0.00  0.00    +0.342 C 
ATOM     25  O   UNL     1       1.040  -1.627   0.736  0.00  0.00    -0.245 OA
BRANCH  24  26
ATOM     26  O   UNL     1       3.107  -2.223   0.167  0.00  0.00    -0.462 OA
BRANCH  26  28
ATOM     27  C   UNL     1       4.054  -2.041  -2.050  0.00  0.00    +0.048 C 
ATOM     28  C   UNL     1       2.822  -1.811  -1.172  0.00  0.00    +0.229 C 
ENDBRANCH  26  28
ENDBRANCH  24  26
ENDBRANCH   1  24
BRANCH  13  29
ATOM     29  C   UNL     1       3.523   2.060   2.476  0.00  0.00    +0.151 C 
BRANCH  29  30
ATOM     30  C   UNL     1       3.400   2.158   0.978  0.00  0.00    +0.007 A 
ATOM     31  C   UNL     1       4.426   1.706   0.168  0.00  0.00    +0.047 A 
ATOM     32  C   UNL     1       4.312   1.796  -1.208  0.00  0.00    +0.020 A 
ATOM     33  C   UNL     1       3.173   2.338  -1.774  0.00  0.00    +0.003 A 
ATOM     34  C   UNL     1       2.147   2.790  -0.965  0.00  0.00    +0.020 A 
ATOM     35  C   UNL     1       2.257   2.694   0.411  0.00  0.00    +0.047 A 
ATOM     36 CL   UNL     1       0.966   3.255   1.427  0.00  0.00    -0.083 Cl
ATOM     37 CL   UNL     1       5.857   1.026   0.877  0.00  0.00    -0.083 Cl
ENDBRANCH  29  30
ENDBRANCH  13  29
TORSDOF 6
