REMARK  Name = ZINC15970089
REMARK  8 active torsions:
REMARK  status: ('A' for Active; 'I' for Inactive)
REMARK    1  A    between atoms: C_1  and  C_2
REMARK    2  A    between atoms: C_4  and  C_39
REMARK    3  A    between atoms: C_13  and  C_16
REMARK    4  A    between atoms: C_16  and  C_17
REMARK    5  A    between atoms: N_29  and  C_32
REMARK    6  A    between atoms: C_32  and  C_33
REMARK    7  A    between atoms: C_33  and  O_34
REMARK    8  A    between atoms: O_34  and  C_35
REMARK                            x       y       z     vdW  Elec       q    Type
REMARK                         _______ _______ _______ _____ _____    ______ ____
ROOT
ATOM      1  C   UNL     1      -0.018   1.503   0.010  0.00  0.00    +0.044 C 
ATOM      2  C   UNL     1       0.002  -0.004   0.002  0.00  0.00    -0.050 A 
ATOM      3  C   UNL     1       0.006  -0.691  -1.199  0.00  0.00    +0.008 A 
ATOM      4  C   UNL     1       0.025  -2.070  -1.212  0.00  0.00    -0.029 A 
ATOM      5  C   UNL     1       0.039  -2.782  -0.015  0.00  0.00    +0.042 A 
ATOM      6  C   UNL     1       0.035  -2.081   1.187  0.00  0.00    +0.004 A 
ATOM      7  C   UNL     1       0.023  -0.704   1.195  0.00  0.00    +0.011 A 
ATOM      8  C   UNL     1       0.053  -3.122   2.269  0.00  0.00    +0.136 C 
ATOM      9  C   UNL     1       1.277  -2.969   3.181  0.00  0.00    +0.122 C 
ATOM     10  C   UNL     1       0.763  -3.364   4.594  0.00  0.00    +0.107 C 
ATOM     11  C   UNL     1      -0.718  -3.743   4.386  0.00  0.00    +0.072 C 
ATOM     12  N   UNL     1      -1.124  -3.008   3.151  0.00  0.00    -0.295 NA
ATOM     13  C   UNL     1       0.858  -2.072   5.373  0.00  0.00    +0.227 C 
ATOM     14  O   UNL     1       0.543  -1.931   6.535  0.00  0.00    -0.275 OA
ATOM     15  N   UNL     1       1.345  -1.110   4.581  0.00  0.00    -0.239 N 
ATOM     16  C   UNL     1       1.628  -1.504   3.318  0.00  0.00    +0.228 C 
ATOM     17  O   UNL     1       2.084  -0.808   2.438  0.00  0.00    -0.275 OA
ATOM     18  C   UNL     1       0.069  -4.440   1.545  0.00  0.00    +0.243 C 
ATOM     19  O   UNL     1       0.089  -5.543   2.048  0.00  0.00    -0.273 OA
ATOM     20  N   UNL     1       0.059  -4.157   0.228  0.00  0.00    -0.283 N 
ATOM     21  C   UNL     1       0.028  -2.808  -2.526  0.00  0.00    +0.045 C 
ATOM     22  H   UNL     1      -1.336  -2.042   3.347  0.00  0.00    +0.124 HD
ATOM     23  H   UNL     1       0.064  -4.830  -0.470  0.00  0.00    +0.155 HD
ENDROOT
BRANCH  11  24
ATOM     24  C   UNL     1      -1.560  -3.271   5.572  0.00  0.00    +0.056 C 
BRANCH  24  25
ATOM     25  C   UNL     1      -2.977  -3.757   5.408  0.00  0.00    -0.021 A 
ATOM     26  C   UNL     1      -3.997  -3.076   4.863  0.00  0.00    +0.087 A 
ATOM     27  N   UNL     1      -5.133  -3.839   4.885  0.00  0.00    -0.360 N 
ATOM     28  H   UNL     1      -5.998  -3.560   4.547  0.00  0.00    +0.165 HD
ATOM     29  C   UNL     1      -4.865  -5.061   5.460  0.00  0.00    +0.047 A 
ATOM     30  C   UNL     1      -3.501  -5.066   5.807  0.00  0.00    +0.003 A 
ATOM     31  C   UNL     1      -2.940  -6.193   6.410  0.00  0.00    +0.010 A 
ATOM     32  C   UNL     1      -3.718  -7.288   6.658  0.00  0.00    +0.001 A 
ATOM     33  C   UNL     1      -5.063  -7.290   6.314  0.00  0.00    +0.002 A 
ATOM     34  C   UNL     1      -5.639  -6.185   5.726  0.00  0.00    +0.026 A 
ENDBRANCH  24  25
ENDBRANCH  11  24
BRANCH  15  35
ATOM     35  C   UNL     1       1.561   0.263   5.045  0.00  0.00    +0.144 C 
BRANCH  35  36
ATOM     36  C   UNL     1       2.978   0.394   5.607  0.00  0.00    +0.179 C 
BRANCH  36  37
ATOM     37  O   UNL     1       3.927   0.195   4.558  0.00  0.00    -0.381 OA
ATOM     38  C   UNL     1       5.289   0.297   4.979  0.00  0.00    +0.194 C 
ENDBRANCH  36  37
ENDBRANCH  35  36
ENDBRANCH  15  35
TORSDOF 5
