REMARK  Name = ZINC20614656
REMARK  12 active torsions:
REMARK  status: ('A' for Active; 'I' for Inactive)
REMARK    1  A    between atoms: C_1  and  N_2
REMARK    2  A    between atoms: N_2  and  C_3
REMARK    3  A    between atoms: N_2  and  C_4
REMARK    4  A    between atoms: C_4  and  C_5
REMARK    5  A    between atoms: C_5  and  C_6
REMARK    6  A    between atoms: C_6  and  N_7
REMARK    7  A    between atoms: C_8  and  C_10
REMARK    8  A    between atoms: N_12  and  C_13
REMARK    9  A    between atoms: C_13  and  C_14
REMARK   10  A    between atoms: C_14  and  C_16
REMARK   11  A    between atoms: C_14  and  S_21
REMARK   12  A    between atoms: S_21  and  C_24
REMARK                            x       y       z     vdW  Elec       q    Type
REMARK                         _______ _______ _______ _____ _____    ______ ____
ROOT
ATOM      1  C   UNL     1       1.779   5.398   1.262  0.00  0.00    +0.136 C 
ENDROOT
BRANCH   1   4
ATOM      2  C   UNL     1       3.045   7.220   2.270  0.00  0.00    +0.299 C 
ATOM      3  O   UNL     1       3.349   6.469   3.174  0.00  0.00    -0.265 OA
ATOM      4  N   UNL     1       2.262   6.781   1.264  0.00  0.00    -0.305 N 
ATOM      5  H   UNL     1       1.986   7.461   0.445  0.00  0.00    +0.149 HD
BRANCH   2   7
ATOM      6  N   UNL     1       4.320   9.069   3.278  0.00  0.00    -0.308 N 
ATOM      7  C   UNL     1       3.538   8.630   2.272  0.00  0.00    +0.299 C 
ATOM      8  O   UNL     1       3.233   9.381   1.368  0.00  0.00    -0.265 OA
ATOM      9  H   UNL     1       4.596   8.389   4.097  0.00  0.00    +0.149 HD
BRANCH   6  10
ATOM     10  C   UNL     1       4.804  10.452   3.280  0.00  0.00    +0.103 C 
BRANCH  10  11
ATOM     11  C   UNL     1       5.664  10.690   4.522  0.00  0.00    +0.000 C 
BRANCH  11  12
ATOM     12  C   UNL     1       6.169  12.134   4.525  0.00  0.00    -0.078 C 
BRANCH  12  14
ATOM     13  C   UNL     1       7.689  13.654   5.638  0.00  0.00    -0.097 C 
ATOM     14  N   UNL     1       6.995  12.362   5.718  0.00  0.00    +0.376 N 
ATOM     15  C   UNL     1       6.189  12.272   6.942  0.00  0.00    -0.097 C 
ATOM     16  H   UNL     1       7.758  11.570   5.757  0.00  0.00    -0.083 HD
ENDBRANCH  12  14
ENDBRANCH  11  12
ENDBRANCH  10  11
ENDBRANCH   6  10
ENDBRANCH   2   7
ENDBRANCH   1   4
BRANCH   1  17
ATOM     17  C   UNL     1       0.918   5.160   0.020  0.00  0.00    +0.189 C 
BRANCH  17  18
ATOM     18  C   UNL     1       0.421   3.738   0.017  0.00  0.00    +0.016 A 
ATOM     19  C   UNL     1      -0.855   3.279   0.027  0.00  0.00    +0.013 A 
ATOM     20  C   UNL     1      -1.077   1.915   0.017  0.00  0.00    +0.008 A 
ATOM     21  C   UNL     1      -0.013   1.076   0.008  0.00  0.00    +0.045 A 
ATOM     22  S   UNL     1       1.359   2.219   0.001  0.00  0.00    -0.100 S 
ENDBRANCH  17  18
BRANCH  17  23
ATOM     23  S   UNL     1       1.911   5.456  -1.469  0.00  0.00    +0.006 S 
ATOM     24  O   UNL     1       2.238   6.835  -1.574  0.00  0.00    -0.169 OA
ATOM     25  O   UNL     1       2.918   4.461  -1.591  0.00  0.00    -0.169 OA
BRANCH  23  26
ATOM     26  C   UNL     1       0.813   5.151  -2.814  0.00  0.00    +0.089 A 
ATOM     27  C   UNL     1       0.717   3.882  -3.353  0.00  0.00    +0.028 A 
ATOM     28  C   UNL     1      -0.148   3.641  -4.404  0.00  0.00    +0.022 A 
ATOM     29  C   UNL     1      -0.909   4.673  -4.923  0.00  0.00    +0.041 A 
ATOM     30  C   UNL     1      -0.808   5.944  -4.387  0.00  0.00    +0.022 A 
ATOM     31  C   UNL     1       0.053   6.183  -3.332  0.00  0.00    +0.028 A 
ATOM     32 CL   UNL     1      -1.991   4.373  -6.247  0.00  0.00    -0.084 Cl
ENDBRANCH  23  26
ENDBRANCH  17  23
ENDBRANCH   1  17
TORSDOF 10
