REMARK  Name = ZINC63362078
REMARK  9 active torsions:
REMARK  status: ('A' for Active; 'I' for Inactive)
REMARK    1  A    between atoms: C_1  and  C_2
REMARK    2  A    between atoms: C_2  and  C_4
REMARK    3  A    between atoms: C_2  and  N_22
REMARK    4  A    between atoms: N_6  and  C_7
REMARK    5  A    between atoms: C_7  and  C_8
REMARK    6  A    between atoms: C_8  and  C_9
REMARK    7  A    between atoms: C_9  and  C_10
REMARK    8  A    between atoms: C_9  and  C_16
REMARK    9  A    between atoms: C_25  and  C_41
REMARK                            x       y       z     vdW  Elec       q    Type
REMARK                         _______ _______ _______ _____ _____    ______ ____
ROOT
ATOM      1  C   UNL     1       0.974  -0.577  -1.457  0.00  0.00    +0.038 C 
ATOM      2  C   UNL     1       1.006  -1.985  -0.860  0.00  0.00    +0.168 C 
ENDROOT
BRANCH   2   3
ATOM      3  N   UNL     1      -0.331  -2.579  -0.937  0.00  0.00    -0.212 N 
ATOM      4  C   UNL     1      -0.618  -3.718  -1.601  0.00  0.00    +0.249 C 
ATOM      5  O   UNL     1       0.146  -4.398  -2.252  0.00  0.00    -0.273 OA
ATOM      6  C   UNL     1      -2.090  -3.969  -1.364  0.00  0.00    +0.136 C 
ATOM      7  C   UNL     1      -2.850  -4.013  -2.688  0.00  0.00    +0.139 C 
ATOM      8  C   UNL     1      -3.732  -2.775  -2.747  0.00  0.00    -0.034 C 
ATOM      9  C   UNL     1      -3.409  -2.142  -3.872  0.00  0.00    -0.001 A 
ATOM     10  C   UNL     1      -3.958  -0.930  -4.503  0.00  0.00    +0.010 A 
ATOM     11  C   UNL     1      -3.375  -0.547  -5.670  0.00  0.00    +0.001 A 
ATOM     12  C   UNL     1      -2.315  -1.238  -6.263  0.00  0.00    +0.002 A 
ATOM     13  C   UNL     1      -1.752  -2.364  -5.755  0.00  0.00    +0.026 A 
ATOM     14  C   UNL     1      -2.283  -2.867  -4.532  0.00  0.00    +0.043 A 
ATOM     15  N   UNL     1      -1.948  -3.933  -3.839  0.00  0.00    -0.375 N 
ATOM     16  C   UNL     1      -4.700  -2.385  -1.657  0.00  0.00    +0.052 C 
ATOM     17  C   UNL     1      -3.918  -2.411  -0.329  0.00  0.00    +0.115 C 
ATOM     18  N   UNL     1      -2.527  -2.762  -0.632  0.00  0.00    -0.269 N 
ATOM     19  C   UNL     1      -1.420  -2.061  -0.352  0.00  0.00    +0.313 C 
ATOM     20  O   UNL     1      -1.405  -1.067   0.348  0.00  0.00    -0.252 OA
ATOM     21  C   UNL     1      -2.312  -5.235  -0.535  0.00  0.00    +0.044 C 
ATOM     22  H   UNL     1      -1.233  -4.556  -4.043  0.00  0.00    +0.160 HD
ENDBRANCH   2   3
BRANCH   2  23
ATOM     23  C   UNL     1       1.439  -1.909   0.581  0.00  0.00    +0.234 C 
ATOM     24  O   UNL     1       0.704  -2.312   1.458  0.00  0.00    -0.274 OA
ATOM     25  N   UNL     1       2.644  -1.394   0.896  0.00  0.00    -0.314 N 
ATOM     26  H   UNL     1       3.233  -1.072   0.195  0.00  0.00    +0.149 HD
BRANCH  25  27
ATOM     27  C   UNL     1       3.066  -1.321   2.297  0.00  0.00    +0.105 C 
BRANCH  27  28
ATOM     28  C   UNL     1       4.462  -0.701   2.378  0.00  0.00    +0.031 C 
BRANCH  28  29
ATOM     29  C   UNL     1       4.903  -0.624   3.841  0.00  0.00    +0.050 C 
BRANCH  29  30
ATOM     30  C   UNL     1       6.324  -0.128   3.913  0.00  0.00    -0.040 A 
ATOM     31  C   UNL     1       7.270  -0.841   4.626  0.00  0.00    +0.004 A 
ATOM     32  C   UNL     1       8.573  -0.386   4.691  0.00  0.00    +0.000 A 
ATOM     33  C   UNL     1       8.931   0.782   4.044  0.00  0.00    +0.000 A 
ATOM     34  C   UNL     1       7.986   1.494   3.330  0.00  0.00    +0.000 A 
ATOM     35  C   UNL     1       6.683   1.037   3.261  0.00  0.00    +0.004 A 
ENDBRANCH  29  30
BRANCH  29  36
ATOM     36  C   UNL     1       4.001   0.325   4.588  0.00  0.00    -0.040 A 
ATOM     37  C   UNL     1       3.783   1.600   4.099  0.00  0.00    +0.004 A 
ATOM     38  C   UNL     1       2.956   2.470   4.784  0.00  0.00    +0.000 A 
ATOM     39  C   UNL     1       2.347   2.066   5.958  0.00  0.00    +0.000 A 
ATOM     40  C   UNL     1       2.565   0.791   6.446  0.00  0.00    +0.000 A 
ATOM     41  C   UNL     1       3.388  -0.081   5.759  0.00  0.00    +0.004 A 
ENDBRANCH  29  36
ENDBRANCH  28  29
ENDBRANCH  27  28
ENDBRANCH  25  27
ENDBRANCH   2  23
TORSDOF 7
