REMARK  Name = ZINC27199728
REMARK  9 active torsions:
REMARK  status: ('A' for Active; 'I' for Inactive)
REMARK    1  A    between atoms: C_1  and  C_2
REMARK    2  A    between atoms: C_2  and  C_4
REMARK    3  A    between atoms: C_2  and  O_30
REMARK    4  A    between atoms: N_6  and  N_7
REMARK    5  A    between atoms: C_8  and  C_10
REMARK    6  A    between atoms: C_13  and  C_16
REMARK    7  A    between atoms: C_16  and  N_17
REMARK    8  A    between atoms: C_18  and  C_20
REMARK    9  A    between atoms: O_30  and  C_31
REMARK                            x       y       z     vdW  Elec       q    Type
REMARK                         _______ _______ _______ _____ _____    ______ ____
ROOT
ATOM      1  C   UNL     1      -4.600  -0.656  -0.446  0.00  0.00    +0.038 A 
ATOM      2  C   UNL     1      -4.121  -0.009   0.694  0.00  0.00    +0.013 A 
ATOM      3  C   UNL     1      -3.061   0.868   0.593  0.00  0.00    +0.006 A 
ATOM      4  C   UNL     1      -2.473   1.107  -0.636  0.00  0.00    -0.030 A 
ATOM      5  C   UNL     1      -2.945   0.473  -1.772  0.00  0.00    +0.006 A 
ATOM      6  C   UNL     1      -4.001  -0.411  -1.683  0.00  0.00    +0.013 A 
ENDROOT
BRANCH   1   8
ATOM      7  N   UNL     1      -6.194  -2.221  -1.448  0.00  0.00    -0.230 N 
ATOM      8  C   UNL     1      -5.735  -1.598  -0.344  0.00  0.00    +0.260 C 
ATOM      9  O   UNL     1      -6.254  -1.810   0.734  0.00  0.00    -0.269 OA
ATOM     10  H   UNL     1      -5.725  -2.029  -2.424  0.00  0.00    +0.173 HD
BRANCH   7  13
ATOM     11  C   UNL     1      -7.730  -3.736  -2.454  0.00  0.00    +0.270 C 
ATOM     12  O   UNL     1      -7.212  -3.525  -3.530  0.00  0.00    -0.270 OA
ATOM     13  N   UNL     1      -7.270  -3.113  -1.351  0.00  0.00    -0.231 N 
ATOM     14  H   UNL     1      -7.740  -3.305  -0.375  0.00  0.00    +0.173 HD
BRANCH  11  16
ATOM     15  C   UNL     1      -8.474  -5.904  -1.507  0.00  0.00    +0.062 C 
ATOM     16  C   UNL     1      -8.887  -4.696  -2.351  0.00  0.00    +0.257 C 
BRANCH  16  17
ATOM     17  O   UNL     1      -9.261  -5.134  -3.659  0.00  0.00    -0.480 OA
BRANCH  17  18
ATOM     18  C   UNL     1     -10.543  -5.555  -3.825  0.00  0.00    +0.122 A 
ATOM     19  C   UNL     1     -11.008  -5.881  -5.091  0.00  0.00    +0.048 A 
ATOM     20  C   UNL     1     -12.309  -6.315  -5.258  0.00  0.00    +0.042 A 
ATOM     21  C   UNL     1     -13.152  -6.413  -4.164  0.00  0.00    +0.124 A 
ATOM     22  C   UNL     1     -12.691  -6.082  -2.901  0.00  0.00    +0.042 A 
ATOM     23  C   UNL     1     -11.389  -5.654  -2.731  0.00  0.00    +0.048 A 
ATOM     24  F   UNL     1     -14.425  -6.833  -4.330  0.00  0.00    -0.205 F 
ENDBRANCH  17  18
ENDBRANCH  16  17
ENDBRANCH  11  16
ENDBRANCH   7  13
ENDBRANCH   1   8
BRANCH   4  25
ATOM     25  C   UNL     1      -1.315   2.066  -0.740  0.00  0.00    +0.139 C 
BRANCH  25  26
ATOM     26  N   UNL     1      -0.058   1.337  -0.553  0.00  0.00    -0.311 N 
ATOM     27  C   UNL     1       1.117   1.994  -0.610  0.00  0.00    +0.219 C 
ATOM     28  O   UNL     1       1.134   3.190  -0.812  0.00  0.00    -0.275 OA
ATOM     29  H   UNL     1      -0.074   0.253  -0.366  0.00  0.00    +0.149 HD
BRANCH  27  30
ATOM     30  C   UNL     1       2.410   1.243  -0.424  0.00  0.00    +0.048 C 
ATOM     31  C   UNL     1       2.423   0.583   0.956  0.00  0.00    +0.019 C 
ATOM     32  C   UNL     1       3.736  -0.180   1.145  0.00  0.00    -0.009 C 
ATOM     33  C   UNL     1       4.911   0.793   1.034  0.00  0.00    +0.007 C 
ATOM     34  C   UNL     1       4.899   1.453  -0.346  0.00  0.00    -0.009 C 
ATOM     35  C   UNL     1       3.586   2.216  -0.535  0.00  0.00    +0.019 C 
ATOM     36  C   UNL     1       5.024   0.378  -1.427  0.00  0.00    +0.007 C 
ATOM     37  C   UNL     1       3.848  -0.596  -1.317  0.00  0.00    -0.009 C 
ATOM     38  C   UNL     1       3.861  -1.256   0.064  0.00  0.00    +0.007 C 
ATOM     39  C   UNL     1       2.535   0.167  -1.505  0.00  0.00    +0.019 C 
ENDBRANCH  27  30
ENDBRANCH  25  26
ENDBRANCH   4  25
TORSDOF 8
