REMARK  Name = ZINC35572145
REMARK  6 active torsions:
REMARK  status: ('A' for Active; 'I' for Inactive)
REMARK    1  A    between atoms: C_1  and  C_2
REMARK    2  A    between atoms: C_2  and  C_3
REMARK    3  A    between atoms: C_2  and  C_4
REMARK    4  A    between atoms: C_2  and  O_5
REMARK    5  A    between atoms: O_5  and  C_6
REMARK    6  A    between atoms: C_10  and  C_19
REMARK                            x       y       z     vdW  Elec       q    Type
REMARK                         _______ _______ _______ _____ _____    ______ ____
ROOT
ATOM      1  C   UNL     1       1.952  -0.085  -1.337  0.00  0.00    +0.408 C 
ATOM      2  O   UNL     1       0.791  -0.414  -1.198  0.00  0.00    -0.226 OA
ATOM      3  N   UNL     1       2.641  -0.485  -2.424  0.00  0.00    -0.233 N 
ATOM      4  C   UNL     1       4.006   0.005  -2.668  0.00  0.00    +0.144 C 
ATOM      5  C   UNL     1       4.116   0.401  -4.148  0.00  0.00    +0.118 C 
ATOM      6  N   UNL     1       3.760  -0.769  -4.965  0.00  0.00    -0.334 N 
ATOM      7  C   UNL     1       2.627  -1.517  -4.615  0.00  0.00    +0.049 A 
ATOM      8  C   UNL     1       2.070  -1.382  -3.342  0.00  0.00    +0.060 A 
ATOM      9  C   UNL     1       0.956  -2.126  -2.991  0.00  0.00    +0.025 A 
ATOM     10  C   UNL     1       0.400  -3.006  -3.902  0.00  0.00    +0.002 A 
ATOM     11  C   UNL     1       0.953  -3.146  -5.161  0.00  0.00    +0.002 A 
ATOM     12  C   UNL     1       2.062  -2.396  -5.525  0.00  0.00    +0.025 A 
ATOM     13  H   UNL     1       4.298  -1.018  -5.732  0.00  0.00    +0.147 HD
ENDROOT
BRANCH   5  14
ATOM     14  C   UNL     1       3.168   1.535  -4.443  0.00  0.00    -0.025 A 
ATOM     15  C   UNL     1       1.825   1.279  -4.644  0.00  0.00    +0.005 A 
ATOM     16  C   UNL     1       0.955   2.319  -4.915  0.00  0.00    +0.001 A 
ATOM     17  C   UNL     1       1.429   3.616  -4.983  0.00  0.00    +0.015 A 
ATOM     18  C   UNL     1       2.773   3.873  -4.781  0.00  0.00    +0.018 A 
ATOM     19  C   UNL     1       3.642   2.832  -4.505  0.00  0.00    +0.020 A 
ATOM     20 BR   UNL     1       3.421   5.646  -4.876  0.00  0.00    -0.050 Br
ENDBRANCH   5  14
BRANCH   1  21
ATOM     21  O   UNL     1       2.551   0.680  -0.404  0.00  0.00    -0.444 OA
BRANCH  21  23
ATOM     22  C   UNL     1       1.282  -0.182   1.462  0.00  0.00    +0.055 C 
ATOM     23  C   UNL     1       1.762   1.068   0.722  0.00  0.00    +0.107 C 
ATOM     24  C   UNL     1       0.552   1.873   0.244  0.00  0.00    +0.055 C 
ATOM     25  C   UNL     1       2.606   1.927   1.665  0.00  0.00    +0.055 C 
ENDBRANCH  21  23
ENDBRANCH   1  21
TORSDOF 3
