REMARK  Name = ZINC09664103
REMARK  5 active torsions:
REMARK  status: ('A' for Active; 'I' for Inactive)
REMARK    1  A    between atoms: C_7  and  N_13
REMARK    2  A    between atoms: C_8  and  C_10
REMARK    3  A    between atoms: C_14  and  C_16
REMARK    4  A    between atoms: N_22  and  S_23
REMARK    5  A    between atoms: S_23  and  C_26
REMARK                            x       y       z     vdW  Elec       q    Type
REMARK                         _______ _______ _______ _____ _____    ______ ____
ROOT
ATOM      1  N   UNL     1      -2.560   0.062  -1.395  0.00  0.00    -0.281 N 
ATOM      2  C   UNL     1      -2.797   1.124  -0.599  0.00  0.00    +0.236 C 
ATOM      3  O   UNL     1      -1.892   1.617   0.039  0.00  0.00    -0.274 OA
ATOM      4  H   UNL     1      -3.265  -0.285  -1.964  0.00  0.00    +0.155 HD
ENDROOT
BRANCH   1  11
ATOM      5  C   UNL     1       0.724  -0.348   1.831  0.00  0.00    +0.001 A 
ATOM      6  C   UNL     1       1.830  -1.035   1.350  0.00  0.00    +0.004 A 
ATOM      7  C   UNL     1       1.858  -1.506   0.055  0.00  0.00    +0.047 A 
ATOM      8  C   UNL     1       0.768  -1.292  -0.783  0.00  0.00    +0.138 A 
ATOM      9  C   UNL     1      -0.348  -0.595  -0.289  0.00  0.00    +0.042 A 
ATOM     10  C   UNL     1      -0.357  -0.127   1.025  0.00  0.00    +0.013 A 
ATOM     11  C   UNL     1      -1.305  -0.535  -1.401  0.00  0.00    +0.092 A 
ATOM     12  C   UNL     1      -0.709  -1.190  -2.444  0.00  0.00    +0.211 A 
ATOM     13  O   UNL     1       0.513  -1.626  -2.063  0.00  0.00    -0.448 OA
BRANCH  12  14
ATOM     14  C   UNL     1      -1.299  -1.382  -3.767  0.00  0.00    +0.279 C 
ATOM     15  O   UNL     1      -2.443  -1.026  -3.981  0.00  0.00    -0.267 OA
ATOM     16  N   UNL     1      -0.578  -1.959  -4.749  0.00  0.00    -0.323 N 
ATOM     17  H   UNL     1       0.333  -2.246  -4.578  0.00  0.00    +0.145 HD
ATOM     18  H   UNL     1      -0.969  -2.086  -5.627  0.00  0.00    +0.145 HD
ENDBRANCH  12  14
ENDBRANCH   1  11
BRANCH   2  19
ATOM     19  C   UNL     1      -4.188   1.698  -0.503  0.00  0.00    +0.166 C 
ATOM     20  C   UNL     1      -4.698   1.569   0.935  0.00  0.00    +0.030 C 
ATOM     21  C   UNL     1      -6.048   2.279   1.058  0.00  0.00    +0.003 C 
ATOM     22  C   UNL     1      -5.879   3.765   0.734  0.00  0.00    +0.017 C 
ATOM     23  C   UNL     1      -5.384   3.916  -0.708  0.00  0.00    +0.110 C 
ATOM     24  N   UNL     1      -4.160   3.119  -0.873  0.00  0.00    -0.164 NA
BRANCH  24  25
ATOM     25  S   UNL     1      -2.777   3.811  -1.465  0.00  0.00    +0.068 S 
ATOM     26  O   UNL     1      -2.005   2.759  -2.027  0.00  0.00    -0.152 OA
ATOM     27  O   UNL     1      -3.180   4.946  -2.218  0.00  0.00    -0.152 OA
BRANCH  25  28
ATOM     28  C   UNL     1      -1.867   4.420  -0.084  0.00  0.00    +0.143 A 
ATOM     29  C   UNL     1      -0.832   3.846   0.577  0.00  0.00    +0.036 A 
ATOM     30  C   UNL     1      -0.263   4.516   1.643  0.00  0.00    +0.010 A 
ATOM     31  C   UNL     1      -0.763   5.724   2.003  0.00  0.00    +0.047 A 
ATOM     32  S   UNL     1      -2.074   5.950   0.813  0.00  0.00    -0.077 S 
ENDBRANCH  25  28
ENDBRANCH  24  25
ENDBRANCH   2  19
TORSDOF 5
