REMARK  Name = ZINC00989380
REMARK  8 active torsions:
REMARK  status: ('A' for Active; 'I' for Inactive)
REMARK    1  A    between atoms: C_1  and  C_2
REMARK    2  A    between atoms: C_3  and  C_29
REMARK    3  A    between atoms: C_15  and  C_19
REMARK    4  A    between atoms: C_16  and  N_18
REMARK    5  A    between atoms: C_19  and  O_21
REMARK    6  A    between atoms: O_21  and  C_22
REMARK    7  A    between atoms: C_22  and  C_23
REMARK    8  A    between atoms: C_29  and  C_31
REMARK                            x       y       z     vdW  Elec       q    Type
REMARK                         _______ _______ _______ _____ _____    ______ ____
ROOT
ATOM      1  C   UNL     1       4.997   3.992   0.466  0.00  0.00    +0.086 C 
ATOM      2  C   UNL     1       3.683   3.302   0.201  0.00  0.00    +0.113 C 
ATOM      3  C   UNL     1       2.543   3.984   0.391  0.00  0.00    +0.062 C 
ATOM      4  C   UNL     1       1.210   3.339   0.146  0.00  0.00    +0.142 C 
ATOM      5  C   UNL     1       0.585   3.879  -1.115  0.00  0.00    -0.001 A 
ATOM      6  C   UNL     1       0.971   3.867  -2.437  0.00  0.00    +0.022 A 
ATOM      7  C   UNL     1       0.169   4.458  -3.397  0.00  0.00    +0.018 A 
ATOM      8  C   UNL     1      -1.021   5.059  -3.025  0.00  0.00    +0.017 A 
ATOM      9  C   UNL     1      -1.411   5.073  -1.702  0.00  0.00    +0.025 A 
ATOM     10  C   UNL     1      -0.608   4.480  -0.730  0.00  0.00    +0.038 A 
ATOM     11  N   UNL     1      -0.781   4.365   0.651  0.00  0.00    -0.284 N 
ATOM     12  C   UNL     1       0.236   3.712   1.239  0.00  0.00    +0.237 C 
ATOM     13  O   UNL     1       0.351   3.468   2.422  0.00  0.00    -0.274 OA
ATOM     14 BR   UNL     1       0.696   4.444  -5.213  0.00  0.00    -0.050 Br
ATOM     15  C   UNL     1       1.356   1.846   0.064  0.00  0.00    +0.117 C 
ATOM     16  C   UNL     1       2.582   1.283  -0.104  0.00  0.00    +0.195 C 
ATOM     17  O   UNL     1       3.693   2.029  -0.217  0.00  0.00    -0.446 OA
ATOM     18  H   UNL     1      -1.548   4.716   1.131  0.00  0.00    +0.155 HD
ENDROOT
BRANCH  16  19
ATOM     19  N   UNL     1       2.686  -0.081  -0.165  0.00  0.00    -0.329 N 
ATOM     20  H   UNL     1       1.905  -0.635  -0.008  0.00  0.00    +0.145 HD
ATOM     21  H   UNL     1       3.541  -0.494  -0.365  0.00  0.00    +0.145 HD
ENDBRANCH  16  19
BRANCH  15  22
ATOM     22  C   UNL     1       0.221   1.028   0.167  0.00  0.00    +0.342 C 
ATOM     23  O   UNL     1      -0.494   0.853  -0.803  0.00  0.00    -0.245 OA
BRANCH  22  24
ATOM     24  O   UNL     1      -0.082   0.439   1.344  0.00  0.00    -0.456 OA
BRANCH  24  25
ATOM     25  C   UNL     1      -1.255  -0.376   1.379  0.00  0.00    +0.268 C 
BRANCH  25  26
ATOM     26  C   UNL     1      -1.431  -0.946   2.763  0.00  0.00    -0.010 A 
ATOM     27  C   UNL     1      -0.863  -2.164   3.086  0.00  0.00    +0.007 A 
ATOM     28  C   UNL     1      -1.020  -2.685   4.357  0.00  0.00    +0.000 A 
ATOM     29  C   UNL     1      -1.754  -1.992   5.301  0.00  0.00    +0.000 A 
ATOM     30  C   UNL     1      -2.326  -0.776   4.977  0.00  0.00    +0.000 A 
ATOM     31  C   UNL     1      -2.165  -0.253   3.707  0.00  0.00    +0.007 A 
ENDBRANCH  25  26
ENDBRANCH  24  25
ENDBRANCH  22  24
ENDBRANCH  15  22
BRANCH   3  32
ATOM     32  C   UNL     1       2.598   5.331   0.829  0.00  0.00    +0.194 C 
ATOM     33  O   UNL     1       2.413   6.237   0.036  0.00  0.00    -0.287 OA
BRANCH  32  34
ATOM     34  C   UNL     1       2.881   5.637   2.248  0.00  0.00    +0.022 A 
ATOM     35  C   UNL     1       3.142   4.603   3.149  0.00  0.00    +0.012 A 
ATOM     36  C   UNL     1       3.411   4.896   4.471  0.00  0.00    +0.001 A 
ATOM     37  C   UNL     1       3.410   6.209   4.906  0.00  0.00    +0.000 A 
ATOM     38  C   UNL     1       3.147   7.238   4.019  0.00  0.00    +0.001 A 
ATOM     39  C   UNL     1       2.882   6.960   2.694  0.00  0.00    +0.012 A 
ENDBRANCH  32  34
ENDBRANCH   3  32
TORSDOF 7
