REMARK  Name = ZINC03290140
REMARK  4 active torsions:
REMARK  status: ('A' for Active; 'I' for Inactive)
REMARK    1  A    between atoms: C_1  and  C_2
REMARK    2  A    between atoms: N_5  and  C_7
REMARK    3  A    between atoms: C_25  and  C_27
REMARK    4  A    between atoms: C_30  and  N_33
REMARK                            x       y       z     vdW  Elec       q    Type
REMARK                         _______ _______ _______ _____ _____    ______ ____
ROOT
ATOM      1  C   UNL     1       1.177  -0.100  -2.841  0.00  0.00    +0.068 C 
ATOM      2  C   UNL     1       2.507   0.582  -2.643  0.00  0.00    +0.068 A 
ATOM      3  C   UNL     1       3.009   1.043  -1.435  0.00  0.00    +0.043 A 
ATOM      4  C   UNL     1       4.253   1.605  -1.669  0.00  0.00    +0.141 A 
ATOM      5  N   UNL     1       4.490   1.478  -3.011  0.00  0.00    -0.216 N 
ATOM      6  N   UNL     1       3.383   0.838  -3.584  0.00  0.00    -0.169 NA
ATOM      7  N   UNL     1       4.970   2.135  -0.657  0.00  0.00    -0.328 N 
ATOM      8  C   UNL     1       4.581   2.172   0.603  0.00  0.00    +0.105 C 
ATOM      9  C   UNL     1       5.448   2.764   1.558  0.00  0.00    +0.043 C 
ATOM     10  C   UNL     1       5.097   2.833   2.861  0.00  0.00    +0.013 C 
ATOM     11  C   UNL     1       3.806   2.283   3.283  0.00  0.00    -0.004 A 
ATOM     12  C   UNL     1       3.403   2.329   4.620  0.00  0.00    +0.010 A 
ATOM     13  C   UNL     1       2.183   1.802   4.983  0.00  0.00    +0.001 A 
ATOM     14  C   UNL     1       1.355   1.228   4.029  0.00  0.00    +0.002 A 
ATOM     15  C   UNL     1       1.738   1.175   2.705  0.00  0.00    +0.024 A 
ATOM     16  C   UNL     1       2.965   1.700   2.317  0.00  0.00    +0.043 A 
ATOM     17  N   UNL     1       3.369   1.657   0.998  0.00  0.00    -0.274 N 
ATOM     18  C   UNL     1       2.490   1.048  -0.016  0.00  0.00    +0.146 C 
ATOM     19  H   UNL     1       5.945   2.556  -0.944  0.00  0.00    +0.169 HD
ENDROOT
BRANCH   5  20
ATOM     20  C   UNL     1       5.635   1.911  -3.691  0.00  0.00    +0.068 A 
ATOM     21  C   UNL     1       6.280   3.076  -3.297  0.00  0.00    +0.029 A 
ATOM     22  C   UNL     1       7.412   3.498  -3.966  0.00  0.00    +0.022 A 
ATOM     23  C   UNL     1       7.898   2.766  -5.035  0.00  0.00    +0.041 A 
ATOM     24  C   UNL     1       7.255   1.608  -5.434  0.00  0.00    +0.022 A 
ATOM     25  C   UNL     1       6.125   1.179  -4.765  0.00  0.00    +0.029 A 
ATOM     26 CL   UNL     1       9.318   3.303  -5.878  0.00  0.00    -0.084 Cl
ENDBRANCH   5  20
BRANCH  18  27
ATOM     27  C   UNL     1       1.175   1.783   0.000  0.00  0.00    -0.022 A 
ATOM     28  C   UNL     1      -0.013   1.076   0.008  0.00  0.00    +0.008 A 
ATOM     29  C   UNL     1      -1.219   1.751   0.017  0.00  0.00    +0.033 A 
ATOM     30  C   UNL     1      -1.238   3.133   0.029  0.00  0.00    +0.126 A 
ATOM     31  C   UNL     1      -0.050   3.840   0.022  0.00  0.00    +0.033 A 
ATOM     32  C   UNL     1       1.156   3.165   0.008  0.00  0.00    +0.008 A 
BRANCH  30  33
ATOM     33  N   UNL     1      -2.529   3.855   0.044  0.00  0.00    +0.056 N 
ATOM     34  O   UNL     1      -2.546   5.073   0.050  0.00  0.00    -0.126 OA
ATOM     35  O   UNL     1      -3.576   3.232   0.050  0.00  0.00    -0.126 OA
ENDBRANCH  30  33
ENDBRANCH  18  27
TORSDOF 3
