REMARK  Name = ZINC08072332
REMARK  6 active torsions:
REMARK  status: ('A' for Active; 'I' for Inactive)
REMARK    1  A    between atoms: C_1  and  C_2
REMARK    2  A    between atoms: C_2  and  C_4
REMARK    3  A    between atoms: C_2  and  N_13
REMARK    4  A    between atoms: C_14  and  C_16
REMARK    5  A    between atoms: C_16  and  C_17
REMARK    6  A    between atoms: C_17  and  N_18
REMARK                            x       y       z     vdW  Elec       q    Type
REMARK                         _______ _______ _______ _____ _____    ______ ____
ROOT
ATOM      1  N   UNL     1      -1.067  -2.103   0.585  0.00  0.00    -0.309 N 
ATOM      2  C   UNL     1      -2.086  -2.772   1.158  0.00  0.00    +0.215 C 
ATOM      3  O   UNL     1      -3.192  -2.275   1.199  0.00  0.00    -0.276 OA
ATOM      4  H   UNL     1      -0.182  -2.502   0.553  0.00  0.00    +0.149 HD
ENDROOT
BRANCH   1   6
ATOM      5  C   UNL     1      -1.810  -0.920  -1.422  0.00  0.00    +0.033 C 
ATOM      6  C   UNL     1      -1.293  -0.775   0.011  0.00  0.00    +0.102 C 
BRANCH   6   7
ATOM      7  C   UNL     1       0.002  -0.004   0.002  0.00  0.00    -0.006 A 
ATOM      8  C   UNL     1       1.208  -0.680  -0.013  0.00  0.00    +0.046 A 
ATOM      9  C   UNL     1       2.397   0.028  -0.020  0.00  0.00    +0.142 A 
ATOM     10  C   UNL     1       2.379   1.414  -0.013  0.00  0.00    +0.077 A 
ATOM     11  C   UNL     1       1.172   2.088   0.002  0.00  0.00    +0.043 A 
ATOM     12  C   UNL     1      -0.017   1.379   0.010  0.00  0.00    +0.047 A 
ATOM     13 CL   UNL     1      -1.532   2.226   0.021  0.00  0.00    -0.083 Cl
ATOM     14 CL   UNL     1       3.870   2.302  -0.022  0.00  0.00    -0.081 Cl
ATOM     15  F   UNL     1       3.576  -0.632  -0.035  0.00  0.00    -0.204 F 
ENDBRANCH   6   7
ENDBRANCH   1   6
BRANCH   2  16
ATOM     16  C   UNL     1      -1.853  -4.139   1.749  0.00  0.00    +0.115 C 
BRANCH  16  17
ATOM     17  C   UNL     1      -3.164  -4.673   2.331  0.00  0.00    +0.127 C 
BRANCH  17  18
ATOM     18  N   UNL     1      -2.938  -6.002   2.905  0.00  0.00    -0.224 N 
ATOM     19  C   UNL     1      -2.574  -6.223   4.187  0.00  0.00    +0.247 C 
ATOM     20  O   UNL     1      -2.379  -5.394   5.050  0.00  0.00    -0.273 OA
ATOM     21  C   UNL     1      -2.461  -7.721   4.316  0.00  0.00    +0.113 C 
ATOM     22  C   UNL     1      -3.430  -8.257   5.378  0.00  0.00    +0.035 C 
ATOM     23  C   UNL     1      -2.661  -9.438   6.025  0.00  0.00    +0.003 C 
ATOM     24  C   UNL     1      -1.199  -8.923   6.052  0.00  0.00    +0.003 C 
ATOM     25  C   UNL     1      -1.048  -8.139   4.730  0.00  0.00    +0.035 C 
ATOM     26  N   UNL     1      -2.801  -8.229   2.985  0.00  0.00    -0.285 N 
ATOM     27  C   UNL     1      -3.071  -7.149   2.226  0.00  0.00    +0.309 C 
ATOM     28  O   UNL     1      -3.396  -7.208   1.057  0.00  0.00    -0.252 OA
ATOM     29  H   UNL     1      -2.830  -9.158   2.707  0.00  0.00    +0.151 HD
ENDBRANCH  17  18
ENDBRANCH  16  17
ENDBRANCH   2  16
TORSDOF 5
