REMARK  Name = ZINC38938501
REMARK  11 active torsions:
REMARK  status: ('A' for Active; 'I' for Inactive)
REMARK    1  A    between atoms: C_1  and  C_2
REMARK    2  A    between atoms: C_2  and  O_3
REMARK    3  A    between atoms: O_3  and  C_4
REMARK    4  A    between atoms: C_6  and  C_11
REMARK    5  A    between atoms: C_9  and  O_10
REMARK    6  A    between atoms: N_12  and  N_13
REMARK    7  A    between atoms: C_14  and  C_20
REMARK    8  A    between atoms: C_23  and  C_26
REMARK    9  A    between atoms: C_26  and  C_27
REMARK   10  A    between atoms: C_26  and  C_28
REMARK   11  A    between atoms: C_26  and  C_29
REMARK                            x       y       z     vdW  Elec       q    Type
REMARK                         _______ _______ _______ _____ _____    ______ ____
ROOT
ATOM      1  N   UNL     1      -0.550  -7.118   1.292  0.00  0.00    -0.172 N 
ATOM      2  C   UNL     1      -0.419  -8.586   1.339  0.00  0.00    +0.264 C 
ATOM      3  N   UNL     1      -1.056  -8.957   2.612  0.00  0.00    -0.189 NA
ATOM      4  N   UNL     1      -1.456  -7.924   3.156  0.00  0.00    -0.219 N 
ATOM      5  C   UNL     1      -1.189  -6.798   2.440  0.00  0.00    +0.174 C 
ATOM      6  S   UNL     1      -1.604  -5.209   2.921  0.00  0.00    -0.015 S 
ATOM      7  H   UNL     1      -1.912  -7.915   4.011  0.00  0.00    +0.176 HD
ENDROOT
BRANCH   2   8
ATOM      8  C   UNL     1      -1.141  -9.219   0.178  0.00  0.00    -0.002 A 
ATOM      9  C   UNL     1      -1.254  -8.538  -1.020  0.00  0.00    +0.008 A 
ATOM     10  C   UNL     1      -1.916  -9.119  -2.085  0.00  0.00    +0.004 A 
ATOM     11  C   UNL     1      -2.466 -10.380  -1.953  0.00  0.00    -0.042 A 
ATOM     12  C   UNL     1      -2.353 -11.061  -0.755  0.00  0.00    +0.004 A 
ATOM     13  C   UNL     1      -1.686 -10.482   0.309  0.00  0.00    +0.008 A 
BRANCH  11  14
ATOM     14  C   UNL     1      -3.189 -11.013  -3.114  0.00  0.00    -0.013 C 
ATOM     15  C   UNL     1      -2.231 -11.150  -4.298  0.00  0.00    +0.015 C 
ATOM     16  C   UNL     1      -3.697 -12.397  -2.705  0.00  0.00    +0.015 C 
ATOM     17  C   UNL     1      -4.375 -10.133  -3.516  0.00  0.00    +0.015 C 
ENDBRANCH  11  14
ENDBRANCH   2   8
BRANCH   1  19
ATOM     18  C   UNL     1      -0.396  -4.984   0.348  0.00  0.00    +0.138 C 
ATOM     19  N   UNL     1      -0.107  -6.249   0.287  0.00  0.00    -0.183 NA
BRANCH  18  22
ATOM     20  C   UNL     1       0.369  -1.823  -1.527  0.00  0.00    +0.162 A 
ATOM     21  C   UNL     1      -0.153  -2.692  -0.588  0.00  0.00    +0.059 A 
ATOM     22  C   UNL     1       0.157  -4.053  -0.651  0.00  0.00    -0.002 A 
ATOM     23  C   UNL     1       0.993  -4.528  -1.665  0.00  0.00    +0.013 A 
ATOM     24  C   UNL     1       1.510  -3.655  -2.599  0.00  0.00    +0.050 A 
ATOM     25  C   UNL     1       1.197  -2.305  -2.538  0.00  0.00    +0.158 A 
BRANCH  25  26
ATOM     26  O   UNL     1       1.705  -1.449  -3.465  0.00  0.00    -0.503 OA
ATOM     27  H   UNL     1       2.558  -1.065  -3.219  0.00  0.00    +0.292 HD
ENDBRANCH  25  26
BRANCH  20  28
ATOM     28  O   UNL     1       0.069  -0.497  -1.468  0.00  0.00    -0.489 OA
BRANCH  28  30
ATOM     29  C   UNL     1      -1.009   1.438  -0.502  0.00  0.00    +0.048 C 
ATOM     30  C   UNL     1      -0.786  -0.072  -0.405  0.00  0.00    +0.226 C 
ENDBRANCH  28  30
ENDBRANCH  20  28
ENDBRANCH  18  22
ENDBRANCH   1  19
TORSDOF 7
