REMARK  Name = ZINC02251950
REMARK  6 active torsions:
REMARK  status: ('A' for Active; 'I' for Inactive)
REMARK    1  A    between atoms: C_1  and  C_2
REMARK    2  A    between atoms: N_8  and  C_9
REMARK    3  A    between atoms: C_9  and  C_10
REMARK    4  A    between atoms: C_15  and  C_23
REMARK    5  A    between atoms: C_17  and  C_21
REMARK    6  A    between atoms: C_18  and  N_20
REMARK                            x       y       z     vdW  Elec       q    Type
REMARK                         _______ _______ _______ _____ _____    ______ ____
ROOT
ATOM      1  C   UNL     1      -0.628   4.362  -1.248  0.00  0.00    +0.064 C 
ATOM      2  C   UNL     1       0.678   4.269  -1.993  0.00  0.00    +0.023 A 
ATOM      3  C   UNL     1       0.754   4.718  -3.264  0.00  0.00    +0.068 A 
ATOM      4  C   UNL     1       1.974   4.634  -3.965  0.00  0.00    +0.141 A 
ATOM      5  C   UNL     1       3.072   4.090  -3.332  0.00  0.00    +0.072 A 
ATOM      6  C   UNL     1       2.948   3.641  -2.011  0.00  0.00    +0.260 A 
ATOM      7  O   UNL     1       3.913   3.162  -1.436  0.00  0.00    -0.267 OA
ATOM      8  N   UNL     1       1.764   3.734  -1.376  0.00  0.00    -0.305 N 
ATOM      9  C   UNL     1       4.393   3.980  -4.043  0.00  0.00    +0.103 C 
ATOM     10  C   UNL     1       4.402   4.867  -5.257  0.00  0.00    +0.098 C 
ATOM     11  C   UNL     1       3.253   5.359  -5.776  0.00  0.00    +0.199 C 
ATOM     12  O   UNL     1       2.053   5.083  -5.236  0.00  0.00    -0.441 OA
ENDROOT
BRANCH   9  13
ATOM     13  C   UNL     1       4.616   2.551  -4.466  0.00  0.00    -0.034 A 
ATOM     14  C   UNL     1       3.726   1.940  -5.330  0.00  0.00    +0.005 A 
ATOM     15  C   UNL     1       3.932   0.630  -5.722  0.00  0.00    +0.015 A 
ATOM     16  C   UNL     1       5.023  -0.071  -5.242  0.00  0.00    +0.018 A 
ATOM     17  C   UNL     1       5.911   0.539  -4.374  0.00  0.00    +0.015 A 
ATOM     18  C   UNL     1       5.706   1.850  -3.986  0.00  0.00    +0.005 A 
ATOM     19 BR   UNL     1       5.303  -1.865  -5.773  0.00  0.00    -0.050 Br
ENDBRANCH   9  13
BRANCH  11  20
ATOM     20  N   UNL     1       3.314   6.164  -6.887  0.00  0.00    -0.328 N 
ATOM     21  H   UNL     1       2.499   6.524  -7.270  0.00  0.00    +0.145 HD
ATOM     22  H   UNL     1       4.172   6.372  -7.288  0.00  0.00    +0.145 HD
ENDBRANCH  11  20
BRANCH  10  23
ATOM     23  C   UNL     1       5.651   5.196  -5.877  0.00  0.00    +0.101 C 
ATOM     24  N   UNL     1       6.641   5.457  -6.369  0.00  0.00    -0.191 NA
ENDBRANCH  10  23
BRANCH   8  25
ATOM     25  C   UNL     1       1.647   3.256   0.004  0.00  0.00    +0.199 C 
BRANCH  25  26
ATOM     26  C   UNL     1       1.244   1.804  -0.000  0.00  0.00    +0.125 A 
ATOM     27  C   UNL     1       2.084   0.754  -0.014  0.00  0.00    +0.046 A 
ATOM     28  C   UNL     1       1.284  -0.412  -0.012  0.00  0.00    +0.041 A 
ATOM     29  C   UNL     1       0.002  -0.004   0.002  0.00  0.00    +0.195 A 
ATOM     30  O   UNL     1      -0.016   1.339   0.009  0.00  0.00    -0.466 OA
ENDBRANCH  25  26
ENDBRANCH   8  25
TORSDOF 5
