REMARK  Name = ZINC09384173
REMARK  8 active torsions:
REMARK  status: ('A' for Active; 'I' for Inactive)
REMARK    1  A    between atoms: C_1  and  C_2
REMARK    2  A    between atoms: C_2  and  N_59
REMARK    3  A    between atoms: C_8  and  N_19
REMARK    4  A    between atoms: C_9  and  C_10
REMARK    5  A    between atoms: C_20  and  C_22
REMARK    6  A    between atoms: C_25  and  S_28
REMARK    7  A    between atoms: S_28  and  C_31
REMARK    8  A    between atoms: C_31  and  C_32
REMARK                            x       y       z     vdW  Elec       q    Type
REMARK                         _______ _______ _______ _____ _____    ______ ____
ROOT
ATOM      1  C   UNL     1      -6.006   7.533  -0.377  0.00  0.00    -0.074 C 
ATOM      2  C   UNL     1      -4.541   7.441   0.060  0.00  0.00    +0.018 C 
ATOM      3  C   UNL     1      -4.133   5.971   0.054  0.00  0.00    -0.029 A 
ATOM      4  C   UNL     1      -5.086   5.008   0.054  0.00  0.00    -0.021 A 
ATOM      5  S   UNL     1      -4.187   3.483   0.033  0.00  0.00    -0.079 S 
ATOM      6  C   UNL     1      -2.530   4.146   0.037  0.00  0.00    +0.082 A 
ATOM      7  C   UNL     1      -2.758   5.513   0.045  0.00  0.00    +0.039 A 
ATOM      8  C   UNL     1      -6.568   5.219   0.064  0.00  0.00    -0.035 C 
ATOM      9  N   UNL     1      -6.823   6.626   0.455  0.00  0.00    +0.383 N 
ATOM     10  H   UNL     1      -6.564   6.752   1.440  0.00  0.00    -0.081 HD
ENDROOT
BRANCH   7  11
ATOM     11  C   UNL     1      -1.639   6.470   0.045  0.00  0.00    +0.112 A 
ATOM     12  N   UNL     1      -1.677   7.787   0.046  0.00  0.00    -0.239 NA
ATOM     13  C   UNL     1      -0.561   8.543   0.050  0.00  0.00    +0.079 A 
ATOM     14  C   UNL     1      -0.462   9.955   0.057  0.00  0.00    +0.029 A 
ATOM     15  C   UNL     1       0.761  10.571   0.054  0.00  0.00    +0.002 A 
ATOM     16  C   UNL     1       1.941   9.841   0.045  0.00  0.00    +0.001 A 
ATOM     17  C   UNL     1       1.883   8.459   0.038  0.00  0.00    +0.017 A 
ATOM     18  C   UNL     1       0.662   7.832   0.041  0.00  0.00    +0.040 A 
ATOM     19  S   UNL     1       0.118   6.141   0.035  0.00  0.00    -0.067 S 
ENDBRANCH   7  11
BRANCH   6  20
ATOM     20  N   UNL     1      -1.320   3.464   0.027  0.00  0.00    -0.275 N 
ATOM     21  C   UNL     1      -1.305   2.117   0.020  0.00  0.00    +0.249 C 
ATOM     22  O   UNL     1      -2.351   1.497   0.021  0.00  0.00    -0.270 OA
ATOM     23  H   UNL     1      -0.485   3.958   0.026  0.00  0.00    +0.156 HD
BRANCH  21  24
ATOM     24  C   UNL     1      -0.017   1.392   0.010  0.00  0.00    +0.037 A 
ATOM     25  C   UNL     1       1.186   2.100   0.002  0.00  0.00    +0.015 A 
ATOM     26  C   UNL     1       2.385   1.417  -0.013  0.00  0.00    +0.027 A 
ATOM     27  C   UNL     1       2.396   0.034  -0.021  0.00  0.00    +0.088 A 
ATOM     28  C   UNL     1       1.208  -0.674  -0.013  0.00  0.00    +0.027 A 
ATOM     29  C   UNL     1       0.002  -0.004   0.002  0.00  0.00    +0.015 A 
BRANCH  27  30
ATOM     30  S   UNL     1       3.932  -0.830  -0.039  0.00  0.00    -0.003 S 
ATOM     31  O   UNL     1       4.859   0.065   0.559  0.00  0.00    -0.169 OA
ATOM     32  O   UNL     1       3.648  -2.087   0.560  0.00  0.00    -0.169 OA
BRANCH  30  33
ATOM     33  C   UNL     1       4.322  -1.050  -1.797  0.00  0.00    +0.168 C 
ATOM     34  C   UNL     1       5.650  -1.797  -1.936  0.00  0.00    +0.028 C 
ENDBRANCH  30  33
ENDBRANCH  27  30
ENDBRANCH  21  24
ENDBRANCH   6  20
BRANCH   9  36
ATOM     35  C   UNL     1      -9.095   5.838   0.935  0.00  0.00    -0.017 C 
ATOM     36  C   UNL     1      -8.258   6.945   0.291  0.00  0.00    -0.082 C 
ENDBRANCH   9  36
TORSDOF 6
