REMARK  Name = ZINC09378508
REMARK  8 active torsions:
REMARK  status: ('A' for Active; 'I' for Inactive)
REMARK    1  A    between atoms: C_3  and  C_20
REMARK    2  A    between atoms: C_5  and  S_7
REMARK    3  A    between atoms: S_7  and  N_10
REMARK    4  A    between atoms: N_10  and  C_11
REMARK    5  A    between atoms: N_22  and  C_23
REMARK    6  A    between atoms: C_23  and  C_24
REMARK    7  A    between atoms: C_24  and  C_26
REMARK    8  A    between atoms: C_24  and  N_59
REMARK                            x       y       z     vdW  Elec       q    Type
REMARK                         _______ _______ _______ _____ _____    ______ ____
ROOT
ATOM      1  C   UNL     1      -1.157   7.011  -3.802  0.00  0.00    +0.003 A 
ATOM      2  C   UNL     1      -1.568   5.705  -3.630  0.00  0.00    +0.013 A 
ATOM      3  C   UNL     1      -2.475   5.138  -4.526  0.00  0.00    +0.039 A 
ATOM      4  C   UNL     1      -2.969   5.901  -5.585  0.00  0.00    +0.041 A 
ATOM      5  C   UNL     1      -2.555   7.207  -5.743  0.00  0.00    +0.109 A 
ATOM      6  C   UNL     1      -1.651   7.761  -4.854  0.00  0.00    +0.029 A 
ENDROOT
BRANCH   3   7
ATOM      7  C   UNL     1      -2.915   3.737  -4.351  0.00  0.00    +0.244 C 
ATOM      8  O   UNL     1      -3.708   3.248  -5.130  0.00  0.00    -0.270 OA
ATOM      9  N   UNL     1      -2.435   3.003  -3.327  0.00  0.00    -0.312 N 
ATOM     10  H   UNL     1      -1.802   3.394  -2.705  0.00  0.00    +0.149 HD
BRANCH   9  11
ATOM     11  C   UNL     1      -2.871   1.615  -3.153  0.00  0.00    +0.097 C 
BRANCH  11  12
ATOM     12  C   UNL     1      -2.183   1.014  -1.926  0.00  0.00    +0.016 C 
BRANCH  12  17
ATOM     13  C   UNL     1      -2.030   1.179   0.498  0.00  0.00    -0.078 C 
ATOM     14  C   UNL     1      -2.821   1.894   1.614  0.00  0.00    -0.020 C 
ATOM     15  C   UNL     1      -4.054   2.496   0.903  0.00  0.00    -0.020 C 
ATOM     16  C   UNL     1      -3.900   2.094  -0.579  0.00  0.00    -0.078 C 
ATOM     17  N   UNL     1      -2.459   1.859  -0.721  0.00  0.00    +0.387 N 
ATOM     18  H   UNL     1      -1.964   2.754  -0.816  0.00  0.00    -0.081 HD
ENDBRANCH  12  17
BRANCH  12  19
ATOM     19  C   UNL     1      -2.722  -0.370  -1.675  0.00  0.00    +0.093 A 
ATOM     20  C   UNL     1      -2.069  -1.523  -1.907  0.00  0.00    +0.043 A 
ATOM     21  C   UNL     1      -2.940  -2.571  -1.530  0.00  0.00    +0.041 A 
ATOM     22  C   UNL     1      -4.076  -1.996  -1.097  0.00  0.00    +0.195 A 
ATOM     23  O   UNL     1      -3.939  -0.663  -1.188  0.00  0.00    -0.469 OA
ENDBRANCH  12  19
ENDBRANCH  11  12
ENDBRANCH   9  11
ENDBRANCH   3   7
BRANCH   5  24
ATOM     24  S   UNL     1      -3.178   8.171  -7.079  0.00  0.00    +0.072 S 
ATOM     25  O   UNL     1      -2.166   9.113  -7.407  0.00  0.00    -0.150 OA
ATOM     26  O   UNL     1      -3.704   7.256  -8.030  0.00  0.00    -0.150 OA
BRANCH  24  27
ATOM     27  N   UNL     1      -4.463   9.041  -6.499  0.00  0.00    -0.216 N 
ATOM     28  H   UNL     1      -4.424  10.010  -6.481  0.00  0.00    +0.174 HD
BRANCH  27  29
ATOM     29  C   UNL     1      -5.604   8.377  -6.034  0.00  0.00    +0.052 A 
ATOM     30  C   UNL     1      -6.151   7.337  -6.773  0.00  0.00    +0.028 A 
ATOM     31  C   UNL     1      -7.275   6.677  -6.312  0.00  0.00    +0.051 A 
ATOM     32  C   UNL     1      -7.864   7.058  -5.118  0.00  0.00    +0.166 A 
ATOM     33  C   UNL     1      -7.321   8.105  -4.377  0.00  0.00    +0.168 A 
ATOM     34  C   UNL     1      -6.191   8.762  -4.837  0.00  0.00    +0.074 A 
ATOM     35  O   UNL     1      -8.076   8.284  -3.254  0.00  0.00    -0.453 OA
ATOM     36  C   UNL     1      -9.321   7.610  -3.517  0.00  0.00    +0.466 C 
ATOM     37  O   UNL     1      -8.961   6.581  -4.458  0.00  0.00    -0.453 OA
ENDBRANCH  27  29
ENDBRANCH  24  27
ENDBRANCH   5  24
TORSDOF 8
