REMARK  Name = ZINC08855710
REMARK  6 active torsions:
REMARK  status: ('A' for Active; 'I' for Inactive)
REMARK    1  A    between atoms: C_1  and  C_2
REMARK    2  A    between atoms: C_2  and  C_4
REMARK    3  A    between atoms: C_2  and  N_19
REMARK    4  A    between atoms: C_11  and  N_61
REMARK    5  A    between atoms: N_19  and  S_20
REMARK    6  A    between atoms: S_20  and  C_23
REMARK                            x       y       z     vdW  Elec       q    Type
REMARK                         _______ _______ _______ _____ _____    ______ ____
ROOT
ATOM      1  C   UNL     1       4.422   1.127   2.855  0.00  0.00    +0.035 C 
ATOM      2  C   UNL     1       4.457   0.324   1.553  0.00  0.00    +0.159 C 
ENDROOT
BRANCH   2   3
ATOM      3  C   UNL     1       3.219  -0.530   1.456  0.00  0.00    +0.234 C 
ATOM      4  O   UNL     1       3.280  -1.716   1.704  0.00  0.00    -0.274 OA
ATOM      5  N   UNL     1       2.045   0.024   1.095  0.00  0.00    -0.304 N 
ATOM      6  C   UNL     1       0.805  -0.767   1.096  0.00  0.00    +0.089 C 
ATOM      7  C   UNL     1       0.119  -0.600  -0.265  0.00  0.00    -0.059 C 
ATOM      8  C   UNL     1       1.238   1.516  -0.656  0.00  0.00    -0.059 C 
ATOM      9  C   UNL     1       1.969   1.435   0.688  0.00  0.00    +0.089 C 
ATOM     10  N   UNL     1      -0.073   0.844  -0.524  0.00  0.00    +0.385 N 
ATOM     11  H   UNL     1      -0.583   1.259   0.264  0.00  0.00    -0.081 HD
BRANCH  10  12
ATOM     12  C   UNL     1      -0.863   1.033  -1.759  0.00  0.00    -0.046 C 
ATOM     13  C   UNL     1      -2.251   0.400  -1.570  0.00  0.00    +0.009 C 
ATOM     14  C   UNL     1      -3.205   0.877  -2.692  0.00  0.00    +0.164 C 
ATOM     15  S   UNL     1      -2.522   2.527  -3.129  0.00  0.00    -0.033 S 
ATOM     16  O   UNL     1      -2.076   2.500  -4.479  0.00  0.00    -0.174 OA
ATOM     17  O   UNL     1      -3.438   3.531  -2.715  0.00  0.00    -0.174 OA
ATOM     18  C   UNL     1      -1.055   2.555  -2.014  0.00  0.00    +0.151 C 
ENDBRANCH  10  12
ENDBRANCH   2   3
BRANCH   2  19
ATOM     19  N   UNL     1       5.644  -0.533   1.539  0.00  0.00    -0.178 NA
ATOM     20  H   UNL     1       5.619  -1.404   1.966  0.00  0.00    +0.149 HD
BRANCH  19  21
ATOM     21  S   UNL     1       7.031  -0.017   0.795  0.00  0.00    +0.059 S 
ATOM     22  O   UNL     1       7.995  -1.044   0.974  0.00  0.00    -0.153 OA
ATOM     23  O   UNL     1       6.650   0.455  -0.490  0.00  0.00    -0.153 OA
BRANCH  21  24
ATOM     24  C   UNL     1       7.613   1.383   1.693  0.00  0.00    +0.109 A 
ATOM     25  C   UNL     1       8.489   1.209   2.749  0.00  0.00    +0.032 A 
ATOM     26  C   UNL     1       8.951   2.303   3.458  0.00  0.00    +0.051 A 
ATOM     27  C   UNL     1       8.533   3.575   3.106  0.00  0.00    +0.162 A 
ATOM     28  C   UNL     1       7.655   3.750   2.046  0.00  0.00    +0.164 A 
ATOM     29  C   UNL     1       7.198   2.653   1.335  0.00  0.00    +0.078 A 
ATOM     30  O   UNL     1       7.249   5.008   1.708  0.00  0.00    -0.488 OA
ATOM     31  C   UNL     1       6.406   5.669   2.654  0.00  0.00    +0.232 C 
ATOM     32  C   UNL     1       7.235   6.347   3.733  0.00  0.00    +0.082 C 
ATOM     33  C   UNL     1       8.007   5.350   4.583  0.00  0.00    +0.232 C 
ATOM     34  O   UNL     1       8.983   4.663   3.796  0.00  0.00    -0.488 OA
ENDBRANCH  21  24
ENDBRANCH  19  21
ENDBRANCH   2  19
TORSDOF 5
