REMARK  Name = ZINC55023709
REMARK  5 active torsions:
REMARK  status: ('A' for Active; 'I' for Inactive)
REMARK    1  A    between atoms: C_4  and  C_7
REMARK    2  A    between atoms: C_7  and  C_9
REMARK    3  A    between atoms: C_7  and  O_13
REMARK    4  A    between atoms: C_9  and  C_10
REMARK    5  A    between atoms: O_13  and  C_14
REMARK                            x       y       z     vdW  Elec       q    Type
REMARK                         _______ _______ _______ _____ _____    ______ ____
ROOT
ATOM      1  C   UNL     1       3.707  -0.698  -0.049  0.00  0.00    +0.211 C 
ENDROOT
BRANCH   1   5
ATOM      2  C   UNL     1       0.047   1.500  -0.198  0.00  0.00    +0.000 A 
ATOM      3  C   UNL     1       1.255   2.170  -0.161  0.00  0.00    +0.000 A 
ATOM      4  C   UNL     1       2.439   1.459  -0.112  0.00  0.00    +0.007 A 
ATOM      5  C   UNL     1       2.416   0.077  -0.101  0.00  0.00    -0.007 A 
ATOM      6  C   UNL     1       1.208  -0.594  -0.137  0.00  0.00    +0.007 A 
ATOM      7  C   UNL     1       0.023   0.117  -0.187  0.00  0.00    +0.000 A 
ENDBRANCH   1   5
BRANCH   1   8
ATOM      8  C   UNL     1       3.966  -1.163   1.386  0.00  0.00    +0.118 C 
BRANCH   8   9
ATOM      9  C   UNL     1       5.314  -1.831   1.462  0.00  0.00    +0.067 C 
ATOM     10  N   UNL     1       5.419  -3.132   1.257  0.00  0.00    -0.390 N 
ATOM     11  N   UNL     1       6.392  -1.115   1.734  0.00  0.00    -0.348 N 
ATOM     12  H   UNL     1       6.287  -3.562   1.306  0.00  0.00    +0.157 HD
ATOM     13  H   UNL     1       6.314  -0.160   1.885  0.00  0.00    +0.143 HD
ATOM     14  H   UNL     1       7.260  -1.546   1.783  0.00  0.00    +0.143 HD
ATOM     15  H   UNL     1       4.628  -3.657   1.057  0.00  0.00    +0.157 HD
ENDBRANCH   8   9
ENDBRANCH   1   8
BRANCH   1  16
ATOM     16  O   UNL     1       3.614  -1.836  -0.908  0.00  0.00    -0.482 OA
BRANCH  16  17
ATOM     17  C   UNL     1       4.726  -2.168  -1.615  0.00  0.00    +0.141 A 
ATOM     18  C   UNL     1       5.916  -1.488  -1.398  0.00  0.00    +0.067 A 
ATOM     19  C   UNL     1       7.046  -1.828  -2.118  0.00  0.00    +0.045 A 
ATOM     20  C   UNL     1       6.992  -2.845  -3.055  0.00  0.00    +0.021 A 
ATOM     21  C   UNL     1       5.807  -3.523  -3.273  0.00  0.00    +0.025 A 
ATOM     22  C   UNL     1       4.676  -3.191  -2.552  0.00  0.00    +0.083 A 
ATOM     23 CL   UNL     1       3.190  -4.048  -2.822  0.00  0.00    -0.080 Cl
ATOM     24 CL   UNL     1       8.535  -0.978  -1.846  0.00  0.00    -0.083 Cl
ENDBRANCH  16  17
ENDBRANCH   1  16
TORSDOF 5
