REMARK  Name = ZINC52872336
REMARK  7 active torsions:
REMARK  status: ('A' for Active; 'I' for Inactive)
REMARK    1  A    between atoms: C_4  and  N_10
REMARK    2  A    between atoms: C_5  and  C_7
REMARK    3  A    between atoms: N_10  and  C_11
REMARK    4  A    between atoms: C_11  and  C_12
REMARK    5  A    between atoms: N_14  and  C_15
REMARK    6  A    between atoms: C_15  and  C_17
REMARK    7  A    between atoms: C_15  and  C_24
REMARK                            x       y       z     vdW  Elec       q    Type
REMARK                         _______ _______ _______ _____ _____    ______ ____
ROOT
ATOM      1  C   UNL     1       6.183  -0.309  -0.246  0.00  0.00    +0.231 C 
ATOM      2  O   UNL     1       6.119  -1.517  -0.149  0.00  0.00    -0.274 OA
ATOM      3  N   UNL     1       7.383   0.293  -0.370  0.00  0.00    -0.303 N 
ATOM      4  H   UNL     1       7.434   1.259  -0.448  0.00  0.00    +0.150 HD
ENDROOT
BRANCH   1   5
ATOM      5  C   UNL     1       4.923   0.517  -0.230  0.00  0.00    +0.197 C 
BRANCH   5   6
ATOM      6  N   UNL     1       3.763  -0.366  -0.086  0.00  0.00    -0.335 N 
ATOM      7  H   UNL     1       3.888  -1.325  -0.020  0.00  0.00    +0.147 HD
BRANCH   6  11
ATOM      8  C   UNL     1      -0.077   1.247   0.034  0.00  0.00    +0.001 A 
ATOM      9  C   UNL     1       1.031   2.080   0.015  0.00  0.00    +0.002 A 
ATOM     10  C   UNL     1       2.304   1.549  -0.024  0.00  0.00    +0.024 A 
ATOM     11  C   UNL     1       2.483   0.171  -0.046  0.00  0.00    +0.040 A 
ATOM     12  C   UNL     1       1.363  -0.675  -0.027  0.00  0.00    +0.057 A 
ATOM     13  C   UNL     1       0.081  -0.121   0.013  0.00  0.00    +0.015 A 
BRANCH  12  14
ATOM     14  C   UNL     1       1.538  -2.138  -0.050  0.00  0.00    +0.243 C 
ATOM     15  O   UNL     1       2.653  -2.618   0.024  0.00  0.00    -0.270 OA
ATOM     16  N   UNL     1       0.463  -2.945  -0.153  0.00  0.00    -0.325 N 
ATOM     17  H   UNL     1      -0.426  -2.562  -0.211  0.00  0.00    +0.145 HD
ATOM     18  H   UNL     1       0.579  -3.908  -0.168  0.00  0.00    +0.145 HD
ENDBRANCH  12  14
ENDBRANCH   6  11
ENDBRANCH   5   6
ENDBRANCH   1   5
BRANCH   3  19
ATOM     19  C   UNL     1       8.608  -0.510  -0.387  0.00  0.00    +0.140 C 
BRANCH  19  20
ATOM     20  C   UNL     1       9.767   0.334   0.077  0.00  0.00    -0.022 A 
ATOM     21  C   UNL     1       9.864   1.654  -0.322  0.00  0.00    +0.008 A 
ATOM     22  C   UNL     1      10.927   2.428   0.103  0.00  0.00    +0.038 A 
ATOM     23  C   UNL     1      11.895   1.881   0.928  0.00  0.00    +0.123 A 
ATOM     24  C   UNL     1      11.797   0.559   1.327  0.00  0.00    +0.038 A 
ATOM     25  C   UNL     1      10.730  -0.212   0.905  0.00  0.00    +0.008 A 
ATOM     26  F   UNL     1      12.935   2.637   1.344  0.00  0.00    -0.205 F 
ENDBRANCH  19  20
BRANCH  19  27
ATOM     27  C   UNL     1       8.870  -0.998  -1.788  0.00  0.00    +0.014 A 
ATOM     28  C   UNL     1       9.316  -2.209  -2.201  0.00  0.00    +0.013 A 
ATOM     29  C   UNL     1       9.484  -2.436  -3.554  0.00  0.00    +0.008 A 
ATOM     30  C   UNL     1       9.198  -1.440  -4.428  0.00  0.00    +0.045 A 
ATOM     31  S   UNL     1       8.666  -0.132  -3.336  0.00  0.00    -0.099 S 
ENDBRANCH  19  27
ENDBRANCH   3  19
TORSDOF 7
