REMARK  Name = ZINC09659592
REMARK  8 active torsions:
REMARK  status: ('A' for Active; 'I' for Inactive)
REMARK    1  A    between atoms: C_1  and  C_2
REMARK    2  A    between atoms: C_7  and  C_8
REMARK    3  A    between atoms: C_14  and  C_15
REMARK    4  A    between atoms: C_18  and  O_23
REMARK    5  A    between atoms: C_19  and  O_21
REMARK    6  A    between atoms: O_21  and  C_22
REMARK    7  A    between atoms: O_23  and  C_24
REMARK    8  A    between atoms: C_24  and  C_26
REMARK                            x       y       z     vdW  Elec       q    Type
REMARK                         _______ _______ _______ _____ _____    ______ ____
ROOT
ATOM      1  C   UNL     1      -9.095   0.870   2.698  0.00  0.00    +0.130 C 
ATOM      2  N   UNL     1      -8.167   1.399   1.938  0.00  0.00    -0.164 NA
ATOM      3  N   UNL     1      -8.324   2.657   1.394  0.00  0.00    -0.152 N 
ATOM      4  C   UNL     1      -7.415   3.296   0.524  0.00  0.00    +0.153 C 
ATOM      5  N   UNL     1      -6.530   2.650  -0.188  0.00  0.00    -0.283 NA
ATOM      6  C   UNL     1      -7.562   4.779   0.497  0.00  0.00    +0.081 C 
ATOM      7  C   UNL     1      -6.483   5.611   0.306  0.00  0.00    +0.024 C 
ATOM      8  C   UNL     1      -8.934   5.309   0.694  0.00  0.00    +0.273 C 
ATOM      9  O   UNL     1      -9.257   6.399   0.251  0.00  0.00    -0.268 OA
ATOM     10  N   UNL     1      -9.816   4.552   1.372  0.00  0.00    -0.152 NA
ATOM     11  C   UNL     1      -9.480   3.335   1.720  0.00  0.00    +0.181 C 
ATOM     12  S   UNL     1     -10.332   2.160   2.738  0.00  0.00    -0.033 S 
ATOM     13  H   UNL     1      -6.524   1.680  -0.191  0.00  0.00    +0.188 HD
ENDROOT
BRANCH   1  20
ATOM     14  C   UNL     1      -6.852  -0.926   2.360  0.00  0.00    +0.044 C 
ATOM     15  C   UNL     1      -8.038  -1.330   3.197  0.00  0.00    -0.041 A 
ATOM     16  C   UNL     1      -8.062  -2.566   3.812  0.00  0.00    +0.004 A 
ATOM     17  C   UNL     1      -9.149  -2.938   4.581  0.00  0.00    +0.000 A 
ATOM     18  C   UNL     1     -10.219  -2.075   4.741  0.00  0.00    +0.001 A 
ATOM     19  C   UNL     1     -10.205  -0.835   4.136  0.00  0.00    +0.011 A 
ATOM     20  C   UNL     1      -9.114  -0.456   3.354  0.00  0.00    +0.012 A 
ENDBRANCH   1  20
BRANCH   7  21
ATOM     21  C   UNL     1      -5.126   5.060   0.291  0.00  0.00    -0.021 A 
ATOM     22  C   UNL     1      -4.809   3.949   1.085  0.00  0.00    +0.012 A 
ATOM     23  C   UNL     1      -3.533   3.433   1.068  0.00  0.00    +0.051 A 
ATOM     24  C   UNL     1      -2.556   4.011   0.267  0.00  0.00    +0.173 A 
ATOM     25  C   UNL     1      -2.861   5.121  -0.523  0.00  0.00    +0.163 A 
ATOM     26  C   UNL     1      -4.139   5.642  -0.518  0.00  0.00    +0.057 A 
BRANCH  25  27
ATOM     27  O   UNL     1      -1.900   5.686  -1.301  0.00  0.00    -0.491 OA
ATOM     28  C   UNL     1      -2.282   6.819  -2.083  0.00  0.00    +0.277 C 
ENDBRANCH  25  27
BRANCH  24  29
ATOM     29  O   UNL     1      -1.299   3.499   0.256  0.00  0.00    -0.419 OA
BRANCH  29  30
ATOM     30  C   UNL     1      -0.401   4.062   1.088  0.00  0.00    +0.345 C 
ATOM     31  O   UNL     1      -0.706   5.043   1.736  0.00  0.00    -0.245 OA
BRANCH  30  32
ATOM     32  C   UNL     1       0.952   3.486   1.213  0.00  0.00    +0.060 A 
ATOM     33  C   UNL     1       1.304   2.354   0.473  0.00  0.00    +0.018 A 
ATOM     34  C   UNL     1       2.567   1.818   0.597  0.00  0.00    +0.039 A 
ATOM     35  C   UNL     1       3.489   2.400   1.454  0.00  0.00    +0.123 A 
ATOM     36  C   UNL     1       3.145   3.523   2.191  0.00  0.00    +0.039 A 
ATOM     37  C   UNL     1       1.885   4.068   2.075  0.00  0.00    +0.018 A 
ATOM     38  F   UNL     1       4.726   1.870   1.572  0.00  0.00    -0.205 F 
ENDBRANCH  30  32
ENDBRANCH  29  30
ENDBRANCH  24  29
ENDBRANCH   7  21
TORSDOF 6
