REMARK  Name = ZINC64754680
REMARK  9 active torsions:
REMARK  status: ('A' for Active; 'I' for Inactive)
REMARK    1  A    between atoms: CG_4  and  CB_7
REMARK    2  A    between atoms: CB_7  and  CA_8
REMARK    3  A    between atoms: CA_8  and  C_9
REMARK    4  A    between atoms: CA_8  and  N_11
REMARK    5  A    between atoms: C_9  and  O_10
REMARK    6  A    between atoms: N_14  and  C_15
REMARK    7  A    between atoms: C_15  and  C_16
REMARK    8  A    between atoms: N_20  and  C_22
REMARK    9  A    between atoms: C_22  and  C_23
REMARK                            x       y       z     vdW  Elec       q    Type
REMARK                         _______ _______ _______ _____ _____    ______ ____
ROOT
ATOM      1  N   PHE A   1       3.229  -1.870   2.059  0.00  0.00    -0.294 N 
ATOM      2  C   UNK A   0       3.109  -1.856   3.402  0.00  0.00    +0.300 C 
ATOM      3  O   UNK A   0       3.783  -1.092   4.065  0.00  0.00    -0.253 OA
ATOM      4  N   UNK A   0       2.242  -2.690   4.009  0.00  0.00    -0.299 N 
ATOM      5  H   PHE A   1       2.691  -2.480   1.530  0.00  0.00    +0.151 HD
ATOM      6  H   UNK A   0       1.704  -3.300   3.480  0.00  0.00    +0.150 HD
ENDROOT
BRANCH   1   7
ATOM      7  CA  PHE A   1       4.171  -0.963   1.399  0.00  0.00    +0.104 C 
BRANCH   7   8
ATOM      8  CB  PHE A   1       3.711  -0.707  -0.038  0.00  0.00    +0.059 C 
BRANCH   8  12
ATOM      9  CZ  PHE A   1      -0.017   1.378   0.010  0.00  0.00    +0.000 A 
ATOM     10  CE1 PHE A   1       1.171   2.086   0.002  0.00  0.00    +0.000 A 
ATOM     11  CD1 PHE A   1       2.377   1.411  -0.013  0.00  0.00    +0.004 A 
ATOM     12  CG  PHE A   1       2.396   0.029  -0.020  0.00  0.00    -0.046 A 
ATOM     13  CD2 PHE A   1       1.208  -0.679  -0.012  0.00  0.00    +0.004 A 
ATOM     14  CE2 PHE A   1       0.002  -0.004   0.002  0.00  0.00    +0.000 A 
ENDBRANCH   8  12
ENDBRANCH   7   8
BRANCH   7  15
ATOM     15  C   PHE A   1       5.563  -1.598   1.383  0.00  0.00    +0.178 C 
BRANCH  15  16
ATOM     16  O   PHE A   1       5.541  -2.775   0.573  0.00  0.00    -0.393 OA
ATOM     17  H   PHE A   1       6.392  -3.231   0.518  0.00  0.00    +0.209 HD
ENDBRANCH  15  16
ENDBRANCH   7  15
ENDBRANCH   1   7
BRANCH   4  18
ATOM     18  C   UNK A   0       2.111  -2.676   5.468  0.00  0.00    +0.107 C 
BRANCH  18  19
ATOM     19  C   UNK A   0       1.069  -3.710   5.898  0.00  0.00    -0.011 C 
ATOM     20  C   UNK A   0      -0.308  -3.297   5.369  0.00  0.00    +0.001 C 
ATOM     21  C   UNK A   0      -1.356  -4.295   5.869  0.00  0.00    -0.018 C 
ATOM     22  C   UNK A   0      -1.314  -4.348   7.398  0.00  0.00    -0.078 C 
ATOM     23  N   UNK A   0       0.020  -4.773   7.840  0.00  0.00    +0.383 N 
ATOM     24  C   UNK A   0       1.021  -3.784   7.425  0.00  0.00    -0.073 C 
ATOM     25  H   UNK A   0       0.240  -5.667   7.427  0.00  0.00    -0.081 HD
BRANCH  23  26
ATOM     26  C   UNK A   0       0.033  -4.897   9.304  0.00  0.00    -0.036 C 
BRANCH  26  27
ATOM     27  C   UNK A   0      -0.899  -6.005   9.722  0.00  0.00    -0.027 A 
ATOM     28  C   UNK A   0      -0.634  -7.322   9.899  0.00  0.00    +0.009 A 
ATOM     29  C   UNK A   0      -1.657  -8.165  10.292  0.00  0.00    +0.008 A 
ATOM     30  C   UNK A   0      -2.895  -7.649  10.488  0.00  0.00    +0.045 A 
ATOM     31  S   UNK A   0      -2.638  -5.921  10.121  0.00  0.00    -0.103 S 
ENDBRANCH  26  27
ENDBRANCH  23  26
ENDBRANCH  18  19
ENDBRANCH   4  18
TORSDOF 9
