REMARK  Name = ZINC21111103
REMARK  7 active torsions:
REMARK  status: ('A' for Active; 'I' for Inactive)
REMARK    1  A    between atoms: C_1  and  C_2
REMARK    2  A    between atoms: C_6  and  N_9
REMARK    3  A    between atoms: C_7  and  C_8
REMARK    4  A    between atoms: N_9  and  S_10
REMARK    5  A    between atoms: S_10  and  C_13
REMARK    6  A    between atoms: C_16  and  C_19
REMARK    7  A    between atoms: C_22  and  C_24
REMARK                            x       y       z     vdW  Elec       q    Type
REMARK                         _______ _______ _______ _____ _____    ______ ____
ROOT
ATOM      1  S   UNL     1       2.725   4.157   0.023  0.00  0.00    +0.072 S 
ATOM      2  O   UNL     1       2.516   5.468   0.529  0.00  0.00    -0.150 OA
ATOM      3  O   UNL     1       3.702   3.279   0.565  0.00  0.00    -0.150 OA
ENDROOT
BRANCH   1   4
ATOM      4  C   UNL     1       1.179   3.321   0.136  0.00  0.00    +0.109 A 
ATOM      5  C   UNL     1       1.145   1.940   0.197  0.00  0.00    +0.029 A 
ATOM      6  C   UNL     1      -0.064   1.280   0.285  0.00  0.00    +0.012 A 
ATOM      7  C   UNL     1      -1.252   2.007   0.305  0.00  0.00    +0.004 A 
ATOM      8  C   UNL     1      -1.212   3.399   0.249  0.00  0.00    +0.012 A 
ATOM      9  C   UNL     1       0.002   4.049   0.162  0.00  0.00    +0.029 A 
BRANCH   7  10
ATOM     10  C   UNL     1      -2.556   1.303   0.393  0.00  0.00    +0.109 A 
ATOM     11  C   UNL     1      -3.781   1.882   0.427  0.00  0.00    +0.225 A 
ATOM     12  O   UNL     1      -4.684   0.886   0.505  0.00  0.00    -0.448 OA
ATOM     13  C   UNL     1      -4.017  -0.276   0.526  0.00  0.00    +0.193 A 
ATOM     14  N   UNL     1      -2.740  -0.035   0.459  0.00  0.00    -0.214 NA
ATOM     15  C   UNL     1      -4.645  -1.643   0.613  0.00  0.00    +0.109 C 
ENDBRANCH   7  10
ENDBRANCH   1   4
BRANCH   1  16
ATOM     16  N   UNL     1       3.077   4.321  -1.587  0.00  0.00    -0.216 N 
ATOM     17  H   UNL     1       3.989   3.865  -2.000  0.00  0.00    +0.174 HD
BRANCH  16  23
ATOM     18  C   UNL     1       0.954   4.902  -5.981  0.00  0.00    +0.044 C 
ATOM     19  C   UNL     1       1.168   5.343  -4.556  0.00  0.00    -0.046 A 
ATOM     20  C   UNL     1       0.511   6.460  -4.072  0.00  0.00    +0.004 A 
ATOM     21  C   UNL     1       0.704   6.867  -2.765  0.00  0.00    +0.002 A 
ATOM     22  C   UNL     1       1.554   6.160  -1.938  0.00  0.00    +0.025 A 
ATOM     23  C   UNL     1       2.216   5.038  -2.421  0.00  0.00    +0.051 A 
ATOM     24  C   UNL     1       2.024   4.635  -3.736  0.00  0.00    -0.025 A 
ATOM     25  C   UNL     1       2.745   3.422  -4.266  0.00  0.00    +0.046 C 
ENDBRANCH  16  23
ENDBRANCH   1  16
TORSDOF 4
