REMARK  Name = ZINC39674025
REMARK  6 active torsions:
REMARK  status: ('A' for Active; 'I' for Inactive)
REMARK    1  A    between atoms: C_1  and  C_2
REMARK    2  A    between atoms: C_4  and  C_12
REMARK    3  A    between atoms: C_12  and  C_13
REMARK    4  A    between atoms: C_13  and  N_14
REMARK    5  A    between atoms: C_15  and  C_17
REMARK    6  A    between atoms: C_28  and  C_30
REMARK                            x       y       z     vdW  Elec       q    Type
REMARK                         _______ _______ _______ _____ _____    ______ ____
ROOT
ATOM      1  C   UNL     1      -4.953   3.947   3.464  0.00  0.00    +0.100 C 
ATOM      2  C   UNL     1      -4.731   2.689   4.334  0.00  0.00    +0.121 C 
ATOM      3  N   UNL     1      -4.121   3.201   5.584  0.00  0.00    -0.296 N 
ATOM      4  C   UNL     1      -4.843   4.468   5.854  0.00  0.00    +0.115 C 
ATOM      5  C   UNL     1      -5.029   5.111   4.466  0.00  0.00    -0.004 C 
ATOM      6  C   UNL     1      -3.912   6.114   4.196  0.00  0.00    -0.010 C 
ATOM      7  C   UNL     1      -4.042   7.290   5.168  0.00  0.00    -0.082 C 
ATOM      8  N   UNL     1      -5.353   7.929   4.993  0.00  0.00    +0.379 N 
ATOM      9  C   UNL     1      -6.420   6.985   5.343  0.00  0.00    -0.082 C 
ATOM     10  C   UNL     1      -6.390   5.795   4.379  0.00  0.00    -0.010 C 
ATOM     11  C   UNL     1      -3.134   2.641   6.310  0.00  0.00    +0.249 C 
ATOM     12  O   UNL     1      -2.803   3.138   7.370  0.00  0.00    -0.270 OA
ATOM     13  H   UNL     1      -5.413   8.739   5.590  0.00  0.00    -0.086 HD
ATOM     14  H   UNL     1      -5.460   8.214   4.031  0.00  0.00    -0.086 HD
ENDROOT
BRANCH  11  15
ATOM     15  C   UNL     1      -2.454   1.426   5.820  0.00  0.00    +0.073 A 
ATOM     16  C   UNL     1      -3.170   0.459   5.110  0.00  0.00    +0.016 A 
ATOM     17  C   UNL     1      -2.530  -0.673   4.654  0.00  0.00    +0.002 A 
ATOM     18  C   UNL     1      -1.179  -0.856   4.897  0.00  0.00    +0.023 A 
ATOM     19  C   UNL     1      -0.461   0.094   5.599  0.00  0.00    +0.077 A 
ATOM     20  C   UNL     1      -1.089   1.239   6.059  0.00  0.00    +0.154 A 
ATOM     21  F   UNL     1      -0.387   2.171   6.740  0.00  0.00    -0.203 F 
ATOM     22 CL   UNL     1       1.232  -0.145   5.899  0.00  0.00    -0.081 Cl
ENDBRANCH  11  15
BRANCH   1  24
ATOM     23  N   UNL     1      -3.983   4.780   1.347  0.00  0.00    -0.315 N 
ATOM     24  C   UNL     1      -3.796   4.142   2.519  0.00  0.00    +0.218 C 
ATOM     25  O   UNL     1      -2.696   3.725   2.814  0.00  0.00    -0.275 OA
ATOM     26  H   UNL     1      -4.863   5.113   1.111  0.00  0.00    +0.149 HD
BRANCH  23  27
ATOM     27  C   UNL     1      -2.858   4.970   0.428  0.00  0.00    +0.109 C 
BRANCH  27  28
ATOM     28  C   UNL     1      -3.338   5.716  -0.818  0.00  0.00    +0.056 C 
BRANCH  28  32
ATOM     29  C   UNL     1      -2.467   3.766  -3.070  0.00  0.00    +0.063 C 
ATOM     30  C   UNL     1      -1.796   5.074  -2.740  0.00  0.00    +0.017 A 
ATOM     31  H   UNL     1      -0.244   5.153  -4.126  0.00  0.00    +0.166 HD
ATOM     32  C   UNL     1      -2.180   5.912  -1.763  0.00  0.00    -0.018 A 
ATOM     33  C   UNL     1      -1.261   7.052  -1.791  0.00  0.00    +0.003 A 
ATOM     34  C   UNL     1      -1.144   8.223  -1.040  0.00  0.00    +0.010 A 
ATOM     35  C   UNL     1      -0.147   9.114  -1.323  0.00  0.00    +0.001 A 
ATOM     36  C   UNL     1       0.750   8.864  -2.352  0.00  0.00    +0.002 A 
ATOM     37  C   UNL     1       0.653   7.715  -3.106  0.00  0.00    +0.026 A 
ATOM     38  C   UNL     1      -0.353   6.794  -2.835  0.00  0.00    +0.047 A 
ATOM     39  N   UNL     1      -0.703   5.582  -3.387  0.00  0.00    -0.358 N 
ENDBRANCH  28  32
ENDBRANCH  27  28
ENDBRANCH  23  27
ENDBRANCH   1  24
TORSDOF 5
