REMARK  Name = ZINC03282802
REMARK  7 active torsions:
REMARK  status: ('A' for Active; 'I' for Inactive)
REMARK    1  A    between atoms: C_2  and  C_3
REMARK    2  A    between atoms: C_2  and  N_13
REMARK    3  A    between atoms: N_13  and  N_14
REMARK    4  A    between atoms: C_15  and  C_17
REMARK    5  A    between atoms: C_20  and  N_23
REMARK    6  A    between atoms: N_23  and  S_24
REMARK    7  A    between atoms: S_24  and  C_27
REMARK                            x       y       z     vdW  Elec       q    Type
REMARK                         _______ _______ _______ _____ _____    ______ ____
ROOT
ATOM      1  N   UNL     1       1.716   9.666  -0.165  0.00  0.00    -0.232 N 
ATOM      2  C   UNL     1       2.932  10.246  -0.112  0.00  0.00    +0.260 C 
ATOM      3  O   UNL     1       3.934   9.558  -0.101  0.00  0.00    -0.269 OA
ATOM      4  H   UNL     1       0.917  10.215  -0.174  0.00  0.00    +0.173 HD
ENDROOT
BRANCH   2   5
ATOM      5  C   UNL     1       3.046  11.716  -0.069  0.00  0.00    +0.038 A 
ATOM      6  C   UNL     1       1.895  12.509  -0.087  0.00  0.00    +0.015 A 
ATOM      7  C   UNL     1       2.005  13.880  -0.040  0.00  0.00    +0.025 A 
ATOM      8  C   UNL     1       3.261  14.478   0.014  0.00  0.00    +0.048 A 
ATOM      9  C   UNL     1       4.410  13.691   0.027  0.00  0.00    +0.025 A 
ATOM     10  C   UNL     1       4.306  12.319  -0.014  0.00  0.00    +0.015 A 
BRANCH   8  11
ATOM     11  N   UNL     1       3.369  15.864   0.056  0.00  0.00    -0.216 N 
ATOM     12  H   UNL     1       3.167  16.341   0.876  0.00  0.00    +0.174 HD
BRANCH  11  13
ATOM     13  S   UNL     1       3.842  16.698  -1.294  0.00  0.00    +0.079 S 
ATOM     14  O   UNL     1       3.811  18.077  -0.950  0.00  0.00    -0.149 OA
ATOM     15  O   UNL     1       5.016  16.059  -1.776  0.00  0.00    -0.149 OA
BRANCH  13  16
ATOM     16  C   UNL     1       2.598  16.456  -2.518  0.00  0.00    +0.146 A 
ATOM     17  C   UNL     1       1.533  17.239  -2.819  0.00  0.00    +0.036 A 
ATOM     18  C   UNL     1       0.678  16.847  -3.832  0.00  0.00    +0.010 A 
ATOM     19  C   UNL     1       0.930  15.692  -4.495  0.00  0.00    +0.047 A 
ATOM     20  S   UNL     1       2.417  15.121  -3.689  0.00  0.00    -0.077 S 
ENDBRANCH  13  16
ENDBRANCH  11  13
ENDBRANCH   8  11
ENDBRANCH   2   5
BRANCH   1  21
ATOM     21  N   UNL     1       1.607   8.270  -0.207  0.00  0.00    -0.264 N 
ATOM     22  H   UNL     1       2.407   7.721  -0.197  0.00  0.00    +0.170 HD
BRANCH  21  24
ATOM     23  C   UNL     1      -0.750   8.425  -0.274  0.00  0.00    +0.035 C 
ATOM     24  C   UNL     1       0.349   7.670  -0.261  0.00  0.00    +0.044 C 
BRANCH  24  25
ATOM     25  C   UNL     1       0.234   6.194  -0.305  0.00  0.00    -0.003 A 
ATOM     26  C   UNL     1       1.396   5.404  -0.291  0.00  0.00    +0.010 A 
ATOM     27  C   UNL     1       1.317   4.049  -0.330  0.00  0.00    +0.009 A 
ATOM     28  C   UNL     1       0.061   3.419  -0.386  0.00  0.00    -0.018 A 
ATOM     29  C   UNL     1      -0.047   2.018  -0.427  0.00  0.00    +0.008 A 
ATOM     30  C   UNL     1      -1.276   1.437  -0.481  0.00  0.00    +0.001 A 
ATOM     31  C   UNL     1      -2.436   2.211  -0.501  0.00  0.00    +0.001 A 
ATOM     32  C   UNL     1      -2.372   3.570  -0.457  0.00  0.00    +0.008 A 
ATOM     33  C   UNL     1      -1.118   4.206  -0.401  0.00  0.00    -0.017 A 
ATOM     34  C   UNL     1      -1.016   5.605  -0.359  0.00  0.00    +0.018 A 
ENDBRANCH  24  25
ENDBRANCH  21  24
ENDBRANCH   1  21
TORSDOF 7
