REMARK  Name = ZINC06858333
REMARK  7 active torsions:
REMARK  status: ('A' for Active; 'I' for Inactive)
REMARK    1  A    between atoms: C_1  and  O_2
REMARK    2  A    between atoms: O_2  and  C_3
REMARK    3  A    between atoms: C_5  and  C_10
REMARK    4  A    between atoms: C_8  and  O_9
REMARK    5  A    between atoms: C_12  and  O_27
REMARK    6  A    between atoms: N_15  and  C_16
REMARK    7  A    between atoms: C_21  and  C_22
REMARK                            x       y       z     vdW  Elec       q    Type
REMARK                         _______ _______ _______ _____ _____    ______ ____
ROOT
ATOM      1  C   UNL     1       2.543   3.925  -0.797  0.00  0.00    +0.028 C 
ATOM      2  C   UNL     1       3.705   3.260  -0.545  0.00  0.00    +0.077 C 
ATOM      3  C   UNL     1       5.092   3.755  -0.536  0.00  0.00    +0.229 C 
ATOM      4  N   UNL     1       6.022   2.900  -0.261  0.00  0.00    -0.186 NA
ATOM      5  C   UNL     1       5.752   1.609   0.008  0.00  0.00    +0.197 C 
ATOM      6  N   UNL     1       6.596   0.633   0.302  0.00  0.00    -0.222 NA
ATOM      7  S   UNL     1       3.971   1.541  -0.124  0.00  0.00    -0.045 S 
ENDROOT
BRANCH   1  10
ATOM      8  C   UNL     1      -1.138   3.219  -0.853  0.00  0.00    +0.162 A 
ATOM      9  C   UNL     1       0.071   3.859  -1.038  0.00  0.00    +0.057 A 
ATOM     10  C   UNL     1       1.255   3.250  -0.603  0.00  0.00    -0.020 A 
ATOM     11  C   UNL     1       1.205   1.994   0.016  0.00  0.00    +0.012 A 
ATOM     12  C   UNL     1      -0.006   1.364   0.196  0.00  0.00    +0.050 A 
ATOM     13  C   UNL     1      -1.179   1.967  -0.240  0.00  0.00    +0.158 A 
BRANCH   8  15
ATOM     14  C   UNL     1      -2.175   5.087  -1.899  0.00  0.00    +0.277 C 
ATOM     15  O   UNL     1      -2.290   3.807  -1.274  0.00  0.00    -0.491 OA
ENDBRANCH   8  15
BRANCH  13  16
ATOM     16  O   UNL     1      -2.369   1.337  -0.065  0.00  0.00    -0.503 OA
ATOM     17  H   UNL     1      -2.805   1.546   0.772  0.00  0.00    +0.292 HD
ENDBRANCH  13  16
ENDBRANCH   1  10
BRANCH   6  18
ATOM     18  C   UNL     1       7.915   0.912   0.509  0.00  0.00    +0.078 A 
ATOM     19  C   UNL     1       8.288   1.978   1.334  0.00  0.00    +0.028 A 
ATOM     20  C   UNL     1       9.623   2.252   1.539  0.00  0.00    +0.002 A 
ATOM     21  C   UNL     1      10.595   1.476   0.930  0.00  0.00    +0.001 A 
ATOM     22  C   UNL     1      10.234   0.419   0.113  0.00  0.00    +0.014 A 
ATOM     23  C   UNL     1       8.902   0.129  -0.097  0.00  0.00    +0.080 A 
BRANCH  23  24
ATOM     24  C   UNL     1       8.512  -1.026  -0.983  0.00  0.00    +0.419 C 
ATOM     25  F   UNL     1       9.665  -1.652  -1.470  0.00  0.00    -0.166 F 
ATOM     26  F   UNL     1       7.758  -1.946  -0.245  0.00  0.00    -0.166 F 
ATOM     27  F   UNL     1       7.749  -0.554  -2.057  0.00  0.00    -0.166 F 
ENDBRANCH  23  24
ENDBRANCH   6  18
BRANCH   3  28
ATOM     28  O   UNL     1       5.380   5.050  -0.803  0.00  0.00    -0.492 OA
ATOM     29  H   UNL     1       6.324   5.258  -0.768  0.00  0.00    +0.294 HD
ENDBRANCH   3  28
TORSDOF 6
