REMARK  Name = ZINC40404642
REMARK  11 active torsions:
REMARK  status: ('A' for Active; 'I' for Inactive)
REMARK    1  A    between atoms: C_1  and  C_2
REMARK    2  A    between atoms: C_2  and  O_3
REMARK    3  A    between atoms: O_3  and  C_4
REMARK    4  A    between atoms: C_4  and  C_5
REMARK    5  A    between atoms: C_5  and  C_7
REMARK    6  A    between atoms: C_5  and  O_34
REMARK    7  A    between atoms: C_7  and  N_8
REMARK    8  A    between atoms: N_8  and  C_9
REMARK    9  A    between atoms: N_8  and  C_28
REMARK   10  A    between atoms: C_9  and  C_10
REMARK   11  A    between atoms: C_16  and  C_21
REMARK                            x       y       z     vdW  Elec       q    Type
REMARK                         _______ _______ _______ _____ _____    ______ ____
ROOT
ATOM      1  C   UNL     1       3.244  -5.998   5.186  0.00  0.00    +0.094 A 
ATOM      2  N   UNL     1       3.559  -7.291   5.455  0.00  0.00    -0.312 N 
ATOM      3  H   UNL     1       3.429  -7.965   4.769  0.00  0.00    +0.170 HD
ATOM      4  C   UNL     1       4.048  -7.656   6.654  0.00  0.00    +0.260 A 
ATOM      5  O   UNL     1       4.326  -8.822   6.881  0.00  0.00    -0.267 OA
ATOM      6  C   UNL     1       4.237  -6.656   7.661  0.00  0.00    +0.080 A 
ATOM      7  C   UNL     1       4.745  -6.798   9.020  0.00  0.00    +0.004 A 
ATOM      8  C   UNL     1       4.837  -5.695   9.800  0.00  0.00    +0.056 A 
ATOM      9  S   UNL     1       4.239  -4.391   8.742  0.00  0.00    -0.076 S 
ATOM     10  C   UNL     1       3.884  -5.348   7.291  0.00  0.00    +0.116 A 
ATOM     11  N   UNL     1       3.410  -5.062   6.081  0.00  0.00    -0.229 NA
ENDROOT
BRANCH   7  12
ATOM     12  C   UNL     1       5.154  -8.126   9.538  0.00  0.00    -0.016 A 
ATOM     13  C   UNL     1       4.302  -9.221   9.404  0.00  0.00    +0.010 A 
ATOM     14  C   UNL     1       4.688 -10.455   9.888  0.00  0.00    +0.020 A 
ATOM     15  C   UNL     1       5.918 -10.606  10.505  0.00  0.00    +0.041 A 
ATOM     16  C   UNL     1       6.767  -9.521  10.641  0.00  0.00    +0.020 A 
ATOM     17  C   UNL     1       6.394  -8.284  10.155  0.00  0.00    +0.010 A 
ATOM     18 CL   UNL     1       6.396 -12.160  11.111  0.00  0.00    -0.084 Cl
ENDBRANCH   7  12
BRANCH   1  19
ATOM     19  C   UNL     1       2.700  -5.636   3.828  0.00  0.00    -0.003 C 
BRANCH  19  20
ATOM     20  N   UNL     1       2.612  -4.174   3.710  0.00  0.00    +0.388 N 
ATOM     21  H   UNL     1       2.306  -3.784   4.588  0.00  0.00    -0.081 HD
BRANCH  20  22
ATOM     22  C   UNL     1       3.932  -3.630   3.365  0.00  0.00    -0.068 C 
ATOM     23  C   UNL     1       4.923  -3.949   4.486  0.00  0.00    -0.015 C 
ATOM     24  C   UNL     1       6.298  -3.381   4.127  0.00  0.00    -0.002 C 
ATOM     25  C   UNL     1       6.785  -4.012   2.821  0.00  0.00    -0.000 C 
ATOM     26  C   UNL     1       5.794  -3.693   1.700  0.00  0.00    -0.002 C 
ATOM     27  C   UNL     1       4.419  -4.260   2.059  0.00  0.00    -0.015 C 
ENDBRANCH  20  22
BRANCH  20  28
ATOM     28  C   UNL     1       1.648  -3.825   2.657  0.00  0.00    -0.044 C 
BRANCH  28  29
ATOM     29  C   UNL     1       1.451  -2.308   2.628  0.00  0.00    +0.124 C 
BRANCH  29  30
ATOM     30  O   UNL     1       0.864  -1.881   3.859  0.00  0.00    -0.391 OA
ATOM     31  H   UNL     1       0.001  -2.277   4.041  0.00  0.00    +0.210 HD
ENDBRANCH  29  30
BRANCH  29  32
ATOM     32  C   UNL     1       0.529  -1.936   1.466  0.00  0.00    +0.189 C 
BRANCH  32  33
ATOM     33  O   UNL     1       0.438  -0.513   1.367  0.00  0.00    -0.378 OA
BRANCH  33  35
ATOM     34  C   UNL     1      -0.428   1.473   0.296  0.00  0.00    +0.034 C 
ATOM     35  C   UNL     1      -0.405  -0.057   0.307  0.00  0.00    +0.156 C 
ENDBRANCH  33  35
ENDBRANCH  32  33
ENDBRANCH  29  32
ENDBRANCH  28  29
ENDBRANCH  20  28
ENDBRANCH  19  20
ENDBRANCH   1  19
TORSDOF 10
