REMARK  Name = ZINC54197074
REMARK  10 active torsions:
REMARK  status: ('A' for Active; 'I' for Inactive)
REMARK    1  A    between atoms: C_1  and  C_2
REMARK    2  A    between atoms: C_2  and  C_3
REMARK    3  A    between atoms: C_3  and  C_5
REMARK    4  A    between atoms: C_3  and  C_6
REMARK    5  A    between atoms: C_6  and  C_8
REMARK    6  A    between atoms: C_6  and  N_23
REMARK    7  A    between atoms: N_10  and  C_11
REMARK    8  A    between atoms: C_11  and  C_12
REMARK    9  A    between atoms: C_12  and  C_13
REMARK   10  A    between atoms: C_18  and  C_19
REMARK                            x       y       z     vdW  Elec       q    Type
REMARK                         _______ _______ _______ _____ _____    ______ ____
ROOT
ATOM      1  C   UNL     1       1.601  -2.533   2.392  0.00  0.00    +0.234 C 
ATOM      2  O   UNL     1       2.781  -2.805   2.325  0.00  0.00    -0.274 OA
ATOM      3  N   UNL     1       0.941  -2.677   3.558  0.00  0.00    -0.313 N 
ATOM      4  H   UNL     1      -0.002  -2.459   3.612  0.00  0.00    +0.149 HD
ENDROOT
BRANCH   1   5
ATOM      5  C   UNL     1       0.872  -2.034   1.171  0.00  0.00    +0.163 C 
BRANCH   5   6
ATOM      6  N   UNL     1       1.622  -2.405  -0.032  0.00  0.00    -0.288 N 
ATOM      7  C   UNL     1       2.884  -1.962  -0.202  0.00  0.00    +0.298 C 
ATOM      8  O   UNL     1       3.399  -1.255   0.642  0.00  0.00    -0.253 OA
ATOM      9  N   UNL     1       3.574  -2.303  -1.308  0.00  0.00    -0.313 N 
ATOM     10  H   UNL     1       1.211  -2.969  -0.705  0.00  0.00    +0.151 HD
ATOM     11  H   UNL     1       3.163  -2.867  -1.982  0.00  0.00    +0.146 HD
ATOM     12  H   UNL     1       4.482  -1.984  -1.431  0.00  0.00    +0.146 HD
ENDBRANCH   5   6
BRANCH   5  13
ATOM     13  C   UNL     1       0.742  -0.511   1.242  0.00  0.00    +0.015 C 
ATOM     14  C   UNL     1      -0.042  -0.124   2.497  0.00  0.00    +0.010 C 
BRANCH  13  16
ATOM     15  C   UNL     1      -0.019   1.526   0.010  0.00  0.00    +0.004 C 
ATOM     16  C   UNL     1       0.002  -0.004   0.002  0.00  0.00    +0.002 C 
ENDBRANCH  13  16
ENDBRANCH   5  13
ENDBRANCH   1   5
BRANCH   3  17
ATOM     17  C   UNL     1       1.650  -3.162   4.745  0.00  0.00    +0.109 C 
BRANCH  17  18
ATOM     18  C   UNL     1       0.679  -3.233   5.925  0.00  0.00    +0.054 C 
BRANCH  18  19
ATOM     19  C   UNL     1       1.408  -3.733   7.146  0.00  0.00    -0.034 A 
ATOM     20  C   UNL     1       1.383  -5.078   7.464  0.00  0.00    +0.004 A 
ATOM     21  C   UNL     1       2.051  -5.536   8.584  0.00  0.00    +0.000 A 
ATOM     22  C   UNL     1       2.745  -4.649   9.386  0.00  0.00    +0.001 A 
ATOM     23  C   UNL     1       2.771  -3.304   9.068  0.00  0.00    +0.012 A 
ATOM     24  C   UNL     1       2.106  -2.846   7.945  0.00  0.00    +0.058 A 
BRANCH  24  25
ATOM     25  C   UNL     1       2.138  -1.381   7.595  0.00  0.00    +0.418 C 
ATOM     26  F   UNL     1       2.900  -0.692   8.544  0.00  0.00    -0.166 F 
ATOM     27  F   UNL     1       2.709  -1.216   6.329  0.00  0.00    -0.166 F 
ATOM     28  F   UNL     1       0.834  -0.875   7.588  0.00  0.00    -0.166 F 
ENDBRANCH  24  25
ENDBRANCH  18  19
ENDBRANCH  17  18
ENDBRANCH   3  17
TORSDOF 8
