REMARK  Name = ZINC10461208
REMARK  12 active torsions:
REMARK  status: ('A' for Active; 'I' for Inactive)
REMARK    1  A    between atoms: C_1  and  N_61
REMARK    2  A    between atoms: C_2  and  N_61
REMARK    3  A    between atoms: C_3  and  C_4
REMARK    4  A    between atoms: C_3  and  N_61
REMARK    5  A    between atoms: C_4  and  N_5
REMARK    6  A    between atoms: C_16  and  C_18
REMARK    7  A    between atoms: C_21  and  S_24
REMARK    8  A    between atoms: S_24  and  N_27
REMARK    9  A    between atoms: N_27  and  C_28
REMARK   10  A    between atoms: N_27  and  C_31
REMARK   11  A    between atoms: C_28  and  C_29
REMARK   12  A    between atoms: C_31  and  C_32
REMARK                            x       y       z     vdW  Elec       q    Type
REMARK                         _______ _______ _______ _____ _____    ______ ____
ROOT
ATOM      1  N   UNL     1      -0.123   0.155  -0.579  0.00  0.00    -0.248 N 
ATOM      2  C   UNL     1      -1.164  -0.697  -0.248  0.00  0.00    +0.168 A 
ATOM      3  N   UNL     1      -2.237  -0.448   0.464  0.00  0.00    -0.224 NA
ATOM      4  C   UNL     1      -3.180  -1.384   0.709  0.00  0.00    +0.080 A 
ATOM      5  C   UNL     1      -4.373  -1.247   1.455  0.00  0.00    +0.032 A 
ATOM      6  C   UNL     1      -5.230  -2.306   1.608  0.00  0.00    +0.040 A 
ATOM      7  C   UNL     1      -4.960  -3.545   1.040  0.00  0.00    +0.125 A 
ATOM      8  C   UNL     1      -3.800  -3.715   0.304  0.00  0.00    +0.055 A 
ATOM      9  C   UNL     1      -2.938  -2.658   0.146  0.00  0.00    +0.043 A 
ATOM     10  S   UNL     1      -1.390  -2.414  -0.691  0.00  0.00    -0.052 S 
ATOM     11  F   UNL     1      -5.821  -4.574   1.206  0.00  0.00    -0.205 F 
ATOM     12  C   UNL     1      -0.137   1.433  -0.150  0.00  0.00    +0.252 C 
ATOM     13  O   UNL     1      -1.088   1.853   0.480  0.00  0.00    -0.270 OA
ENDROOT
BRANCH  12  14
ATOM     14  C   UNL     1       1.002   2.325  -0.451  0.00  0.00    +0.037 A 
ATOM     15  C   UNL     1       2.284   1.796  -0.612  0.00  0.00    +0.015 A 
ATOM     16  C   UNL     1       3.341   2.635  -0.898  0.00  0.00    +0.029 A 
ATOM     17  C   UNL     1       3.136   3.998  -1.014  0.00  0.00    +0.106 A 
ATOM     18  C   UNL     1       1.869   4.529  -0.850  0.00  0.00    +0.029 A 
ATOM     19  C   UNL     1       0.802   3.702  -0.569  0.00  0.00    +0.015 A 
BRANCH  17  20
ATOM     20  S   UNL     1       4.494   5.062  -1.373  0.00  0.00    +0.061 S 
ATOM     21  O   UNL     1       5.475   4.263  -2.020  0.00  0.00    -0.153 OA
ATOM     22  O   UNL     1       3.947   6.230  -1.971  0.00  0.00    -0.153 OA
BRANCH  20  23
ATOM     23  N   UNL     1       5.144   5.531   0.075  0.00  0.00    -0.169 NA
BRANCH  23  24
ATOM     24  C   UNL     1       6.210   4.737   0.691  0.00  0.00    +0.136 C 
BRANCH  24  25
ATOM     25  C   UNL     1       7.550   5.315   0.312  0.00  0.00    -0.018 C 
ATOM     26  C   UNL     1       8.405   5.652   1.245  0.00  0.00    +0.005 C 
ENDBRANCH  24  25
ENDBRANCH  23  24
BRANCH  23  27
ATOM     27  C   UNL     1       4.654   6.740   0.741  0.00  0.00    +0.136 C 
BRANCH  27  28
ATOM     28  C   UNL     1       3.596   6.366   1.747  0.00  0.00    -0.018 C 
ATOM     29  C   UNL     1       3.721   6.736   2.998  0.00  0.00    +0.005 C 
ENDBRANCH  27  28
ENDBRANCH  23  27
ENDBRANCH  20  23
ENDBRANCH  17  20
ENDBRANCH  12  14
BRANCH   1  30
ATOM     30  C   UNL     1       0.992  -0.332  -1.394  0.00  0.00    +0.097 C 
BRANCH  30  31
ATOM     31  C   UNL     1       1.858  -1.278  -0.560  0.00  0.00    -0.060 C 
BRANCH  31  34
ATOM     32  C   UNL     1       3.932  -0.846  -1.733  0.00  0.00    -0.097 C 
ATOM     33  C   UNL     1       3.518  -3.028  -0.770  0.00  0.00    -0.097 C 
ATOM     34  N   UNL     1       2.900  -1.860  -1.432  0.00  0.00    +0.377 N 
ATOM     35  H   UNL     1       2.466  -2.166  -2.311  0.00  0.00    -0.083 HD
ENDBRANCH  31  34
ENDBRANCH  30  31
ENDBRANCH   1  30
TORSDOF 10
