REMARK  Name = ZINC18588931
REMARK  11 active torsions:
REMARK  status: ('A' for Active; 'I' for Inactive)
REMARK    1  A    between atoms: C_1  and  C_2
REMARK    2  A    between atoms: C_2  and  C_4
REMARK    3  A    between atoms: C_2  and  S_17
REMARK    4  A    between atoms: N_9  and  C_10
REMARK    5  A    between atoms: C_10  and  C_11
REMARK    6  A    between atoms: S_17  and  C_18
REMARK    7  A    between atoms: C_21  and  C_23
REMARK    8  A    between atoms: C_26  and  C_29
REMARK    9  A    between atoms: C_29  and  C_30
REMARK   10  A    between atoms: C_29  and  C_31
REMARK   11  A    between atoms: C_29  and  C_32
REMARK                            x       y       z     vdW  Elec       q    Type
REMARK                         _______ _______ _______ _____ _____    ______ ____
ROOT
ATOM      1  C   UNL     1       1.526  -4.036   5.096  0.00  0.00    +0.029 C 
ATOM      2  C   UNL     1       0.101  -4.118   4.545  0.00  0.00    +0.139 C 
ENDROOT
BRANCH   2   3
ATOM      3  C   UNL     1       0.081  -3.608   3.127  0.00  0.00    +0.234 C 
ATOM      4  O   UNL     1       0.083  -4.391   2.201  0.00  0.00    -0.274 OA
ATOM      5  N   UNL     1       0.060  -2.282   2.888  0.00  0.00    -0.239 N 
ATOM      6  C   UNL     1       0.042  -1.826   1.619  0.00  0.00    +0.306 C 
ATOM      7  O   UNL     1       0.044  -2.611   0.691  0.00  0.00    -0.252 OA
ATOM      8  N   UNL     1       0.022  -0.500   1.381  0.00  0.00    -0.295 N 
ATOM      9  H   UNL     1       0.059  -1.656   3.628  0.00  0.00    +0.159 HD
ATOM     10  H   UNL     1       0.020   0.127   2.121  0.00  0.00    +0.151 HD
BRANCH   8  11
ATOM     11  C   UNL     1       0.002  -0.004   0.002  0.00  0.00    +0.141 C 
BRANCH  11  12
ATOM     12  C   UNL     1      -0.018   1.503   0.010  0.00  0.00    -0.030 A 
ATOM     13  C   UNL     1      -1.225   2.178   0.020  0.00  0.00    +0.005 A 
ATOM     14  C   UNL     1      -1.244   3.560   0.032  0.00  0.00    +0.000 A 
ATOM     15  C   UNL     1      -0.056   4.267   0.025  0.00  0.00    +0.000 A 
ATOM     16  C   UNL     1       1.151   3.592   0.010  0.00  0.00    +0.000 A 
ATOM     17  C   UNL     1       1.169   2.210   0.003  0.00  0.00    +0.005 A 
ENDBRANCH  11  12
ENDBRANCH   8  11
ENDBRANCH   2   3
BRANCH   2  18
ATOM     18  S   UNL     1      -0.459  -5.839   4.575  0.00  0.00    -0.053 S 
BRANCH  18  19
ATOM     19  C   UNL     1      -0.482  -6.123   6.314  0.00  0.00    +0.278 A 
ATOM     20  N   UNL     1      -0.157  -5.258   7.247  0.00  0.00    -0.101 NA
ATOM     21  N   UNL     1      -0.295  -5.803   8.403  0.00  0.00    -0.106 NA
ATOM     22  C   UNL     1      -0.704  -7.040   8.256  0.00  0.00    +0.249 A 
ATOM     23  O   UNL     1      -0.831  -7.268   6.930  0.00  0.00    -0.411 OA
BRANCH  22  24
ATOM     24  C   UNL     1      -0.977  -8.006   9.340  0.00  0.00    +0.039 A 
ATOM     25  C   UNL     1      -1.417  -9.296   9.035  0.00  0.00    +0.013 A 
ATOM     26  C   UNL     1      -1.665 -10.194  10.052  0.00  0.00    +0.005 A 
ATOM     27  C   UNL     1      -1.490  -9.817  11.372  0.00  0.00    -0.042 A 
ATOM     28  C   UNL     1      -1.059  -8.539  11.681  0.00  0.00    +0.005 A 
ATOM     29  C   UNL     1      -0.802  -7.632  10.674  0.00  0.00    +0.013 A 
BRANCH  27  30
ATOM     30  C   UNL     1      -1.770 -10.802  12.477  0.00  0.00    -0.013 C 
ATOM     31  C   UNL     1      -2.868 -10.249  13.387  0.00  0.00    +0.015 C 
ATOM     32  C   UNL     1      -2.228 -12.130  11.873  0.00  0.00    +0.015 C 
ATOM     33  C   UNL     1      -0.496 -11.026  13.295  0.00  0.00    +0.015 C 
ENDBRANCH  27  30
ENDBRANCH  22  24
ENDBRANCH  18  19
ENDBRANCH   2  18
TORSDOF 7
