REMARK  Name = ZINC04916883
REMARK  5 active torsions:
REMARK  status: ('A' for Active; 'I' for Inactive)
REMARK    1  A    between atoms: C_1  and  C_2
REMARK    2  A    between atoms: C_3  and  C_18
REMARK    3  A    between atoms: C_4  and  C_10
REMARK    4  A    between atoms: C_18  and  O_20
REMARK    5  A    between atoms: O_20  and  C_21
REMARK                            x       y       z     vdW  Elec       q    Type
REMARK                         _______ _______ _______ _____ _____    ______ ____
ROOT
ATOM      1  C   UNL     1       0.358   1.362   0.067  0.00  0.00    +0.061 C 
ATOM      2  C   UNL     1       0.221  -0.139   0.052  0.00  0.00    +0.018 C 
ATOM      3  C   UNL     1      -1.004  -0.689   0.012  0.00  0.00    +0.061 C 
ATOM      4  C   UNL     1      -1.170  -2.185  -0.046  0.00  0.00    +0.070 C 
ATOM      5  C   UNL     1      -0.040  -2.855   0.738  0.00  0.00    +0.109 C 
ATOM      6  C   UNL     1       1.276  -2.232   0.349  0.00  0.00    +0.218 C 
ATOM      7  O   UNL     1       2.272  -2.919   0.280  0.00  0.00    -0.275 OA
ATOM      8  N   UNL     1       1.348  -0.916   0.073  0.00  0.00    -0.289 N 
ATOM      9  H   UNL     1       2.211  -0.512  -0.110  0.00  0.00    +0.155 HD
ENDROOT
BRANCH   4  10
ATOM     10  C   UNL     1      -1.123  -2.640  -1.482  0.00  0.00    +0.014 A 
ATOM     11  C   UNL     1      -0.104  -2.206  -2.313  0.00  0.00    +0.129 A 
ATOM     12  C   UNL     1      -0.062  -2.625  -3.632  0.00  0.00    +0.039 A 
ATOM     13  C   UNL     1      -1.037  -3.476  -4.119  0.00  0.00    +0.004 A 
ATOM     14  C   UNL     1      -2.054  -3.909  -3.289  0.00  0.00    +0.020 A 
ATOM     15  C   UNL     1      -2.095  -3.496  -1.969  0.00  0.00    +0.047 A 
ATOM     16 CL   UNL     1      -3.369  -4.046  -0.926  0.00  0.00    -0.083 Cl
ATOM     17  F   UNL     1       0.848  -1.375  -1.837  0.00  0.00    -0.205 F 
ENDBRANCH   4  10
BRANCH   3  18
ATOM     18  C   UNL     1      -2.148   0.145   0.026  0.00  0.00    +0.337 C 
ATOM     19  O   UNL     1      -2.019   1.354   0.073  0.00  0.00    -0.245 OA
BRANCH  18  20
ATOM     20  O   UNL     1      -3.381  -0.402  -0.014  0.00  0.00    -0.458 OA
BRANCH  20  21
ATOM     21  C   UNL     1      -4.490   0.499   0.002  0.00  0.00    +0.177 C 
ATOM     22  C   UNL     1      -4.854   0.816   1.467  0.00  0.00    +0.044 C 
ATOM     23  C   UNL     1      -5.636   2.102   1.498  0.00  0.00    +0.004 C 
ATOM     24  C   UNL     1      -7.158   1.867   1.470  0.00  0.00    +0.000 C 
ATOM     25  C   UNL     1      -7.574   0.759   0.484  0.00  0.00    +0.000 C 
ATOM     26  C   UNL     1      -6.820   0.833  -0.816  0.00  0.00    +0.004 C 
ATOM     27  C   UNL     1      -5.597  -0.103  -0.727  0.00  0.00    +0.044 C 
ENDBRANCH  20  21
ENDBRANCH  18  20
ENDBRANCH   3  18
TORSDOF 4
