REMARK  Name = ZINC16925716
REMARK  8 active torsions:
REMARK  status: ('A' for Active; 'I' for Inactive)
REMARK    1  A    between atoms: C_1  and  C_2
REMARK    2  A    between atoms: C_2  and  C_8
REMARK    3  A    between atoms: N_3  and  N_4
REMARK    4  A    between atoms: C_14  and  C_35
REMARK    5  A    between atoms: C_24  and  C_34
REMARK    6  A    between atoms: C_27  and  O_30
REMARK    7  A    between atoms: O_30  and  C_31
REMARK    8  A    between atoms: C_31  and  C_33
REMARK                            x       y       z     vdW  Elec       q    Type
REMARK                         _______ _______ _______ _____ _____    ______ ____
ROOT
ATOM      1  C   UNL     1      -0.297   0.943   2.357  0.00  0.00    +0.041 C 
ATOM      2  C   UNL     1      -0.800   0.435   3.732  0.00  0.00    +0.010 C 
ATOM      3  C   UNL     1      -2.352   0.487   3.680  0.00  0.00    +0.005 C 
ATOM      4  C   UNL     1      -2.638   0.496   2.173  0.00  0.00    -0.001 C 
ATOM      5  C   UNL     1      -1.556   1.476   1.657  0.00  0.00    -0.021 C 
ATOM      6  C   UNL     1      -1.532   1.449   0.150  0.00  0.00    +0.008 C 
ATOM      7  C   UNL     1      -2.915   1.681  -0.447  0.00  0.00    +0.005 C 
ATOM      8  C   UNL     1      -4.070   0.940   0.211  0.00  0.00    +0.003 C 
ATOM      9  C   UNL     1      -3.989   0.990   1.734  0.00  0.00    +0.000 C 
ATOM     10  C   UNL     1      -5.131   0.225   2.389  0.00  0.00    +0.031 C 
ATOM     11  C   UNL     1      -5.282  -1.138   1.790  0.00  0.00    -0.027 C 
ATOM     12  C   UNL     1      -4.934  -1.415   0.573  0.00  0.00    -0.064 C 
ATOM     13  C   UNL     1      -4.293  -0.437  -0.369  0.00  0.00    -0.008 C 
ATOM     14  C   UNL     1      -5.197  -0.326  -1.609  0.00  0.00    +0.015 C 
ATOM     15  C   UNL     1      -5.478  -1.700  -2.207  0.00  0.00    +0.046 C 
ATOM     16  C   UNL     1      -6.141  -2.630  -1.194  0.00  0.00    +0.180 C 
ATOM     17  C   UNL     1      -5.240  -2.804   0.033  0.00  0.00    +0.075 C 
ATOM     18  C   UNL     1      -2.971  -1.048  -0.829  0.00  0.00    +0.016 C 
ATOM     19  C   UNL     1      -1.797   2.904   2.149  0.00  0.00    +0.012 C 
ENDROOT
BRANCH   1  21
ATOM     20  C   UNL     1       0.492   3.083   3.624  0.00  0.00    +0.062 C 
ATOM     21  C   UNL     1       0.699   2.056   2.540  0.00  0.00    +0.037 C 
ATOM     22  N   UNL     1       1.723   2.131   1.775  0.00  0.00    -0.188 NA
BRANCH  22  23
ATOM     23  N   UNL     1       1.838   1.274   0.673  0.00  0.00    -0.191 N 
ATOM     24  C   UNL     1       2.857   1.426  -0.196  0.00  0.00    +0.317 C 
ATOM     25  O   UNL     1       2.957   0.682  -1.152  0.00  0.00    -0.251 OA
ATOM     26  N   UNL     1       3.765   2.403  -0.004  0.00  0.00    -0.312 N 
ATOM     27  H   UNL     1       1.184   0.570   0.536  0.00  0.00    +0.179 HD
ATOM     28  H   UNL     1       3.686   2.997   0.759  0.00  0.00    +0.147 HD
ATOM     29  H   UNL     1       4.499   2.513  -0.630  0.00  0.00    +0.147 HD
ENDBRANCH  22  23
ENDBRANCH   1  21
BRANCH  16  30
ATOM     30  O   UNL     1      -7.417  -2.074  -0.781  0.00  0.00    -0.461 OA
BRANCH  30  31
ATOM     31  C   UNL     1      -8.376  -2.944  -0.429  0.00  0.00    +0.304 C 
ATOM     32  O   UNL     1      -8.157  -4.132  -0.465  0.00  0.00    -0.251 OA
ATOM     33  C   UNL     1      -9.726  -2.441   0.011  0.00  0.00    +0.136 C 
ENDBRANCH  30  31
ENDBRANCH  16  30
TORSDOF 4
