REMARK  Name = ZINC00989355
REMARK  11 active torsions:
REMARK  status: ('A' for Active; 'I' for Inactive)
REMARK    1  A    between atoms: C_1  and  C_2
REMARK    2  A    between atoms: C_2  and  C_3
REMARK    3  A    between atoms: C_2  and  C_4
REMARK    4  A    between atoms: C_7  and  C_10
REMARK    5  A    between atoms: C_16  and  C_33
REMARK    6  A    between atoms: C_17  and  C_24
REMARK    7  A    between atoms: C_19  and  C_22
REMARK    8  A    between atoms: C_20  and  N_21
REMARK    9  A    between atoms: C_27  and  C_30
REMARK   10  A    between atoms: C_30  and  C_31
REMARK   11  A    between atoms: C_30  and  C_32
REMARK                            x       y       z     vdW  Elec       q    Type
REMARK                         _______ _______ _______ _____ _____    ______ ____
ROOT
ATOM      1  C   UNL     1       0.409   0.139  -0.838  0.00  0.00    +0.028 C 
ATOM      2  C   UNL     1       0.338   1.395  -0.329  0.00  0.00    +0.079 A 
ATOM      3  C   UNL     1       1.418   2.353  -0.056  0.00  0.00    +0.271 A 
ATOM      4  O   UNL     1       2.578   2.067  -0.287  0.00  0.00    -0.266 OA
ATOM      5  N   UNL     1       1.093   3.556   0.458  0.00  0.00    -0.257 N 
ATOM      6  C   UNL     1      -0.243   3.812   0.695  0.00  0.00    +0.099 A 
ATOM      7  C   UNL     1      -0.720   4.976   1.208  0.00  0.00    +0.057 C 
ATOM      8  C   UNL     1       0.270   6.073   1.545  0.00  0.00    +0.100 C 
ATOM      9  C   UNL     1       1.725   5.753   1.270  0.00  0.00    +0.079 C 
ATOM     10  C   UNL     1       2.039   4.543   0.757  0.00  0.00    +0.118 C 
ATOM     11  S   UNL     1      -1.093   2.333   0.181  0.00  0.00    -0.065 S 
ENDROOT
BRANCH   1  15
ATOM     12  C   UNL     1      -3.058  -2.300  -0.954  0.00  0.00    -0.045 A 
ATOM     13  C   UNL     1      -1.903  -2.713  -1.596  0.00  0.00    +0.004 A 
ATOM     14  C   UNL     1      -0.772  -1.926  -1.563  0.00  0.00    +0.008 A 
ATOM     15  C   UNL     1      -0.793  -0.706  -0.878  0.00  0.00    -0.024 A 
ATOM     16  C   UNL     1      -1.962  -0.298  -0.227  0.00  0.00    +0.008 A 
ATOM     17  C   UNL     1      -3.086  -1.094  -0.273  0.00  0.00    +0.004 A 
BRANCH  12  19
ATOM     18  C   UNL     1      -4.689  -3.552   0.431  0.00  0.00    +0.012 C 
ATOM     19  C   UNL     1      -4.290  -3.166  -0.995  0.00  0.00    +0.013 C 
ATOM     20  C   UNL     1      -5.434  -2.395  -1.654  0.00  0.00    +0.012 C 
ENDBRANCH  12  19
ENDBRANCH   1  15
BRANCH   8  21
ATOM     21  C   UNL     1       0.128   6.402   3.009  0.00  0.00    -0.035 A 
ATOM     22  C   UNL     1       0.341   5.424   3.961  0.00  0.00    +0.005 A 
ATOM     23  C   UNL     1       0.216   5.727   5.304  0.00  0.00    +0.004 A 
ATOM     24  C   UNL     1      -0.133   7.007   5.694  0.00  0.00    -0.045 A 
ATOM     25  C   UNL     1      -0.351   7.984   4.741  0.00  0.00    +0.004 A 
ATOM     26  C   UNL     1      -0.221   7.682   3.398  0.00  0.00    +0.005 A 
BRANCH  24  27
ATOM     27  C   UNL     1      -0.274   7.336   7.157  0.00  0.00    +0.013 C 
ATOM     28  C   UNL     1      -1.359   6.453   7.776  0.00  0.00    +0.012 C 
ATOM     29  C   UNL     1       1.057   7.083   7.868  0.00  0.00    +0.012 C 
ENDBRANCH  24  27
ENDBRANCH   8  21
BRANCH   7  30
ATOM     30  C   UNL     1      -2.096   5.158   1.420  0.00  0.00    +0.241 C 
ATOM     31  O   UNL     1      -2.879   4.265   1.143  0.00  0.00    -0.271 OA
ATOM     32  N   UNL     1      -2.552   6.320   1.929  0.00  0.00    -0.326 N 
ATOM     33  H   UNL     1      -1.929   7.030   2.149  0.00  0.00    +0.145 HD
ATOM     34  H   UNL     1      -3.502   6.446   2.076  0.00  0.00    +0.145 HD
ENDBRANCH   7  30
BRANCH  10  35
ATOM     35  N   UNL     1       3.363   4.266   0.514  0.00  0.00    -0.343 N 
ATOM     36  H   UNL     1       3.606   3.631  -0.178  0.00  0.00    +0.144 HD
ATOM     37  H   UNL     1       4.054   4.706   1.034  0.00  0.00    +0.144 HD
ENDBRANCH  10  35
BRANCH   9  38
ATOM     38  C   UNL     1       2.749   6.714   1.550  0.00  0.00    +0.099 C 
ATOM     39  N   UNL     1       3.561   7.477   1.772  0.00  0.00    -0.191 NA
ENDBRANCH   9  38
TORSDOF 7
