REMARK  Name = ZINC64891201
REMARK  6 active torsions:
REMARK  status: ('A' for Active; 'I' for Inactive)
REMARK    1  A    between atoms: C_1  and  C_2
REMARK    2  A    between atoms: C_2  and  C_3
REMARK    3  A    between atoms: C_3  and  N_4
REMARK    4  A    between atoms: C_8  and  C_15
REMARK    5  A    between atoms: C_18  and  C_21
REMARK    6  A    between atoms: N_26  and  C_28
REMARK                            x       y       z     vdW  Elec       q    Type
REMARK                         _______ _______ _______ _____ _____    ______ ____
ROOT
ATOM      1  C   UNL     1      -2.574  -6.052   3.208  0.00  0.00    +0.168 C 
ATOM      2  N   UNL     1      -2.278  -7.302   3.057  0.00  0.00    -0.067 NA
ATOM      3  O   UNL     1      -3.272  -8.130   3.632  0.00  0.00    -0.369 OA
ATOM      4  C   UNL     1      -4.266  -7.253   4.183  0.00  0.00    +0.297 C 
ATOM      5  N   UNL     1      -3.769  -5.899   3.888  0.00  0.00    -0.289 N 
ATOM      6  H   UNL     1      -4.197  -5.062   4.124  0.00  0.00    +0.151 HD
ENDROOT
BRANCH   1  11
ATOM      7  N   UNL     1       0.785  -1.997   1.253  0.00  0.00    -0.292 N 
ATOM      8  C   UNL     1      -0.185  -2.820   1.813  0.00  0.00    +0.070 A 
ATOM      9  C   UNL     1      -1.372  -2.566   2.488  0.00  0.00    +0.029 A 
ATOM     10  C   UNL     1      -2.147  -3.612   2.939  0.00  0.00    +0.013 A 
ATOM     11  C   UNL     1      -1.741  -4.931   2.721  0.00  0.00    +0.020 A 
ATOM     12  C   UNL     1      -0.550  -5.190   2.044  0.00  0.00    +0.039 A 
ATOM     13  C   UNL     1       0.226  -4.138   1.591  0.00  0.00    +0.068 A 
ATOM     14  N   UNL     1       1.435  -4.071   0.901  0.00  0.00    -0.306 N 
ATOM     15  H   UNL     1       1.963  -4.829   0.607  0.00  0.00    +0.170 HD
ATOM     16  C   UNL     1       1.741  -2.774   0.709  0.00  0.00    +0.328 A 
ATOM     17  O   UNL     1       2.732  -2.366   0.133  0.00  0.00    -0.247 OA
BRANCH   7  18
ATOM     18  C   UNL     1       0.767  -0.532   1.249  0.00  0.00    +0.127 C 
BRANCH  18  20
ATOM     19  C   UNL     1       0.023   1.496  -0.007  0.00  0.00    +0.005 C 
ATOM     20  C   UNL     1       0.041  -0.034  -0.003  0.00  0.00    +0.018 C 
ENDBRANCH  18  20
ENDBRANCH   7  18
ENDBRANCH   1  11
BRANCH   4  21
ATOM     21  C   UNL     1      -5.619  -7.490   3.510  0.00  0.00    +0.077 C 
ATOM     22  C   UNL     1      -5.501  -7.374   1.972  0.00  0.00    +0.106 C 
ATOM     23  C   UNL     1      -6.438  -8.439   1.446  0.00  0.00    +0.220 C 
ATOM     24  O   UNL     1      -6.851  -8.500   0.308  0.00  0.00    -0.275 OA
ATOM     25  N   UNL     1      -6.745  -9.308   2.425  0.00  0.00    -0.271 N 
ATOM     26  C   UNL     1      -6.073  -8.957   3.682  0.00  0.00    +0.123 C 
BRANCH  25  27
ATOM     27  C   UNL     1      -7.597 -10.406   2.266  0.00  0.00    +0.038 A 
ATOM     28  C   UNL     1      -8.277 -10.592   1.069  0.00  0.00    +0.023 A 
ATOM     29  C   UNL     1      -9.117 -11.677   0.914  0.00  0.00    +0.003 A 
ATOM     30  C   UNL     1      -9.283 -12.579   1.950  0.00  0.00    +0.020 A 
ATOM     31  C   UNL     1      -8.607 -12.397   3.144  0.00  0.00    +0.043 A 
ATOM     32  C   UNL     1      -7.760 -11.316   3.302  0.00  0.00    +0.043 A 
ATOM     33 CL   UNL     1      -8.818 -13.531   4.441  0.00  0.00    -0.083 Cl
ENDBRANCH  25  27
ENDBRANCH   4  21
TORSDOF 5
