REMARK  Name = ZINC61523460
REMARK  7 active torsions:
REMARK  status: ('A' for Active; 'I' for Inactive)
REMARK    1  A    between atoms: C_1  and  C_2
REMARK    2  A    between atoms: C_2  and  C_3
REMARK    3  A    between atoms: C_2  and  N_23
REMARK    4  A    between atoms: N_5  and  C_6
REMARK    5  A    between atoms: C_6  and  C_7
REMARK    6  A    between atoms: C_10  and  C_13
REMARK    7  A    between atoms: C_13  and  N_14
REMARK                            x       y       z     vdW  Elec       q    Type
REMARK                         _______ _______ _______ _____ _____    ______ ____
ROOT
ATOM      1  C   UNL     1       4.091  -0.097  -2.678  0.00  0.00    -0.030 A 
ATOM      2  C   UNL     1       4.374   1.121  -3.267  0.00  0.00    +0.005 A 
ATOM      3  C   UNL     1       5.670   1.600  -3.277  0.00  0.00    +0.006 A 
ATOM      4  C   UNL     1       6.684   0.861  -2.697  0.00  0.00    -0.028 A 
ATOM      5  C   UNL     1       6.401  -0.357  -2.106  0.00  0.00    +0.006 A 
ATOM      6  C   UNL     1       5.104  -0.833  -2.093  0.00  0.00    +0.005 A 
ENDROOT
BRANCH   1   7
ATOM      7  C   UNL     1       2.677  -0.618  -2.667  0.00  0.00    +0.139 C 
BRANCH   7  10
ATOM      8  C   UNL     1       0.707  -0.490  -1.238  0.00  0.00    +0.233 C 
ATOM      9  O   UNL     1       0.120  -1.191  -2.034  0.00  0.00    -0.274 OA
ATOM     10  N   UNL     1       1.991  -0.146  -1.462  0.00  0.00    -0.310 N 
ATOM     11  H   UNL     1       2.461   0.415  -0.825  0.00  0.00    +0.149 HD
BRANCH   8  13
ATOM     12  C   UNL     1      -0.019   1.526   0.010  0.00  0.00    +0.038 C 
ATOM     13  C   UNL     1       0.002  -0.004   0.002  0.00  0.00    +0.157 C 
BRANCH  13  14
ATOM     14  N   UNL     1      -1.372  -0.511   0.012  0.00  0.00    -0.289 N 
ATOM     15  C   UNL     1      -2.029  -0.655   1.181  0.00  0.00    +0.298 C 
ATOM     16  O   UNL     1      -1.480  -0.364   2.226  0.00  0.00    -0.253 OA
ATOM     17  N   UNL     1      -3.293  -1.122   1.190  0.00  0.00    -0.313 N 
ATOM     18  H   UNL     1      -1.810  -0.743  -0.822  0.00  0.00    +0.151 HD
ATOM     19  H   UNL     1      -3.731  -1.354   0.356  0.00  0.00    +0.146 HD
ATOM     20  H   UNL     1      -3.765  -1.225   2.031  0.00  0.00    +0.146 HD
ENDBRANCH  13  14
ENDBRANCH   8  13
ENDBRANCH   7  10
ENDBRANCH   1   7
BRANCH   4  21
ATOM     21  C   UNL     1       8.098   1.382  -2.708  0.00  0.00    +0.158 C 
BRANCH  21  22
ATOM     22  N   UNL     1       8.331   2.188  -1.508  0.00  0.00    -0.326 N 
ATOM     23  C   UNL     1       8.211   3.539  -1.408  0.00  0.00    +0.200 A 
ATOM     24  N   UNL     1       8.491   3.925  -0.197  0.00  0.00    -0.236 NA
ATOM     25  C   UNL     1       8.812   2.847   0.563  0.00  0.00    +0.089 A 
ATOM     26  C   UNL     1       8.709   1.716  -0.266  0.00  0.00    +0.069 A 
ATOM     27  C   UNL     1       8.978   0.456   0.248  0.00  0.00    +0.028 A 
ATOM     28  C   UNL     1       9.342   0.322   1.572  0.00  0.00    +0.002 A 
ATOM     29  C   UNL     1       9.440   1.437   2.390  0.00  0.00    +0.002 A 
ATOM     30  C   UNL     1       9.186   2.687   1.899  0.00  0.00    +0.030 A 
ENDBRANCH  21  22
ENDBRANCH   4  21
TORSDOF 6
