REMARK  Name = ZINC44784829
REMARK  5 active torsions:
REMARK  status: ('A' for Active; 'I' for Inactive)
REMARK    1  A    between atoms: C_3  and  C_6
REMARK    2  A    between atoms: C_6  and  N_7
REMARK    3  A    between atoms: C_8  and  C_10
REMARK    4  A    between atoms: C_10  and  C_17
REMARK    5  A    between atoms: N_18  and  O_19
REMARK                            x       y       z     vdW  Elec       q    Type
REMARK                         _______ _______ _______ _____ _____    ______ ____
ROOT
ATOM      1  C   UNL     1       5.922   2.718   2.992  0.00  0.00    +0.105 C 
ATOM      2  C   UNL     1       6.042   1.481   3.906  0.00  0.00    +0.024 C 
ATOM      3  C   UNL     1       6.531   0.322   3.080  0.00  0.00    +0.001 C 
ATOM      4  C   UNL     1       8.062   0.160   3.140  0.00  0.00    +0.000 C 
ATOM      5  C   UNL     1       8.809   1.505   3.062  0.00  0.00    +0.000 C 
ATOM      6  C   UNL     1       8.210   2.439   2.046  0.00  0.00    +0.001 C 
ATOM      7  C   UNL     1       7.205   3.365   2.762  0.00  0.00    +0.024 C 
ENDROOT
BRANCH   1   8
ATOM      8  C   UNL     1       4.985   3.708   3.635  0.00  0.00    +0.147 C 
ATOM      9  N   UNL     1       5.247   4.177   4.809  0.00  0.00    -0.076 NA
ATOM     10  N   UNL     1       3.849   4.113   2.969  0.00  0.00    -0.343 N 
ATOM     11  H   UNL     1       3.623   3.719   2.112  0.00  0.00    +0.144 HD
ATOM     12  H   UNL     1       3.276   4.792   3.358  0.00  0.00    +0.144 HD
BRANCH   9  13
ATOM     13  O   UNL     1       6.344   3.667   5.546  0.00  0.00    -0.408 OA
ATOM     14  H   UNL     1       6.460   4.079   6.413  0.00  0.00    +0.328 HD
ENDBRANCH   9  13
ENDBRANCH   1   8
BRANCH   1  16
ATOM     15  N   UNL     1       4.231   1.534   1.628  0.00  0.00    -0.310 N 
ATOM     16  C   UNL     1       5.346   2.291   1.667  0.00  0.00    +0.227 C 
ATOM     17  O   UNL     1       5.885   2.628   0.634  0.00  0.00    -0.275 OA
ATOM     18  H   UNL     1       3.838   1.208   2.453  0.00  0.00    +0.149 HD
BRANCH  15  19
ATOM     19  C   UNL     1       3.613   1.205   0.342  0.00  0.00    +0.146 C 
BRANCH  19  22
ATOM     20  C   UNL     1       0.137  -0.223   0.964  0.00  0.00    +0.008 A 
ATOM     21  C   UNL     1       1.106   0.743   0.768  0.00  0.00    +0.013 A 
ATOM     22  C   UNL     1       2.390   0.355   0.575  0.00  0.00    +0.007 A 
ATOM     23  S   UNL     1       2.258  -1.423   0.666  0.00  0.00    -0.100 S 
ATOM     24  C   UNL     1       0.500  -1.530   0.957  0.00  0.00    +0.045 A 
ENDBRANCH  19  22
ENDBRANCH  15  19
ENDBRANCH   1  16
TORSDOF 5
