REMARK  Name = ZINC38884182
REMARK  8 active torsions:
REMARK  status: ('A' for Active; 'I' for Inactive)
REMARK    1  A    between atoms: C_1  and  C_2
REMARK    2  A    between atoms: C_2  and  C_4
REMARK    3  A    between atoms: C_2  and  N_15
REMARK    4  A    between atoms: C_7  and  N_10
REMARK    5  A    between atoms: C_16  and  C_18
REMARK    6  A    between atoms: N_21  and  C_24
REMARK    7  A    between atoms: C_24  and  C_25
REMARK    8  A    between atoms: C_27  and  C_30
REMARK                            x       y       z     vdW  Elec       q    Type
REMARK                         _______ _______ _______ _____ _____    ______ ____
ROOT
ATOM      1  C   UNL     1       2.783  -1.099   2.395  0.00  0.00    +0.071 C 
ATOM      2  C   UNL     1       2.511  -0.160   3.573  0.00  0.00    -0.006 C 
ATOM      3  C   UNL     1       3.316  -0.627   4.787  0.00  0.00    -0.077 C 
ATOM      4  N   UNL     1       4.748  -0.609   4.465  0.00  0.00    +0.386 N 
ATOM      5  C   UNL     1       5.028  -1.561   3.384  0.00  0.00    -0.077 C 
ATOM      6  C   UNL     1       4.288  -1.129   2.116  0.00  0.00    -0.006 C 
ATOM      7  H   UNL     1       5.014   0.319   4.173  0.00  0.00    -0.081 HD
ENDROOT
BRANCH   1   9
ATOM      8  N   UNL     1       0.711  -0.489   1.189  0.00  0.00    -0.309 N 
ATOM      9  C   UNL     1       2.054  -0.600   1.174  0.00  0.00    +0.216 C 
ATOM     10  O   UNL     1       2.676  -0.297   0.177  0.00  0.00    -0.276 OA
ATOM     11  H   UNL     1       0.213  -0.731   1.986  0.00  0.00    +0.149 HD
BRANCH   8  13
ATOM     12  C   UNL     1      -0.019   1.526   0.010  0.00  0.00    +0.033 C 
ATOM     13  C   UNL     1       0.002  -0.004   0.002  0.00  0.00    +0.100 C 
BRANCH  13  14
ATOM     14  C   UNL     1      -1.412  -0.526   0.013  0.00  0.00    -0.027 A 
ATOM     15  C   UNL     1      -2.122  -0.570   1.199  0.00  0.00    +0.007 A 
ATOM     16  C   UNL     1      -3.417  -1.048   1.212  0.00  0.00    +0.023 A 
ATOM     17  C   UNL     1      -4.008  -1.483   0.032  0.00  0.00    +0.030 A 
ATOM     18  C   UNL     1      -3.292  -1.437  -1.157  0.00  0.00    +0.023 A 
ATOM     19  C   UNL     1      -1.998  -0.953  -1.164  0.00  0.00    +0.007 A 
BRANCH  17  20
ATOM     20  N   UNL     1      -5.318  -1.967   0.042  0.00  0.00    -0.330 N 
ATOM     21  C   UNL     1      -6.186  -2.065   1.225  0.00  0.00    +0.105 C 
ATOM     22  C   UNL     1      -7.524  -2.678   0.761  0.00  0.00    +0.020 C 
ATOM     23  C   UNL     1      -7.135  -3.414  -0.548  0.00  0.00    +0.020 C 
ATOM     24  C   UNL     1      -6.061  -2.459  -1.132  0.00  0.00    +0.105 C 
ENDBRANCH  17  20
ENDBRANCH  13  14
ENDBRANCH   8  13
ENDBRANCH   1   9
BRANCH   4  25
ATOM     25  C   UNL     1       5.521  -0.983   5.657  0.00  0.00    +0.022 C 
BRANCH  25  26
ATOM     26  C   UNL     1       6.993  -0.846   5.365  0.00  0.00    +0.211 A 
ATOM     27  N   UNL     1       7.710   0.224   5.555  0.00  0.00    -0.192 NA
ATOM     28  C   UNL     1       8.985  -0.003   5.186  0.00  0.00    +0.209 A 
ATOM     29  N   UNL     1       9.081  -1.240   4.755  0.00  0.00    -0.056 NA
ATOM     30  O   UNL     1       7.785  -1.807   4.871  0.00  0.00    -0.340 OA
BRANCH  28  31
ATOM     31  C   UNL     1      10.090   0.974   5.256  0.00  0.00    +0.060 A 
ATOM     32  C   UNL     1      11.403   0.820   4.898  0.00  0.00    +0.019 A 
ATOM     33  C   UNL     1      12.262   1.884   5.054  0.00  0.00    +0.008 A 
ATOM     34  C   UNL     1      11.784   3.052   5.557  0.00  0.00    +0.046 A 
ATOM     35  S   UNL     1      10.061   2.667   5.823  0.00  0.00    -0.093 S 
ENDBRANCH  28  31
ENDBRANCH  25  26
ENDBRANCH   4  25
TORSDOF 7
