REMARK  Name = ZINC14902645
REMARK  7 active torsions:
REMARK  status: ('A' for Active; 'I' for Inactive)
REMARK    1  A    between atoms: C_6  and  O_7
REMARK    2  A    between atoms: O_7  and  C_8
REMARK    3  A    between atoms: C_8  and  C_9
REMARK    4  A    between atoms: C_11  and  C_14
REMARK    5  A    between atoms: C_14  and  S_15
REMARK    6  A    between atoms: S_15  and  C_16
REMARK    7  A    between atoms: C_20  and  N_22
REMARK                            x       y       z     vdW  Elec       q    Type
REMARK                         _______ _______ _______ _____ _____    ______ ____
ROOT
ATOM      1  C   UNL     1      -2.547   4.033   0.036  0.00  0.00    +0.116 A 
ATOM      2  N   UNL     1      -3.310   4.327   1.063  0.00  0.00    -0.245 NA
ATOM      3  C   UNL     1      -4.521   4.817   0.900  0.00  0.00    +0.059 A 
ATOM      4  C   UNL     1      -4.978   5.003  -0.365  0.00  0.00    +0.071 A 
ATOM      5  S   UNL     1      -3.567   4.443  -1.308  0.00  0.00    -0.077 S 
ENDROOT
BRANCH   1   6
ATOM      6  C   UNL     1      -1.147   3.475   0.026  0.00  0.00    +0.291 C 
BRANCH   6   7
ATOM      7  O   UNL     1      -1.203   2.047   0.019  0.00  0.00    -0.485 OA
BRANCH   7  13
ATOM      8  C   UNL     1       1.176   2.091   0.002  0.00  0.00    +0.048 A 
ATOM      9  C   UNL     1       2.380   1.415  -0.013  0.00  0.00    +0.042 A 
ATOM     10  C   UNL     1       2.397   0.031  -0.020  0.00  0.00    +0.124 A 
ATOM     11  C   UNL     1       1.208  -0.678  -0.013  0.00  0.00    +0.042 A 
ATOM     12  C   UNL     1       0.002  -0.004   0.002  0.00  0.00    +0.048 A 
ATOM     13  C   UNL     1      -0.017   1.383   0.010  0.00  0.00    +0.121 A 
ATOM     14  F   UNL     1       3.576  -0.629  -0.034  0.00  0.00    -0.205 F 
ENDBRANCH   7  13
ENDBRANCH   6   7
ENDBRANCH   1   6
BRANCH   3  15
ATOM     15  C   UNL     1      -5.383   5.157   2.089  0.00  0.00    +0.133 C 
BRANCH  15  16
ATOM     16  S   UNL     1      -6.359   3.707   2.560  0.00  0.00    -0.080 S 
BRANCH  16  17
ATOM     17  C   UNL     1      -7.245   4.368   3.932  0.00  0.00    +0.192 A 
ATOM     18  N   UNL     1      -7.035   5.626   4.291  0.00  0.00    -0.207 NA
ATOM     19  C   UNL     1      -7.690   6.161   5.319  0.00  0.00    +0.122 A 
ATOM     20  C   UNL     1      -8.597   5.377   6.025  0.00  0.00    +0.086 A 
ATOM     21  C   UNL     1      -8.788   4.058   5.622  0.00  0.00    +0.122 A 
ATOM     22  N   UNL     1      -8.101   3.593   4.582  0.00  0.00    -0.207 NA
ATOM     23  N   UNL     1      -7.468   7.479   5.684  0.00  0.00    -0.343 N 
ATOM     24  H   UNL     1      -7.947   7.862   6.436  0.00  0.00    +0.144 HD
ATOM     25  H   UNL     1      -6.835   8.020   5.187  0.00  0.00    +0.144 HD
BRANCH  21  26
ATOM     26  N   UNL     1      -9.682   3.240   6.296  0.00  0.00    -0.343 N 
ATOM     27  H   UNL     1      -9.810   2.322   6.010  0.00  0.00    +0.144 HD
ATOM     28  H   UNL     1     -10.179   3.586   7.054  0.00  0.00    +0.144 HD
ENDBRANCH  21  26
ENDBRANCH  16  17
ENDBRANCH  15  16
ENDBRANCH   3  15
TORSDOF 7
