REMARK  Name = ZINC38658256
REMARK  15 active torsions:
REMARK  status: ('A' for Active; 'I' for Inactive)
REMARK    1  A    between atoms: C_1  and  C_2
REMARK    2  A    between atoms: C_2  and  C_4
REMARK    3  A    between atoms: C_2  and  O_31
REMARK    4  A    between atoms: C_4  and  O_6
REMARK    5  A    between atoms: O_6  and  C_7
REMARK    6  A    between atoms: C_14  and  N_30
REMARK    7  A    between atoms: C_15  and  C_28
REMARK    8  A    between atoms: C_16  and  C_18
REMARK    9  A    between atoms: C_21  and  O_24
REMARK   10  A    between atoms: O_24  and  C_25
REMARK   11  A    between atoms: C_25  and  C_26
REMARK   12  A    between atoms: O_31  and  C_32
REMARK   13  A    between atoms: C_35  and  C_38
REMARK   14  A    between atoms: C_38  and  C_39
REMARK   15  A    between atoms: C_38  and  C_40
REMARK                            x       y       z     vdW  Elec       q    Type
REMARK                         _______ _______ _______ _____ _____    ______ ____
ROOT
ATOM      1  C   UNL     1       1.552  -1.272   3.254  0.00  0.00    +0.135 A 
ATOM      2  C   UNL     1       2.777  -1.580   2.679  0.00  0.00    +0.047 A 
ATOM      3  C   UNL     1       3.750  -2.216   3.424  0.00  0.00    +0.012 A 
ATOM      4  C   UNL     1       3.509  -2.550   4.745  0.00  0.00    +0.008 A 
ATOM      5  C   UNL     1       2.287  -2.245   5.325  0.00  0.00    +0.138 A 
ATOM      6  C   UNL     1       1.310  -1.600   4.578  0.00  0.00    +0.093 A 
ATOM      7  O   UNL     1       2.032  -2.564   6.618  0.00  0.00    -0.441 OA
ATOM      8  C   UNL     1       3.049  -2.819   7.458  0.00  0.00    +0.199 C 
ATOM      9  C   UNL     1       4.284  -3.147   7.011  0.00  0.00    +0.098 C 
ATOM     10  C   UNL     1       4.582  -3.244   5.541  0.00  0.00    +0.098 C 
ENDROOT
BRANCH  10  11
ATOM     11  C   UNL     1       4.642  -4.695   5.139  0.00  0.00    -0.034 A 
ATOM     12  C   UNL     1       3.528  -5.500   5.292  0.00  0.00    +0.008 A 
ATOM     13  C   UNL     1       3.581  -6.831   4.924  0.00  0.00    +0.046 A 
ATOM     14  C   UNL     1       4.752  -7.359   4.400  0.00  0.00    +0.121 A 
ATOM     15  C   UNL     1       5.868  -6.549   4.247  0.00  0.00    +0.046 A 
ATOM     16  C   UNL     1       5.809  -5.218   4.612  0.00  0.00    +0.008 A 
BRANCH  14  17
ATOM     17  O   UNL     1       4.806  -8.668   4.038  0.00  0.00    -0.488 OA
BRANCH  17  18
ATOM     18  C   UNL     1       6.045  -9.143   3.506  0.00  0.00    +0.256 C 
BRANCH  18  19
ATOM     19  C   UNL     1       5.916 -10.605   3.164  0.00  0.00    +0.006 C 
ATOM     20  C   UNL     1       6.379 -11.054   2.023  0.00  0.00    +0.007 C 
ENDBRANCH  18  19
ENDBRANCH  17  18
ENDBRANCH  14  17
ENDBRANCH  10  11
BRANCH   8  21
ATOM     21  N   UNL     1       2.829  -2.744   8.811  0.00  0.00    -0.328 N 
ATOM     22  H   UNL     1       1.950  -2.510   9.148  0.00  0.00    +0.145 HD
ATOM     23  H   UNL     1       3.553  -2.925   9.431  0.00  0.00    +0.145 HD
ENDBRANCH   8  21
BRANCH   9  24
ATOM     24  C   UNL     1       5.327  -3.406   7.957  0.00  0.00    +0.101 C 
ATOM     25  N   UNL     1       6.155  -3.612   8.707  0.00  0.00    -0.191 NA
ENDBRANCH   9  24
BRANCH   1  26
ATOM     26  O   UNL     1       0.594  -0.646   2.522  0.00  0.00    -0.423 OA
BRANCH  26  27
ATOM     27  C   UNL     1      -0.096  -1.376   1.631  0.00  0.00    +0.353 C 
ATOM     28  O   UNL     1       0.107  -2.564   1.536  0.00  0.00    -0.246 OA
BRANCH  27  30
ATOM     29  C   UNL     1      -0.430   0.275  -0.189  0.00  0.00    +0.064 C 
ATOM     30  C   UNL     1      -1.124  -0.715   0.749  0.00  0.00    +0.279 C 
BRANCH  30  31
ATOM     31  O   UNL     1      -1.800  -1.710  -0.023  0.00  0.00    -0.478 OA
BRANCH  31  32
ATOM     32  C   UNL     1      -3.037  -1.394  -0.489  0.00  0.00    +0.122 A 
ATOM     33  C   UNL     1      -3.772  -2.332  -1.199  0.00  0.00    +0.046 A 
ATOM     34  C   UNL     1      -5.029  -2.009  -1.671  0.00  0.00    +0.007 A 
ATOM     35  C   UNL     1      -5.555  -0.752  -1.436  0.00  0.00    -0.045 A 
ATOM     36  C   UNL     1      -4.824   0.185  -0.729  0.00  0.00    +0.007 A 
ATOM     37  C   UNL     1      -3.569  -0.135  -0.250  0.00  0.00    +0.046 A 
BRANCH  35  38
ATOM     38  C   UNL     1      -6.927  -0.402  -1.952  0.00  0.00    +0.013 C 
ATOM     39  C   UNL     1      -7.836  -0.034  -0.777  0.00  0.00    +0.012 C 
ATOM     40  C   UNL     1      -6.824   0.787  -2.909  0.00  0.00    +0.012 C 
ENDBRANCH  35  38
ENDBRANCH  31  32
ENDBRANCH  30  31
ENDBRANCH  27  30
ENDBRANCH  26  27
ENDBRANCH   1  26
TORSDOF 12
