REMARK  Name = ZINC08758007
REMARK  7 active torsions:
REMARK  status: ('A' for Active; 'I' for Inactive)
REMARK    1  A    between atoms: C_1  and  C_2
REMARK    2  A    between atoms: C_5  and  S_7
REMARK    3  A    between atoms: S_7  and  C_8
REMARK    4  A    between atoms: C_8  and  C_9
REMARK    5  A    between atoms: C_22  and  C_23
REMARK    6  A    between atoms: C_22  and  C_29
REMARK    7  A    between atoms: C_22  and  N_60
REMARK                            x       y       z     vdW  Elec       q    Type
REMARK                         _______ _______ _______ _____ _____    ______ ____
ROOT
ATOM      1  C   UNL     1      -5.200   8.842  -4.151  0.00  0.00    +0.060 A 
ATOM      2  C   UNL     1      -5.223   8.565  -5.487  0.00  0.00    +0.094 A 
ATOM      3  C   UNL     1      -4.183   7.796  -6.039  0.00  0.00    +0.253 A 
ATOM      4  O   UNL     1      -4.171   7.529  -7.229  0.00  0.00    -0.268 OA
ATOM      5  N   UNL     1      -3.195   7.363  -5.227  0.00  0.00    -0.295 N 
ATOM      6  H   UNL     1      -2.465   6.835  -5.587  0.00  0.00    +0.172 HD
ATOM      7  C   UNL     1      -3.228   7.666  -3.901  0.00  0.00    +0.198 A 
ATOM      8  N   UNL     1      -4.206   8.387  -3.391  0.00  0.00    -0.220 NA
ATOM      9  N   UNL     1      -2.225   7.219  -3.083  0.00  0.00    -0.305 N 
ATOM     10  C   UNL     1      -2.377   7.753  -1.723  0.00  0.00    +0.089 C 
ATOM     11  C   UNL     1      -1.197   7.296  -0.863  0.00  0.00    -0.058 C 
ATOM     12  C   UNL     1      -0.995   5.293  -2.207  0.00  0.00    -0.058 C 
ATOM     13  C   UNL     1      -2.175   5.750  -3.067  0.00  0.00    +0.089 C 
ATOM     14  N   UNL     1      -1.171   5.818  -0.837  0.00  0.00    +0.389 N 
ATOM     15  H   UNL     1      -2.063   5.476  -0.460  0.00  0.00    -0.080 HD
ENDROOT
BRANCH   1  16
ATOM     16  C   UNL     1      -6.303   9.664  -3.534  0.00  0.00    +0.132 C 
BRANCH  16  17
ATOM     17  S   UNL     1      -7.408   8.582  -2.593  0.00  0.00    -0.091 S 
BRANCH  17  22
ATOM     18  C   UNL     1     -11.649  11.953  -0.257  0.00  0.00    +0.075 C 
ATOM     19  C   UNL     1     -10.487  11.279  -0.940  0.00  0.00    +0.100 A 
ATOM     20  N   UNL     1      -9.529  11.792  -1.684  0.00  0.00    -0.146 NA
ATOM     21  N   UNL     1      -8.617  11.083  -2.189  0.00  0.00    -0.135 NA
ATOM     22  C   UNL     1      -8.566   9.770  -2.000  0.00  0.00    +0.159 A 
ATOM     23  S   UNL     1     -10.019   9.551  -0.976  0.00  0.00    -0.044 S 
ENDBRANCH  17  22
ENDBRANCH  16  17
ENDBRANCH   1  16
BRANCH  14  24
ATOM     24  C   UNL     1      -0.070   5.347   0.031  0.00  0.00    -0.007 C 
BRANCH  24  25
ATOM     25  C   UNL     1      -0.050   3.840   0.023  0.00  0.00    -0.057 A 
ATOM     26  C   UNL     1       1.156   3.165   0.008  0.00  0.00    +0.002 A 
ATOM     27  C   UNL     1       1.175   1.783   0.000  0.00  0.00    +0.000 A 
ATOM     28  C   UNL     1      -0.013   1.076   0.008  0.00  0.00    +0.000 A 
ATOM     29  C   UNL     1      -1.219   1.751   0.017  0.00  0.00    +0.000 A 
ATOM     30  C   UNL     1      -1.238   3.133   0.030  0.00  0.00    +0.002 A 
ENDBRANCH  24  25
BRANCH  24  31
ATOM     31  C   UNL     1      -0.311   5.838   1.435  0.00  0.00    -0.057 A 
ATOM     32  C   UNL     1      -1.593   5.858   1.951  0.00  0.00    +0.002 A 
ATOM     33  C   UNL     1      -1.813   6.304   3.241  0.00  0.00    +0.000 A 
ATOM     34  C   UNL     1      -0.751   6.740   4.011  0.00  0.00    +0.000 A 
ATOM     35  C   UNL     1       0.530   6.726   3.494  0.00  0.00    +0.000 A 
ATOM     36  C   UNL     1       0.751   6.275   2.206  0.00  0.00    +0.002 A 
ENDBRANCH  24  31
ENDBRANCH  14  24
TORSDOF 6
