REMARK  Name = ZINC45276030
REMARK  8 active torsions:
REMARK  status: ('A' for Active; 'I' for Inactive)
REMARK    1  A    between atoms: C_1  and  C_2
REMARK    2  A    between atoms: C_2  and  C_3
REMARK    3  A    between atoms: C_2  and  N_4
REMARK    4  A    between atoms: C_13  and  C_15
REMARK    5  A    between atoms: C_15  and  O_17
REMARK    6  A    between atoms: O_17  and  C_18
REMARK    7  A    between atoms: C_18  and  C_19
REMARK    8  A    between atoms: N_24  and  C_25
REMARK                            x       y       z     vdW  Elec       q    Type
REMARK                         _______ _______ _______ _____ _____    ______ ____
ROOT
ATOM      1  C   UNL     1      -4.442   0.989   4.344  0.00  0.00    +0.328 C 
ENDROOT
BRANCH   1   2
ATOM      2  C   UNL     1      -3.658   1.861   5.292  0.00  0.00    +0.258 C 
ATOM      3  O   UNL     1      -2.505   2.140   5.044  0.00  0.00    -0.272 OA
ATOM      4  N   UNL     1      -4.239   2.329   6.414  0.00  0.00    -0.237 N 
ATOM      5  C   UNL     1      -3.538   3.108   7.261  0.00  0.00    +0.306 C 
ATOM      6  O   UNL     1      -2.382   3.389   7.013  0.00  0.00    -0.252 OA
ATOM      7  N   UNL     1      -4.119   3.577   8.383  0.00  0.00    -0.294 N 
ATOM      8  H   UNL     1      -5.162   2.105   6.612  0.00  0.00    +0.159 HD
ATOM      9  H   UNL     1      -5.042   3.353   8.581  0.00  0.00    +0.151 HD
BRANCH   7  10
ATOM     10  C   UNL     1      -3.357   4.424   9.303  0.00  0.00    +0.037 C 
ATOM     11  C   UNL     1      -2.137   3.655   9.813  0.00  0.00    +0.029 C 
ATOM     12  C   UNL     1      -1.341   4.540  10.774  0.00  0.00    -0.008 C 
ATOM     13  C   UNL     1      -2.227   4.932  11.958  0.00  0.00    +0.007 C 
ATOM     14  C   UNL     1      -3.447   5.702  11.449  0.00  0.00    -0.008 C 
ATOM     15  C   UNL     1      -4.243   4.817  10.487  0.00  0.00    +0.029 C 
ATOM     16  C   UNL     1      -2.986   6.963  10.717  0.00  0.00    +0.007 C 
ATOM     17  C   UNL     1      -2.099   6.571   9.533  0.00  0.00    -0.008 C 
ATOM     18  C   UNL     1      -0.879   5.801  10.043  0.00  0.00    +0.007 C 
ATOM     19  C   UNL     1      -2.895   5.686   8.572  0.00  0.00    +0.029 C 
ENDBRANCH   7  10
ENDBRANCH   1   2
BRANCH   1  20
ATOM     20  O   UNL     1      -3.615   0.623   3.239  0.00  0.00    -0.451 OA
BRANCH  20  21
ATOM     21  C   UNL     1      -4.169  -0.162   2.293  0.00  0.00    +0.360 C 
ATOM     22  O   UNL     1      -5.323  -0.525   2.405  0.00  0.00    -0.243 OA
BRANCH  21  32
ATOM     23  N   UNL     1      -1.372  -0.511   0.012  0.00  0.00    -0.226 N 
ATOM     24  C   UNL     1      -1.774  -1.288  -1.014  0.00  0.00    +0.275 A 
ATOM     25  O   UNL     1      -1.012  -1.560  -1.924  0.00  0.00    -0.266 OA
ATOM     26  C   UNL     1      -3.151  -1.800  -1.009  0.00  0.00    +0.050 A 
ATOM     27  C   UNL     1      -3.662  -2.608  -2.020  0.00  0.00    +0.014 A 
ATOM     28  C   UNL     1      -4.966  -3.046  -1.941  0.00  0.00    +0.001 A 
ATOM     29  C   UNL     1      -5.771  -2.690  -0.866  0.00  0.00    +0.001 A 
ATOM     30  C   UNL     1      -5.284  -1.890   0.146  0.00  0.00    +0.011 A 
ATOM     31  C   UNL     1      -3.970  -1.437   0.085  0.00  0.00    +0.021 A 
ATOM     32  C   UNL     1      -3.374  -0.580   1.123  0.00  0.00    +0.176 A 
ATOM     33  N   UNL     1      -2.126  -0.197   0.997  0.00  0.00    -0.161 NA
BRANCH  23  35
ATOM     34  C   UNL     1      -0.019   1.526   0.010  0.00  0.00    +0.032 C 
ATOM     35  C   UNL     1       0.002  -0.004   0.002  0.00  0.00    +0.105 C 
ATOM     36  C   UNL     1       0.742  -0.511   1.242  0.00  0.00    +0.032 C 
ENDBRANCH  23  35
ENDBRANCH  21  32
ENDBRANCH  20  21
ENDBRANCH   1  20
TORSDOF 6
