REMARK  Name = ZINC25581809
REMARK  7 active torsions:
REMARK  status: ('A' for Active; 'I' for Inactive)
REMARK    1  A    between atoms: C_3  and  N_8
REMARK    2  A    between atoms: C_12  and  S_13
REMARK    3  A    between atoms: S_13  and  C_14
REMARK    4  A    between atoms: C_14  and  C_15
REMARK    5  A    between atoms: N_17  and  C_18
REMARK    6  A    between atoms: C_20  and  C_29
REMARK    7  A    between atoms: C_23  and  N_24
REMARK                            x       y       z     vdW  Elec       q    Type
REMARK                         _______ _______ _______ _____ _____    ______ ____
ROOT
ATOM      1  C   UNL     1       4.926  -3.930  -3.624  0.00  0.00    +0.228 C 
ATOM      2  O   UNL     1       5.634  -2.946  -3.663  0.00  0.00    -0.275 OA
ATOM      3  N   UNL     1       4.992  -4.848  -4.608  0.00  0.00    -0.283 N 
ATOM      4  H   UNL     1       4.418  -5.784  -4.528  0.00  0.00    +0.155 HD
ENDROOT
BRANCH   3   5
ATOM      5  C   UNL     1       5.793  -4.612  -5.734  0.00  0.00    +0.055 A 
ATOM      6  C   UNL     1       6.093  -3.317  -6.110  0.00  0.00    +0.038 A 
ATOM      7  C   UNL     1       6.893  -3.085  -7.233  0.00  0.00    +0.038 A 
ATOM      8  C   UNL     1       7.385  -4.164  -7.972  0.00  0.00    +0.015 A 
ATOM      9  C   UNL     1       7.083  -5.454  -7.595  0.00  0.00    +0.026 A 
ATOM     10  C   UNL     1       6.293  -5.687  -6.475  0.00  0.00    +0.051 A 
BRANCH  10  11
ATOM     11  N   UNL     1       5.995  -6.992  -6.094  0.00  0.00    -0.328 N 
ATOM     12  C   UNL     1       6.759  -7.972  -6.908  0.00  0.00    +0.105 C 
ATOM     13  C   UNL     1       6.726  -9.255  -6.040  0.00  0.00    +0.020 C 
ATOM     14  C   UNL     1       6.855  -8.704  -4.602  0.00  0.00    +0.020 C 
ATOM     15  C   UNL     1       6.391  -7.238  -4.690  0.00  0.00    +0.105 C 
ENDBRANCH  10  11
BRANCH   7  16
ATOM     16  C   UNL     1       7.215  -1.703  -7.637  0.00  0.00    +0.242 C 
ATOM     17  O   UNL     1       6.786  -0.765  -6.994  0.00  0.00    -0.270 OA
ATOM     18  N   UNL     1       7.986  -1.481  -8.720  0.00  0.00    -0.325 N 
ATOM     19  H   UNL     1       8.227  -0.451  -9.022  0.00  0.00    +0.145 HD
ATOM     20  H   UNL     1       8.374  -2.330  -9.303  0.00  0.00    +0.145 HD
ENDBRANCH   7  16
ENDBRANCH   3   5
BRANCH   1  21
ATOM     21  C   UNL     1       3.971  -4.126  -2.475  0.00  0.00    +0.173 C 
BRANCH  21  22
ATOM     22  S   UNL     1       4.115  -2.734  -1.327  0.00  0.00    -0.076 S 
BRANCH  22  27
ATOM     23  N   UNL     1       2.595  -2.517   1.015  0.00  0.00    -0.277 N 
ATOM     24  C   UNL     1       1.628  -3.264   1.635  0.00  0.00    +0.230 A 
ATOM     25  N   UNL     1       1.423  -4.320   0.900  0.00  0.00    -0.137 NA
ATOM     26  N   UNL     1       2.188  -4.295  -0.133  0.00  0.00    -0.122 NA
ATOM     27  C   UNL     1       2.925  -3.209  -0.118  0.00  0.00    +0.196 A 
BRANCH  23  30
ATOM     28  C   UNL     1       5.033   0.079   1.940  0.00  0.00    +0.003 A 
ATOM     29  C   UNL     1       4.507  -1.125   1.513  0.00  0.00    +0.026 A 
ATOM     30  C   UNL     1       3.131  -1.296   1.449  0.00  0.00    +0.051 A 
ATOM     31  C   UNL     1       2.287  -0.257   1.814  0.00  0.00    +0.046 A 
ATOM     32  C   UNL     1       2.818   0.946   2.241  0.00  0.00    +0.043 A 
ATOM     33  C   UNL     1       4.190   1.113   2.304  0.00  0.00    +0.020 A 
ATOM     34 CL   UNL     1       1.763   2.249   2.692  0.00  0.00    -0.083 Cl
ENDBRANCH  23  30
ENDBRANCH  22  27
ENDBRANCH  21  22
ENDBRANCH   1  21
TORSDOF 7
