REMARK  Name = ZINC08918227
REMARK  12 active torsions:
REMARK  status: ('A' for Active; 'I' for Inactive)
REMARK    1  A    between atoms: C_1  and  C_2
REMARK    2  A    between atoms: C_2  and  C_4
REMARK    3  A    between atoms: C_2  and  C_5
REMARK    4  A    between atoms: C_5  and  C_7
REMARK    5  A    between atoms: C_5  and  N_18
REMARK    6  A    between atoms: N_9  and  C_10
REMARK    7  A    between atoms: C_10  and  C_11
REMARK    8  A    between atoms: C_19  and  C_21
REMARK    9  A    between atoms: C_27  and  C_29
REMARK   10  A    between atoms: C_29  and  C_31
REMARK   11  A    between atoms: C_29  and  N_70
REMARK   12  A    between atoms: C_31  and  C_32
REMARK                            x       y       z     vdW  Elec       q    Type
REMARK                         _______ _______ _______ _____ _____    ______ ____
ROOT
ATOM      1  N   UNL     1       0.721   0.276   0.158  0.00  0.00    -0.304 N 
ATOM      2  C   UNL     1       1.785  -0.067  -0.594  0.00  0.00    +0.217 C 
ATOM      3  O   UNL     1       2.232   0.716  -1.405  0.00  0.00    -0.275 OA
ATOM      4  H   UNL     1       0.363  -0.350   0.807  0.00  0.00    +0.149 HD
ENDROOT
BRANCH   2   5
ATOM      5  C   UNL     1       2.420  -1.423  -0.427  0.00  0.00    +0.078 C 
ATOM      6  C   UNL     1       2.916  -1.581   1.012  0.00  0.00    +0.032 C 
ATOM      7  C   UNL     1       3.529  -2.974   1.187  0.00  0.00    +0.108 C 
ATOM      8  N   UNL     1       4.569  -3.164   0.166  0.00  0.00    -0.303 N 
ATOM      9  C   UNL     1       4.221  -2.949  -1.245  0.00  0.00    +0.108 C 
ATOM     10  C   UNL     1       3.600  -1.557  -1.393  0.00  0.00    +0.032 C 
ATOM     11  C   UNL     1       5.817  -3.530   0.517  0.00  0.00    +0.201 C 
ATOM     12  O   UNL     1       6.666  -3.685  -0.335  0.00  0.00    -0.277 OA
BRANCH  11  13
ATOM     13  C   UNL     1       6.159  -3.748   1.969  0.00  0.00    +0.017 C 
BRANCH  13  16
ATOM     14  H   UNL     1       8.152  -4.125   1.617  0.00  0.00    -0.089 HD
ATOM     15  H   UNL     1       7.582  -4.787   3.032  0.00  0.00    -0.089 HD
ATOM     16  N   UNL     1       7.361  -4.594   2.057  0.00  0.00    +0.386 N 
ATOM     17  H   UNL     1       7.186  -5.482   1.571  0.00  0.00    -0.089 HD
ENDBRANCH  13  16
BRANCH  13  18
ATOM     18  C   UNL     1       6.407  -2.396   2.642  0.00  0.00    +0.028 C 
BRANCH  18  19
ATOM     19  C   UNL     1       6.627  -2.603   4.119  0.00  0.00    -0.048 A 
ATOM     20  C   UNL     1       5.553  -2.573   4.989  0.00  0.00    +0.003 A 
ATOM     21  C   UNL     1       5.755  -2.767   6.342  0.00  0.00    +0.000 A 
ATOM     22  C   UNL     1       7.031  -2.982   6.827  0.00  0.00    +0.000 A 
ATOM     23  C   UNL     1       8.106  -3.007   5.958  0.00  0.00    +0.000 A 
ATOM     24  C   UNL     1       7.904  -2.818   4.604  0.00  0.00    +0.003 A 
ENDBRANCH  18  19
ENDBRANCH  13  18
ENDBRANCH  11  13
ENDBRANCH   2   5
BRANCH   1  25
ATOM     25  C   UNL     1       0.104   1.595  -0.004  0.00  0.00    +0.161 C 
BRANCH  25  26
ATOM     26  C   UNL     1      -0.601   1.980   1.272  0.00  0.00    +0.234 C 
ATOM     27  O   UNL     1      -0.876   1.131   2.092  0.00  0.00    -0.274 OA
ATOM     28  N   UNL     1      -0.926   3.268   1.500  0.00  0.00    -0.310 N 
ATOM     29  H   UNL     1      -0.638   3.958   0.881  0.00  0.00    +0.149 HD
BRANCH  28  30
ATOM     30  C   UNL     1      -1.713   3.627   2.682  0.00  0.00    +0.142 C 
BRANCH  30  31
ATOM     31  C   UNL     1      -1.937   5.117   2.703  0.00  0.00    +0.005 A 
ATOM     32  C   UNL     1      -1.158   5.922   3.512  0.00  0.00    +0.008 A 
ATOM     33  C   UNL     1      -1.360   7.290   3.527  0.00  0.00    +0.000 A 
ATOM     34  C   UNL     1      -2.349   7.852   2.741  0.00  0.00    +0.003 A 
ATOM     35  C   UNL     1      -3.133   7.048   1.936  0.00  0.00    +0.038 A 
ATOM     36  C   UNL     1      -2.928   5.679   1.916  0.00  0.00    +0.128 A 
ATOM     37  F   UNL     1      -3.694   4.892   1.129  0.00  0.00    -0.205 F 
ENDBRANCH  30  31
ENDBRANCH  28  30
ENDBRANCH  25  26
BRANCH  25  39
ATOM     38  C   UNL     1      -1.924   0.434  -0.889  0.00  0.00    +0.009 C 
ATOM     39  C   UNL     1      -0.907   1.548  -1.151  0.00  0.00    +0.012 C 
ATOM     40  C   UNL     1      -0.175   1.270  -2.465  0.00  0.00    +0.009 C 
ENDBRANCH  25  39
ENDBRANCH   1  25
TORSDOF 10
