REMARK  Name = ZINC34677815
REMARK  12 active torsions:
REMARK  status: ('A' for Active; 'I' for Inactive)
REMARK    1  A    between atoms: C_1  and  C_2
REMARK    2  A    between atoms: C_2  and  C_3
REMARK    3  A    between atoms: C_2  and  O_4
REMARK    4  A    between atoms: O_4  and  C_5
REMARK    5  A    between atoms: C_5  and  C_6
REMARK    6  A    between atoms: C_6  and  C_8
REMARK    7  A    between atoms: C_6  and  O_34
REMARK    8  A    between atoms: C_8  and  N_9
REMARK    9  A    between atoms: N_12  and  C_15
REMARK   10  A    between atoms: C_15  and  C_16
REMARK   11  A    between atoms: C_18  and  C_21
REMARK   12  A    between atoms: N_26  and  C_29
REMARK                            x       y       z     vdW  Elec       q    Type
REMARK                         _______ _______ _______ _____ _____    ______ ____
ROOT
ATOM      1  C   UNL     1       0.785  -3.012  10.802  0.00  0.00    +0.179 A 
ATOM      2  N   UNL     1       0.308  -4.217  10.898  0.00  0.00    -0.210 NA
ATOM      3  C   UNL     1      -0.501  -4.275  11.990  0.00  0.00    +0.164 A 
ATOM      4  C   UNL     1      -0.494  -3.039  12.559  0.00  0.00    +0.230 A 
ATOM      5  O   UNL     1       0.313  -2.269  11.812  0.00  0.00    -0.449 OA
ENDROOT
BRANCH   3   6
ATOM      6  C   UNL     1      -1.246  -5.455  12.467  0.00  0.00    +0.268 C 
ATOM      7  O   UNL     1      -2.033  -5.345  13.388  0.00  0.00    -0.268 OA
ATOM      8  N   UNL     1      -1.054  -6.654  11.883  0.00  0.00    -0.300 N 
ATOM      9  C   UNL     1      -0.173  -6.793  10.713  0.00  0.00    +0.089 C 
ATOM     10  C   UNL     1       0.810  -7.939  10.979  0.00  0.00    -0.059 C 
ATOM     11  N   UNL     1       0.062  -9.154  11.323  0.00  0.00    +0.384 N 
ATOM     12  C   UNL     1      -0.663  -8.956  12.584  0.00  0.00    -0.059 C 
ATOM     13  C   UNL     1      -1.715  -7.862  12.401  0.00  0.00    +0.089 C 
ATOM     14  H   UNL     1      -0.597  -9.362  10.587  0.00  0.00    -0.081 HD
BRANCH  11  15
ATOM     15  C   UNL     1       0.997 -10.277  11.470  0.00  0.00    -0.068 C 
ATOM     16  C   UNL     1       1.708 -10.552  10.129  0.00  0.00    -0.015 C 
ATOM     17  C   UNL     1       1.835 -12.095  10.075  0.00  0.00    -0.002 C 
ATOM     18  C   UNL     1       0.498 -12.570  10.696  0.00  0.00    -0.002 C 
ATOM     19  C   UNL     1       0.228 -11.560  11.831  0.00  0.00    -0.015 C 
ENDBRANCH  11  15
ENDBRANCH   3   6
BRANCH   1  20
ATOM     20  C   UNL     1       1.725  -2.529   9.728  0.00  0.00    +0.019 C 
BRANCH  20  24
ATOM     21  N   UNL     1       0.256  -1.926   5.829  0.00  0.00    -0.303 NA
ATOM     22  C   UNL     1       1.052  -0.851   6.438  0.00  0.00    +0.066 C 
ATOM     23  C   UNL     1       1.862  -1.420   7.605  0.00  0.00    -0.063 C 
ATOM     24  N   UNL     1       0.948  -2.000   8.599  0.00  0.00    +0.387 N 
ATOM     25  C   UNL     1       0.177  -3.087   7.982  0.00  0.00    -0.063 C 
ATOM     26  C   UNL     1      -0.646  -2.532   6.818  0.00  0.00    +0.066 C 
ATOM     27  H   UNL     1       0.317  -1.286   8.931  0.00  0.00    -0.081 HD
BRANCH  21  28
ATOM     28  C   UNL     1      -0.494  -1.431   4.667  0.00  0.00    +0.117 C 
BRANCH  28  29
ATOM     29  C   UNL     1      -0.899  -2.611   3.781  0.00  0.00    +0.154 C 
BRANCH  29  30
ATOM     30  O   UNL     1       0.274  -3.260   3.285  0.00  0.00    -0.388 OA
ATOM     31  H   UNL     1       0.845  -2.688   2.755  0.00  0.00    +0.210 HD
ENDBRANCH  29  30
BRANCH  29  32
ATOM     32  C   UNL     1      -1.736  -2.102   2.605  0.00  0.00    +0.192 C 
BRANCH  32  33
ATOM     33  O   UNL     1      -2.212  -3.214   1.843  0.00  0.00    -0.375 OA
BRANCH  33  35
ATOM     34  C   UNL     1      -2.108  -2.661  -0.507  0.00  0.00    +0.037 C 
ATOM     35  C   UNL     1      -3.009  -2.846   0.716  0.00  0.00    +0.112 C 
ATOM     36  C   UNL     1      -4.031  -3.949   0.433  0.00  0.00    +0.037 C 
ENDBRANCH  33  35
ENDBRANCH  32  33
ENDBRANCH  29  32
ENDBRANCH  28  29
ENDBRANCH  21  28
ENDBRANCH  20  24
ENDBRANCH   1  20
TORSDOF 10
