REMARK  Name = ZINC13639976
REMARK  3 active torsions:
REMARK  status: ('A' for Active; 'I' for Inactive)
REMARK    1  A    between atoms: C_3  and  C_9
REMARK    2  A    between atoms: C_4  and  O_8
REMARK    3  A    between atoms: C_6  and  O_7
REMARK                            x       y       z     vdW  Elec       q    Type
REMARK                         _______ _______ _______ _____ _____    ______ ____
ROOT
ATOM      1  C   UNL     1       2.449   3.949   0.001  0.00  0.00    +0.108 C 
ATOM      2  C   UNL     1       2.873   4.220  -1.444  0.00  0.00    +0.029 C 
ATOM      3  C   UNL     1       3.265   2.859  -2.086  0.00  0.00    +0.033 C 
ATOM      4  C   UNL     1       4.687   2.639  -1.609  0.00  0.00    -0.030 C 
ATOM      5  C   UNL     1       5.233   3.776  -1.255  0.00  0.00    -0.023 C 
ATOM      6  C   UNL     1       4.253   4.912  -1.436  0.00  0.00    +0.050 C 
ATOM      7  C   UNL     1       4.367   5.896  -0.310  0.00  0.00    +0.000 A 
ATOM      8  C   UNL     1       5.487   6.719  -0.273  0.00  0.00    +0.047 A 
ATOM      9  C   UNL     1       5.650   7.641   0.741  0.00  0.00    +0.022 A 
ATOM     10  C   UNL     1       4.694   7.754   1.734  0.00  0.00    +0.023 A 
ATOM     11  C   UNL     1       3.578   6.944   1.706  0.00  0.00    +0.062 A 
ATOM     12  C   UNL     1       3.409   6.011   0.681  0.00  0.00    +0.051 A 
ATOM     13  N   UNL     1       2.260   5.220   0.700  0.00  0.00    -0.335 N 
ATOM     14 CL   UNL     1       2.378   7.085   2.952  0.00  0.00    -0.082 Cl
ATOM     15 CL   UNL     1       6.693   6.585  -1.515  0.00  0.00    -0.083 Cl
ATOM     16  H   UNL     1       1.469   5.724   0.328  0.00  0.00    +0.147 HD
ENDROOT
BRANCH   1  19
ATOM     17  C   UNL     1      -0.813   2.419  -1.125  0.00  0.00    +0.046 A 
ATOM     18  C   UNL     1       0.373   3.127  -1.129  0.00  0.00    +0.012 A 
ATOM     19  C   UNL     1       1.155   3.175   0.008  0.00  0.00    +0.015 A 
ATOM     20  C   UNL     1       0.751   2.511   1.158  0.00  0.00    +0.125 A 
ATOM     21  C   UNL     1      -0.438   1.800   1.165  0.00  0.00    +0.091 A 
ATOM     22  C   UNL     1      -1.219   1.748   0.020  0.00  0.00    +0.120 A 
BRANCH  22  23
ATOM     23  O   UNL     1      -2.382   1.047   0.021  0.00  0.00    -0.507 OA
ATOM     24  H   UNL     1      -3.154   1.565   0.286  0.00  0.00    +0.292 HD
ENDBRANCH  22  23
BRANCH  20  25
ATOM     25  O   UNL     1       1.522   2.558   2.277  0.00  0.00    -0.506 OA
ATOM     26  H   UNL     1       2.123   1.806   2.373  0.00  0.00    +0.292 HD
ENDBRANCH  20  25
ENDBRANCH   1  19
TORSDOF 3
