REMARK  Name = ZINC12661772
REMARK  7 active torsions:
REMARK  status: ('A' for Active; 'I' for Inactive)
REMARK    1  A    between atoms: C_1  and  C_2
REMARK    2  A    between atoms: C_19  and  C_21
REMARK    3  A    between atoms: C_21  and  N_61
REMARK    4  A    between atoms: C_22  and  C_23
REMARK    5  A    between atoms: C_22  and  N_61
REMARK    6  A    between atoms: C_23  and  C_24
REMARK    7  A    between atoms: C_31  and  O_34
REMARK                            x       y       z     vdW  Elec       q    Type
REMARK                         _______ _______ _______ _____ _____    ______ ____
ROOT
ATOM      1  C   UNL     1       1.379   3.503   0.008  0.00  0.00    -0.068 C 
ENDROOT
BRANCH   1  17
ATOM      2  C   UNL     1       2.320   6.720   3.102  0.00  0.00    +0.012 C 
ATOM      3  C   UNL     1       2.674   7.653   1.942  0.00  0.00    -0.022 C 
ATOM      4  C   UNL     1       2.697   9.099   2.434  0.00  0.00    +0.007 C 
ATOM      5  C   UNL     1       1.345   9.454   3.056  0.00  0.00    +0.005 C 
ATOM      6  C   UNL     1       0.250   9.373   1.988  0.00  0.00    +0.030 C 
ATOM      7  C   UNL     1       0.304   8.005   1.340  0.00  0.00    -0.073 C 
ATOM      8  C   UNL     1      -0.772   7.266   1.236  0.00  0.00    +0.008 C 
ATOM      9  C   UNL     1       1.636   7.519   0.818  0.00  0.00    +0.021 C 
ATOM     10  C   UNL     1       1.544   6.065   0.423  0.00  0.00    +0.016 C 
ATOM     11  C   UNL     1       2.877   5.547  -0.123  0.00  0.00    +0.042 C 
ATOM     12  C   UNL     1       4.030   5.847   0.853  0.00  0.00    +0.181 C 
ATOM     13  C   UNL     1       4.036   7.266   1.369  0.00  0.00    +0.052 C 
ATOM     14  O   UNL     1       3.841   4.870   1.916  0.00  0.00    -0.461 OA
ATOM     15  C   UNL     1       3.498   3.703   1.326  0.00  0.00    +0.309 C 
ATOM     16  O   UNL     1       3.693   2.602   1.785  0.00  0.00    -0.251 OA
ATOM     17  C   UNL     1       2.828   3.994  -0.004  0.00  0.00    +0.087 C 
ENDBRANCH   1  17
BRANCH   1  18
ATOM     18  N   UNL     1       1.368   2.028  -0.000  0.00  0.00    +0.380 N 
ATOM     19  H   UNL     1       1.860   1.681   0.832  0.00  0.00    -0.086 HD
ATOM     20  H   UNL     1       1.844   1.690  -0.845  0.00  0.00    -0.086 HD
BRANCH  18  21
ATOM     21  C   UNL     1      -0.019   1.526   0.010  0.00  0.00    -0.078 C 
BRANCH  21  22
ATOM     22  C   UNL     1       0.002  -0.004   0.002  0.00  0.00    +0.018 C 
BRANCH  22  23
ATOM     23  C   UNL     1      -1.412  -0.526   0.013  0.00  0.00    -0.024 A 
ATOM     24  C   UNL     1      -2.116  -0.901   1.092  0.00  0.00    +0.087 A 
ATOM     25  N   UNL     1      -3.364  -1.316   0.714  0.00  0.00    -0.360 N 
ATOM     26  H   UNL     1      -4.053  -1.632   1.319  0.00  0.00    +0.165 HD
ATOM     27  C   UNL     1      -3.493  -1.224  -0.656  0.00  0.00    +0.047 A 
ATOM     28  C   UNL     1      -2.276  -0.725  -1.153  0.00  0.00    +0.006 A 
ATOM     29  C   UNL     1      -2.112  -0.525  -2.526  0.00  0.00    +0.055 A 
ATOM     30  C   UNL     1      -3.151  -0.820  -3.386  0.00  0.00    +0.118 A 
ATOM     31  C   UNL     1      -4.354  -1.314  -2.890  0.00  0.00    +0.047 A 
ATOM     32  C   UNL     1      -4.527  -1.514  -1.539  0.00  0.00    +0.030 A 
BRANCH  30  33
ATOM     33  O   UNL     1      -2.998  -0.627  -4.724  0.00  0.00    -0.507 OA
ATOM     34  H   UNL     1      -2.650  -1.396  -5.195  0.00  0.00    +0.292 HD
ENDBRANCH  30  33
ENDBRANCH  22  23
ENDBRANCH  21  22
ENDBRANCH  18  21
ENDBRANCH   1  18
TORSDOF 6
