REMARK  Name = ZINC09449261
REMARK  11 active torsions:
REMARK  status: ('A' for Active; 'I' for Inactive)
REMARK    1  A    between atoms: C_1  and  C_2
REMARK    2  A    between atoms: C_3  and  C_32
REMARK    3  A    between atoms: C_11  and  O_14
REMARK    4  A    between atoms: C_12  and  C_13
REMARK    5  A    between atoms: O_14  and  C_15
REMARK    6  A    between atoms: C_15  and  C_17
REMARK    7  A    between atoms: C_15  and  C_18
REMARK    8  A    between atoms: N_20  and  C_21
REMARK    9  A    between atoms: C_21  and  C_22
REMARK   10  A    between atoms: C_25  and  S_28
REMARK   11  A    between atoms: S_28  and  N_31
REMARK                            x       y       z     vdW  Elec       q    Type
REMARK                         _______ _______ _______ _____ _____    ______ ____
ROOT
ATOM      1  C   UNL     1      -5.855   3.901   5.878  0.00  0.00    +0.255 C 
ATOM      2  C   UNL     1      -6.026   5.338   5.383  0.00  0.00    +0.062 C 
ENDROOT
BRANCH   1   3
ATOM      3  C   UNL     1      -6.465   3.765   7.249  0.00  0.00    +0.254 C 
ATOM      4  O   UNL     1      -5.761   3.517   8.205  0.00  0.00    -0.272 OA
ATOM      5  N   UNL     1      -7.794   3.919   7.413  0.00  0.00    -0.308 N 
ATOM      6  H   UNL     1      -8.358   4.118   6.649  0.00  0.00    +0.149 HD
BRANCH   5   7
ATOM      7  C   UNL     1      -8.388   3.788   8.746  0.00  0.00    +0.139 C 
BRANCH   7   8
ATOM      8  C   UNL     1      -9.876   4.004   8.657  0.00  0.00    -0.030 A 
ATOM      9  C   UNL     1     -10.400   5.274   8.808  0.00  0.00    +0.007 A 
ATOM     10  C   UNL     1     -11.766   5.473   8.722  0.00  0.00    +0.029 A 
ATOM     11  C   UNL     1     -12.607   4.401   8.493  0.00  0.00    +0.105 A 
ATOM     12  C   UNL     1     -12.084   3.130   8.347  0.00  0.00    +0.029 A 
ATOM     13  C   UNL     1     -10.718   2.931   8.429  0.00  0.00    +0.007 A 
BRANCH  11  14
ATOM     14  S   UNL     1     -14.348   4.654   8.388  0.00  0.00    +0.056 S 
ATOM     15  O   UNL     1     -14.539   6.012   8.015  0.00  0.00    -0.153 OA
ATOM     16  O   UNL     1     -14.870   3.574   7.625  0.00  0.00    -0.153 OA
BRANCH  14  17
ATOM     17  N   UNL     1     -14.960   4.492   9.918  0.00  0.00    -0.204 NA
ATOM     18  H   UNL     1     -15.753   4.987  10.178  0.00  0.00    +0.144 HD
ATOM     19  H   UNL     1     -14.526   3.902  10.554  0.00  0.00    +0.144 HD
ENDBRANCH  14  17
ENDBRANCH  11  14
ENDBRANCH   7   8
ENDBRANCH   5   7
ENDBRANCH   1   3
BRANCH   1  20
ATOM     20  O   UNL     1      -4.463   3.582   5.942  0.00  0.00    -0.480 OA
BRANCH  20  31
ATOM     21  C   UNL     1      -2.805   1.780  -0.082  0.00  0.00    +0.045 C 
ATOM     22  C   UNL     1      -2.056   1.798   1.226  0.00  0.00    -0.030 A 
ATOM     23  C   UNL     1      -0.766   1.377   1.297  0.00  0.00    +0.037 A 
ATOM     24  C   UNL     1      -0.086   1.409   2.531  0.00  0.00    +0.340 A 
ATOM     25  O   UNL     1       1.072   1.033   2.580  0.00  0.00    -0.245 OA
ATOM     26  O   UNL     1      -0.680   1.843   3.654  0.00  0.00    -0.422 OA
ATOM     27  C   UNL     1      -1.961   2.271   3.652  0.00  0.00    +0.146 A 
ATOM     28  C   UNL     1      -2.700   2.266   2.455  0.00  0.00    +0.021 A 
ATOM     29  C   UNL     1      -4.029   2.707   2.449  0.00  0.00    +0.015 A 
ATOM     30  C   UNL     1      -4.604   3.141   3.609  0.00  0.00    +0.047 A 
ATOM     31  C   UNL     1      -3.877   3.148   4.798  0.00  0.00    +0.128 A 
ATOM     32  C   UNL     1      -2.561   2.715   4.821  0.00  0.00    +0.034 A 
ATOM     33  C   UNL     1      -1.784   2.727   6.112  0.00  0.00    +0.051 C 
ATOM     34  C   UNL     1      -0.063   0.883   0.059  0.00  0.00    +0.051 C 
ENDBRANCH  20  31
ENDBRANCH   1  20
TORSDOF 7
