REMARK  Name = ZINC36637696
REMARK  9 active torsions:
REMARK  status: ('A' for Active; 'I' for Inactive)
REMARK    1  A    between atoms: C_1  and  C_2
REMARK    2  A    between atoms: N_7  and  S_9
REMARK    3  A    between atoms: S_9  and  C_12
REMARK    4  A    between atoms: C_15  and  C_18
REMARK    5  A    between atoms: N_20  and  C_21
REMARK    6  A    between atoms: C_21  and  C_22
REMARK    7  A    between atoms: C_22  and  N_23
REMARK    8  A    between atoms: N_23  and  C_24
REMARK    9  A    between atoms: N_23  and  C_25
REMARK                            x       y       z     vdW  Elec       q    Type
REMARK                         _______ _______ _______ _____ _____    ______ ____
ROOT
ATOM      1  C   UNL     1       3.687  -3.972  -3.805  0.00  0.00    +0.252 C 
ATOM      2  O   UNL     1       3.271  -5.061  -4.148  0.00  0.00    -0.270 OA
ATOM      3  N   UNL     1       4.561  -3.308  -4.588  0.00  0.00    -0.248 N 
ATOM      4  C   UNL     1       4.891  -3.808  -5.837  0.00  0.00    +0.168 A 
ATOM      5  N   UNL     1       5.716  -3.314  -6.729  0.00  0.00    -0.221 NA
ATOM      6  C   UNL     1       5.944  -3.915  -7.918  0.00  0.00    +0.116 A 
ATOM      7  C   UNL     1       6.802  -3.490  -8.961  0.00  0.00    +0.152 A 
ATOM      8  C   UNL     1       6.920  -4.223 -10.115  0.00  0.00    +0.079 A 
ATOM      9  C   UNL     1       6.206  -5.401 -10.301  0.00  0.00    +0.127 A 
ATOM     10  C   UNL     1       5.359  -5.845  -9.301  0.00  0.00    +0.055 A 
ATOM     11  C   UNL     1       5.236  -5.116  -8.143  0.00  0.00    +0.046 A 
ATOM     12  S   UNL     1       4.308  -5.295  -6.639  0.00  0.00    -0.052 S 
ATOM     13  F   UNL     1       6.338  -6.105 -11.447  0.00  0.00    -0.205 F 
ATOM     14  F   UNL     1       7.513  -2.350  -8.819  0.00  0.00    -0.203 F 
ENDROOT
BRANCH   1  18
ATOM     15  C   UNL     1       2.388  -2.257  -0.143  0.00  0.00    +0.106 A 
ATOM     16  C   UNL     1       3.731  -2.236  -0.476  0.00  0.00    +0.029 A 
ATOM     17  C   UNL     1       4.160  -2.791  -1.663  0.00  0.00    +0.015 A 
ATOM     18  C   UNL     1       3.235  -3.375  -2.531  0.00  0.00    +0.037 A 
ATOM     19  C   UNL     1       1.882  -3.393  -2.189  0.00  0.00    +0.015 A 
ATOM     20  C   UNL     1       1.467  -2.839  -0.996  0.00  0.00    +0.029 A 
BRANCH  15  21
ATOM     21  S   UNL     1       1.849  -1.545   1.376  0.00  0.00    +0.061 S 
ATOM     22  O   UNL     1       0.479  -1.213   1.205  0.00  0.00    -0.153 OA
ATOM     23  O   UNL     1       2.827  -0.581   1.742  0.00  0.00    -0.153 OA
BRANCH  21  29
ATOM     24  C   UNL     1       0.008  -5.972   3.042  0.00  0.00    +0.009 C 
ATOM     25  C   UNL     1       1.176  -5.062   2.657  0.00  0.00    +0.002 C 
ATOM     26  C   UNL     1       2.354  -5.315   3.601  0.00  0.00    +0.006 C 
ATOM     27  C   UNL     1       3.534  -4.428   3.196  0.00  0.00    +0.017 C 
ATOM     28  C   UNL     1       3.126  -2.957   3.314  0.00  0.00    +0.109 C 
ATOM     29  N   UNL     1       1.908  -2.738   2.523  0.00  0.00    -0.176 NA
ATOM     30  C   UNL     1       0.742  -3.597   2.769  0.00  0.00    +0.112 C 
ENDBRANCH  21  29
ENDBRANCH  15  21
ENDBRANCH   1  18
BRANCH   3  31
ATOM     31  C   UNL     1       5.162  -2.057  -4.117  0.00  0.00    +0.097 C 
BRANCH  31  32
ATOM     32  C   UNL     1       6.554  -2.342  -3.550  0.00  0.00    -0.060 C 
BRANCH  32  33
ATOM     33  N   UNL     1       7.102  -1.113  -2.960  0.00  0.00    +0.377 N 
ATOM     34  C   UNL     1       8.385  -1.413  -2.310  0.00  0.00    -0.097 C 
ATOM     35  C   UNL     1       7.310  -0.113  -4.015  0.00  0.00    -0.097 C 
ATOM     36  H   UNL     1       6.455  -0.751  -2.276  0.00  0.00    -0.083 HD
ENDBRANCH  32  33
ENDBRANCH  31  32
ENDBRANCH   3  31
TORSDOF 6
