REMARK  Name = ZINC32655297
REMARK  9 active torsions:
REMARK  status: ('A' for Active; 'I' for Inactive)
REMARK    1  A    between atoms: C_1  and  C_2
REMARK    2  A    between atoms: C_3  and  C_31
REMARK    3  A    between atoms: C_4  and  C_24
REMARK    4  A    between atoms: C_11  and  S_15
REMARK    5  A    between atoms: S_15  and  C_16
REMARK    6  A    between atoms: C_16  and  C_17
REMARK    7  A    between atoms: C_27  and  O_30
REMARK    8  A    between atoms: C_31  and  O_33
REMARK    9  A    between atoms: O_33  and  C_34
REMARK                            x       y       z     vdW  Elec       q    Type
REMARK                         _______ _______ _______ _____ _____    ______ ____
ROOT
ATOM      1  C   UNL     1       2.090  -1.748   3.087  0.00  0.00    +0.061 C 
ATOM      2  C   UNL     1       1.385  -2.609   2.071  0.00  0.00    +0.017 C 
ATOM      3  C   UNL     1       0.669  -2.025   1.097  0.00  0.00    +0.065 C 
ATOM      4  C   UNL     1      -0.069  -2.825   0.062  0.00  0.00    +0.096 C 
ATOM      5  C   UNL     1       0.429  -4.243   0.026  0.00  0.00    +0.069 A 
ATOM      6  C   UNL     1       0.132  -5.065  -1.067  0.00  0.00    +0.258 A 
ATOM      7  O   UNL     1      -0.522  -4.640  -2.006  0.00  0.00    -0.267 OA
ATOM      8  N   UNL     1       0.583  -6.338  -1.064  0.00  0.00    -0.302 N 
ATOM      9  H   UNL     1       0.363  -7.001  -1.913  0.00  0.00    +0.171 HD
ATOM     10  C   UNL     1       1.310  -6.802  -0.010  0.00  0.00    +0.171 A 
ATOM     11  N   UNL     1       1.594  -6.032   1.020  0.00  0.00    -0.208 NA
ATOM     12  C   UNL     1       1.176  -4.762   1.069  0.00  0.00    +0.135 A 
ATOM     13  N   UNL     1       1.489  -3.969   2.159  0.00  0.00    -0.302 N 
ATOM     14  H   UNL     1       1.822  -4.436   3.098  0.00  0.00    +0.153 HD
ENDROOT
BRANCH   4  15
ATOM     15  C   UNL     1      -1.540  -2.819   0.388  0.00  0.00    -0.035 A 
ATOM     16  C   UNL     1      -1.982  -3.339   1.591  0.00  0.00    +0.008 A 
ATOM     17  C   UNL     1      -3.330  -3.330   1.894  0.00  0.00    +0.046 A 
ATOM     18  C   UNL     1      -4.240  -2.809   0.987  0.00  0.00    +0.117 A 
ATOM     19  C   UNL     1      -3.795  -2.292  -0.221  0.00  0.00    +0.046 A 
ATOM     20  C   UNL     1      -2.446  -2.298  -0.518  0.00  0.00    +0.008 A 
BRANCH  18  21
ATOM     21  O   UNL     1      -5.567  -2.804   1.281  0.00  0.00    -0.507 OA
ATOM     22  H   UNL     1      -6.289  -2.391   0.561  0.00  0.00    +0.292 HD
ENDBRANCH  18  21
ENDBRANCH   4  15
BRANCH   3  23
ATOM     23  C   UNL     1       0.604  -0.615   1.047  0.00  0.00    +0.337 C 
ATOM     24  O   UNL     1       1.099   0.049   1.938  0.00  0.00    -0.245 OA
BRANCH  23  25
ATOM     25  O   UNL     1      -0.009  -0.004   0.011  0.00  0.00    -0.465 OA
ATOM     26  C   UNL     1      -0.038   1.425   0.026  0.00  0.00    +0.280 C 
ENDBRANCH  23  25
ENDBRANCH   3  23
BRANCH  10  27
ATOM     27  S   UNL     1       1.884  -8.468  -0.026  0.00  0.00    -0.083 S 
BRANCH  27  28
ATOM     28  C   UNL     1       2.752  -8.516   1.562  0.00  0.00    +0.114 C 
BRANCH  28  29
ATOM     29  C   UNL     1       3.343  -9.887   1.770  0.00  0.00    -0.019 A 
ATOM     30  C   UNL     1       2.608 -10.867   2.411  0.00  0.00    +0.006 A 
ATOM     31  C   UNL     1       3.149 -12.125   2.598  0.00  0.00    +0.000 A 
ATOM     32  C   UNL     1       4.428 -12.402   2.152  0.00  0.00    +0.001 A 
ATOM     33  C   UNL     1       5.166 -11.422   1.516  0.00  0.00    +0.020 A 
ATOM     34  C   UNL     1       4.623 -10.163   1.324  0.00  0.00    +0.045 A 
ATOM     35 CL   UNL     1       5.550  -8.931   0.525  0.00  0.00    -0.083 Cl
ENDBRANCH  28  29
ENDBRANCH  27  28
ENDBRANCH  10  27
TORSDOF 7
