REMARK  Name = ZINC34716223
REMARK  8 active torsions:
REMARK  status: ('A' for Active; 'I' for Inactive)
REMARK    1  A    between atoms: C_1  and  C_2
REMARK    2  A    between atoms: C_2  and  N_3
REMARK    3  A    between atoms: C_8  and  C_25
REMARK    4  A    between atoms: C_11  and  C_14
REMARK    5  A    between atoms: N_16  and  C_17
REMARK    6  A    between atoms: C_17  and  C_18
REMARK    7  A    between atoms: C_18  and  C_19
REMARK    8  A    between atoms: C_29  and  C_31
REMARK                            x       y       z     vdW  Elec       q    Type
REMARK                         _______ _______ _______ _____ _____    ______ ____
ROOT
ATOM      1  N   UNL     1       0.336  -2.686  -0.537  0.00  0.00    -0.300 N 
ATOM      2  C   UNL     1       0.827  -1.799  -1.425  0.00  0.00    +0.302 C 
ATOM      3  O   UNL     1       0.622  -0.610  -1.273  0.00  0.00    -0.253 OA
ATOM      4  N   UNL     1       1.545  -2.229  -2.481  0.00  0.00    -0.284 N 
ATOM      5  C   UNL     1       1.703  -3.666  -2.744  0.00  0.00    +0.117 C 
ATOM      6  C   UNL     1       3.196  -3.984  -2.865  0.00  0.00    +0.037 C 
ATOM      7  C   UNL     1       3.822  -3.078  -3.928  0.00  0.00    +0.024 C 
ATOM      8  C   UNL     1       3.672  -1.615  -3.507  0.00  0.00    +0.093 C 
ATOM      9  C   UNL     1       2.179  -1.270  -3.396  0.00  0.00    +0.122 C 
ATOM     10  H   UNL     1       0.436  -3.638  -0.697  0.00  0.00    +0.150 HD
ENDROOT
BRANCH   6  11
ATOM     11  C   UNL     1       3.373  -5.426  -3.264  0.00  0.00    -0.042 A 
ATOM     12  C   UNL     1       2.841  -5.883  -4.456  0.00  0.00    +0.007 A 
ATOM     13  C   UNL     1       3.003  -7.205  -4.824  0.00  0.00    +0.039 A 
ATOM     14  C   UNL     1       3.698  -8.073  -3.998  0.00  0.00    +0.126 A 
ATOM     15  C   UNL     1       4.229  -7.614  -2.804  0.00  0.00    -0.015 A 
ATOM     16  C   UNL     1       4.071  -6.290  -2.441  0.00  0.00    +0.010 A 
ATOM     17  C   UNL     1       4.985  -8.558  -1.904  0.00  0.00    +0.047 C 
ATOM     18  F   UNL     1       3.856  -9.366  -4.356  0.00  0.00    -0.205 F 
ENDBRANCH   6  11
BRANCH   8  19
ATOM     19  C   UNL     1       4.318  -0.726  -4.538  0.00  0.00    +0.218 C 
ATOM     20  O   UNL     1       4.846  -1.214  -5.514  0.00  0.00    -0.275 OA
ATOM     21  N   UNL     1       4.308   0.612  -4.375  0.00  0.00    -0.315 N 
ATOM     22  H   UNL     1       3.886   1.003  -3.594  0.00  0.00    +0.149 HD
BRANCH  21  23
ATOM     23  C   UNL     1       4.936   1.476  -5.378  0.00  0.00    +0.109 C 
BRANCH  23  24
ATOM     24  C   UNL     1       4.785   2.939  -4.956  0.00  0.00    +0.054 C 
BRANCH  24  25
ATOM     25  C   UNL     1       5.431   3.829  -5.987  0.00  0.00    -0.046 A 
ATOM     26  C   UNL     1       6.766   4.167  -5.870  0.00  0.00    +0.004 A 
ATOM     27  C   UNL     1       7.358   4.983  -6.816  0.00  0.00    +0.000 A 
ATOM     28  C   UNL     1       6.615   5.459  -7.880  0.00  0.00    +0.000 A 
ATOM     29  C   UNL     1       5.280   5.120  -7.998  0.00  0.00    +0.000 A 
ATOM     30  C   UNL     1       4.689   4.301  -7.054  0.00  0.00    +0.004 A 
ENDBRANCH  24  25
ENDBRANCH  23  24
ENDBRANCH  21  23
ENDBRANCH   8  19
BRANCH   1  32
ATOM     31  C   UNL     1      -0.804  -3.414   1.500  0.00  0.00    +0.024 C 
ATOM     32  C   UNL     1      -0.348  -2.213   0.669  0.00  0.00    +0.102 C 
ENDBRANCH   1  32
TORSDOF 6
