REMARK  Name = ZINC37420293
REMARK  6 active torsions:
REMARK  status: ('A' for Active; 'I' for Inactive)
REMARK    1  A    between atoms: C_1  and  C_2
REMARK    2  A    between atoms: C_5  and  O_12
REMARK    3  A    between atoms: C_8  and  C_10
REMARK    4  A    between atoms: C_8  and  C_11
REMARK    5  A    between atoms: O_12  and  C_13
REMARK    6  A    between atoms: C_18  and  N_19
REMARK                            x       y       z     vdW  Elec       q    Type
REMARK                         _______ _______ _______ _____ _____    ______ ____
ROOT
ATOM      1  O   UNL     1      -2.753  -2.558   0.015  0.00  0.00    -0.487 OA
ENDROOT
BRANCH   1   5
ATOM      2  C   UNL     1       0.606   1.019  -0.270  0.00  0.00    +0.007 C 
ATOM      3  C   UNL     1       0.379  -0.490  -0.151  0.00  0.00    -0.010 C 
ATOM      4  C   UNL     1      -1.123  -0.779  -0.127  0.00  0.00    +0.048 C 
ATOM      5  C   UNL     1      -1.350  -2.288  -0.008  0.00  0.00    +0.174 C 
ATOM      6  C   UNL     1      -0.711  -2.799   1.285  0.00  0.00    +0.051 C 
ATOM      7  C   UNL     1       0.791  -2.510   1.261  0.00  0.00    -0.031 C 
ATOM      8  C   UNL     1       1.018  -1.001   1.142  0.00  0.00    +0.010 C 
ATOM      9  C   UNL     1       1.430  -3.021   2.553  0.00  0.00    +0.011 C 
ATOM     10  C   UNL     1       1.427  -3.217   0.063  0.00  0.00    +0.011 C 
ENDBRANCH   1   5
BRANCH   1  11
ATOM     11  C   UNL     1      -3.381  -2.666  -1.187  0.00  0.00    +0.144 A 
ATOM     12  C   UNL     1      -2.688  -2.403  -2.358  0.00  0.00    +0.048 A 
ATOM     13  C   UNL     1      -3.326  -2.513  -3.580  0.00  0.00    +0.006 A 
ATOM     14  C   UNL     1      -4.656  -2.885  -3.639  0.00  0.00    +0.040 A 
ATOM     15  C   UNL     1      -5.356  -3.150  -2.474  0.00  0.00    +0.147 A 
ATOM     16  C   UNL     1      -4.718  -3.047  -1.244  0.00  0.00    +0.102 A 
ATOM     17  F   UNL     1      -6.655  -3.514  -2.534  0.00  0.00    -0.203 F 
BRANCH  16  18
ATOM     18  N   UNL     1      -5.422  -3.320  -0.063  0.00  0.00    -0.353 N 
ATOM     19  H   UNL     1      -4.977  -3.244   0.795  0.00  0.00    +0.143 HD
ATOM     20  H   UNL     1      -6.354  -3.585  -0.104  0.00  0.00    +0.143 HD
ENDBRANCH  16  18
ENDBRANCH   1  11
TORSDOF 3
