REMARK  Name = ZINC14470795
REMARK  8 active torsions:
REMARK  status: ('A' for Active; 'I' for Inactive)
REMARK    1  A    between atoms: C_1  and  C_2
REMARK    2  A    between atoms: C_2  and  C_3
REMARK    3  A    between atoms: C_2  and  C_4
REMARK    4  A    between atoms: C_2  and  N_5
REMARK    5  A    between atoms: N_5  and  S_6
REMARK    6  A    between atoms: S_6  and  C_9
REMARK    7  A    between atoms: C_22  and  C_25
REMARK    8  A    between atoms: C_29  and  N_31
REMARK                            x       y       z     vdW  Elec       q    Type
REMARK                         _______ _______ _______ _____ _____    ______ ____
ROOT
ATOM      1  C   UNL     1       4.002  -0.138  -2.542  0.00  0.00    +0.106 A 
ATOM      2  C   UNL     1       3.894  -0.101  -3.921  0.00  0.00    +0.030 A 
ATOM      3  C   UNL     1       2.650  -0.095  -4.518  0.00  0.00    +0.025 A 
ATOM      4  C   UNL     1       1.498  -0.126  -3.741  0.00  0.00    +0.031 A 
ATOM      5  C   UNL     1       1.616  -0.149  -2.346  0.00  0.00    -0.018 A 
ATOM      6  C   UNL     1       2.863  -0.161  -1.760  0.00  0.00    +0.034 A 
ATOM      7  C   UNL     1       0.366  -0.157  -1.556  0.00  0.00    +0.049 C 
ATOM      8  C   UNL     1       0.305  -0.727  -0.186  0.00  0.00    -0.023 C 
ATOM      9  C   UNL     1      -0.913  -1.215   0.015  0.00  0.00    -0.030 C 
ATOM     10  C   UNL     1      -1.764  -1.034  -1.243  0.00  0.00    +0.033 C 
ATOM     11  C   UNL     1      -0.691  -0.992  -2.339  0.00  0.00    +0.029 C 
ATOM     12  C   UNL     1      -0.988  -0.194  -3.595  0.00  0.00    +0.105 C 
ATOM     13  N   UNL     1       0.248  -0.156  -4.370  0.00  0.00    -0.336 N 
ATOM     14  H   UNL     1       0.202  -0.160  -5.339  0.00  0.00    +0.147 HD
ENDROOT
BRANCH  12  15
ATOM     15  C   UNL     1      -2.083  -0.860  -4.388  0.00  0.00    -0.025 A 
ATOM     16  C   UNL     1      -1.790  -1.942  -5.198  0.00  0.00    +0.007 A 
ATOM     17  C   UNL     1      -2.793  -2.553  -5.925  0.00  0.00    +0.022 A 
ATOM     18  C   UNL     1      -4.091  -2.083  -5.843  0.00  0.00    +0.071 A 
ATOM     19  C   UNL     1      -4.385  -1.000  -5.034  0.00  0.00    +0.145 A 
ATOM     20  C   UNL     1      -3.381  -0.393  -4.302  0.00  0.00    +0.039 A 
ATOM     21 CL   UNL     1      -5.353  -2.851  -6.756  0.00  0.00    -0.081 Cl
BRANCH  19  22
ATOM     22  N   UNL     1      -5.773  -0.497  -4.945  0.00  0.00    +0.058 N 
ATOM     23  O   UNL     1      -6.031   0.456  -4.232  0.00  0.00    -0.126 OA
ATOM     24  O   UNL     1      -6.659  -1.035  -5.585  0.00  0.00    -0.126 OA
ENDBRANCH  19  22
ENDBRANCH  12  15
BRANCH   1  25
ATOM     25  S   UNL     1       5.593  -0.154  -1.784  0.00  0.00    +0.059 S 
ATOM     26  O   UNL     1       6.527   0.205  -2.792  0.00  0.00    -0.153 OA
ATOM     27  O   UNL     1       5.470   0.569  -0.567  0.00  0.00    -0.153 OA
BRANCH  25  28
ATOM     28  N   UNL     1       5.922  -1.723  -1.371  0.00  0.00    -0.185 NA
ATOM     29  H   UNL     1       5.975  -1.978  -0.436  0.00  0.00    +0.149 HD
BRANCH  28  31
ATOM     30  C   UNL     1       7.414  -2.401  -3.187  0.00  0.00    +0.029 C 
ATOM     31  C   UNL     1       6.133  -2.727  -2.417  0.00  0.00    +0.032 C 
ATOM     32  C   UNL     1       6.261  -4.111  -1.777  0.00  0.00    +0.029 C 
ATOM     33  C   UNL     1       4.943  -2.719  -3.379  0.00  0.00    +0.029 C 
ENDBRANCH  28  31
ENDBRANCH  25  28
ENDBRANCH   1  25
TORSDOF 5
