REMARK  Name = ZINC63692073
REMARK  11 active torsions:
REMARK  status: ('A' for Active; 'I' for Inactive)
REMARK    1  A    between atoms: C_1  and  C_2
REMARK    2  A    between atoms: C_2  and  C_3
REMARK    3  A    between atoms: C_3  and  C_4
REMARK    4  A    between atoms: C_4  and  C_5
REMARK    5  A    between atoms: C_4  and  N_24
REMARK    6  A    between atoms: N_7  and  C_8
REMARK    7  A    between atoms: C_8  and  C_9
REMARK    8  A    between atoms: C_14  and  C_15
REMARK    9  A    between atoms: C_15  and  N_16
REMARK   10  A    between atoms: C_18  and  C_23
REMARK   11  A    between atoms: C_20  and  C_22
REMARK                            x       y       z     vdW  Elec       q    Type
REMARK                         _______ _______ _______ _____ _____    ______ ____
ROOT
ATOM      1  C   UNL     1      -4.285  -2.508   1.720  0.00  0.00    +0.139 C 
ENDROOT
BRANCH   1   2
ATOM      2  C   UNL     1      -5.082  -2.055   2.917  0.00  0.00    -0.029 A 
ATOM      3  C   UNL     1      -5.094  -2.820   4.068  0.00  0.00    +0.005 A 
ATOM      4  C   UNL     1      -5.824  -2.405   5.166  0.00  0.00    +0.000 A 
ATOM      5  C   UNL     1      -6.543  -1.224   5.112  0.00  0.00    +0.000 A 
ATOM      6  C   UNL     1      -6.530  -0.460   3.961  0.00  0.00    +0.002 A 
ATOM      7  C   UNL     1      -5.796  -0.873   2.865  0.00  0.00    -0.059 A 
BRANCH   7   8
ATOM      8  C   UNL     1      -5.777  -0.036   1.611  0.00  0.00    -0.043 C 
BRANCH   8   9
ATOM      9  N   UNL     1      -6.767   1.043   1.728  0.00  0.00    +0.383 N 
ATOM     10  C   UNL     1      -8.118   0.468   1.733  0.00  0.00    -0.075 C 
ATOM     11  C   UNL     1      -9.149   1.580   1.937  0.00  0.00    -0.031 C 
ATOM     12  C   UNL     1      -9.029   2.594   0.796  0.00  0.00    +0.003 C 
ATOM     13  C   UNL     1      -7.596   3.133   0.754  0.00  0.00    -0.031 C 
ATOM     14  C   UNL     1      -6.622   1.963   0.594  0.00  0.00    -0.075 C 
ATOM     15  C   UNL     1      -7.444   4.089  -0.431  0.00  0.00    +0.005 C 
ATOM     16  C   UNL     1      -8.890   2.279   3.272  0.00  0.00    +0.005 C 
ATOM     17  H   UNL     1      -6.615   1.546   2.590  0.00  0.00    -0.081 HD
ENDBRANCH   8   9
ENDBRANCH   7   8
ENDBRANCH   1   2
BRANCH   1  20
ATOM     18  C   UNL     1      -2.167  -1.969   0.642  0.00  0.00    +0.234 C 
ATOM     19  O   UNL     1      -2.408  -2.819  -0.189  0.00  0.00    -0.274 OA
ATOM     20  N   UNL     1      -3.043  -1.735   1.639  0.00  0.00    -0.310 N 
ATOM     21  H   UNL     1      -2.851  -1.055   2.304  0.00  0.00    +0.149 HD
BRANCH  18  22
ATOM     22  C   UNL     1      -0.890  -1.174   0.559  0.00  0.00    +0.160 C 
BRANCH  22  23
ATOM     23  N   UNL     1      -0.115  -1.614  -0.604  0.00  0.00    -0.288 N 
ATOM     24  C   UNL     1       1.222  -1.450  -0.625  0.00  0.00    +0.298 C 
ATOM     25  O   UNL     1       1.786  -0.936   0.322  0.00  0.00    -0.253 OA
ATOM     26  N   UNL     1       1.934  -1.854  -1.695  0.00  0.00    -0.313 N 
ATOM     27  H   UNL     1      -0.565  -2.024  -1.359  0.00  0.00    +0.151 HD
ATOM     28  H   UNL     1       1.484  -2.264  -2.450  0.00  0.00    +0.146 HD
ATOM     29  H   UNL     1       2.897  -1.736  -1.710  0.00  0.00    +0.146 HD
ENDBRANCH  22  23
BRANCH  22  30
ATOM     30  C   UNL     1      -1.222   0.312   0.418  0.00  0.00    +0.031 C 
BRANCH  30  32
ATOM     31  C   UNL     1      -0.262   2.617   0.318  0.00  0.00    +0.004 C 
ATOM     32  C   UNL     1       0.070   1.130   0.459  0.00  0.00    -0.001 C 
ENDBRANCH  30  32
ENDBRANCH  22  30
ENDBRANCH  18  22
ENDBRANCH   1  20
TORSDOF 8
