REMARK  Name = ZINC15670691
REMARK  7 active torsions:
REMARK  status: ('A' for Active; 'I' for Inactive)
REMARK    1  A    between atoms: C_1  and  N_2
REMARK    2  A    between atoms: C_5  and  C_12
REMARK    3  A    between atoms: C_6  and  O_11
REMARK    4  A    between atoms: C_21  and  C_24
REMARK    5  A    between atoms: C_27  and  N_30
REMARK    6  A    between atoms: N_30  and  C_31
REMARK    7  A    between atoms: N_30  and  C_32
REMARK                            x       y       z     vdW  Elec       q    Type
REMARK                         _______ _______ _______ _____ _____    ______ ____
ROOT
ATOM      1  C   UNL     1       1.347   2.088   0.000  0.00  0.00    +0.061 C 
ATOM      2  N   UNL     1       2.166   1.946   0.929  0.00  0.00    -0.250 NA
ATOM      3  C   UNL     1       2.616   1.088   1.846  0.00  0.00    +0.078 A 
ATOM      4  C   UNL     1       3.771   1.515   2.539  0.00  0.00    +0.029 A 
ATOM      5  C   UNL     1       4.374   0.727   3.486  0.00  0.00    +0.002 A 
ATOM      6  C   UNL     1       3.848  -0.520   3.782  0.00  0.00    +0.001 A 
ATOM      7  C   UNL     1       2.720  -0.952   3.125  0.00  0.00    +0.017 A 
ATOM      8  C   UNL     1       2.085  -0.164   2.159  0.00  0.00    +0.034 A 
ATOM      9  S   UNL     1       0.651  -0.834   1.415  0.00  0.00    -0.115 S 
ATOM     10  C   UNL     1       0.586  -0.263  -0.278  0.00  0.00    +0.087 C 
ATOM     11  C   UNL     1       0.233   1.191  -0.407  0.00  0.00    +0.075 C 
ENDROOT
BRANCH   1  16
ATOM     12  C   UNL     1       0.468   6.937  -0.749  0.00  0.00    +0.157 C 
ATOM     13  N   UNL     1       1.068   5.662  -1.150  0.00  0.00    -0.263 N 
ATOM     14  C   UNL     1       0.887   4.569  -0.380  0.00  0.00    +0.269 A 
ATOM     15  O   UNL     1       0.231   4.631   0.643  0.00  0.00    -0.267 OA
ATOM     16  C   UNL     1       1.504   3.305  -0.799  0.00  0.00    +0.120 A 
ATOM     17  C   UNL     1       2.240   3.296  -1.986  0.00  0.00    +0.208 A 
ATOM     18  N   UNL     1       2.360   4.454  -2.700  0.00  0.00    -0.278 N 
ATOM     19  H   UNL     1       2.870   4.453  -3.525  0.00  0.00    +0.173 HD
ATOM     20  C   UNL     1       1.786   5.594  -2.283  0.00  0.00    +0.332 A 
ATOM     21  O   UNL     1       1.922   6.599  -2.953  0.00  0.00    -0.246 OA
BRANCH  17  22
ATOM     22  O   UNL     1       2.822   2.162  -2.420  0.00  0.00    -0.493 OA
ATOM     23  H   UNL     1       3.320   2.213  -3.248  0.00  0.00    +0.294 HD
ENDBRANCH  17  22
ENDBRANCH   1  16
BRANCH  10  24
ATOM     24  C   UNL     1      -0.444  -1.077  -1.020  0.00  0.00    -0.034 A 
ATOM     25  C   UNL     1      -1.774  -1.013  -0.646  0.00  0.00    +0.006 A 
ATOM     26  C   UNL     1      -2.720  -1.753  -1.327  0.00  0.00    +0.023 A 
ATOM     27  C   UNL     1      -2.333  -2.571  -2.381  0.00  0.00    +0.029 A 
ATOM     28  C   UNL     1      -0.995  -2.638  -2.750  0.00  0.00    +0.023 A 
ATOM     29  C   UNL     1      -0.055  -1.890  -2.068  0.00  0.00    +0.006 A 
BRANCH  27  30
ATOM     30  N   UNL     1      -3.287  -3.325  -3.069  0.00  0.00    -0.336 N 
ATOM     31  C   UNL     1      -2.877  -4.187  -4.180  0.00  0.00    +0.129 C 
ATOM     32  C   UNL     1      -4.697  -3.254  -2.679  0.00  0.00    +0.129 C 
ENDBRANCH  27  30
ENDBRANCH  10  24
TORSDOF 4
