REMARK  Name = ZINC35931279
REMARK  12 active torsions:
REMARK  status: ('A' for Active; 'I' for Inactive)
REMARK    1  A    between atoms: C_1  and  C_2
REMARK    2  A    between atoms: C_2  and  C_3
REMARK    3  A    between atoms: C_3  and  N_4
REMARK    4  A    between atoms: C_9  and  C_20
REMARK    5  A    between atoms: N_11  and  C_12
REMARK    6  A    between atoms: C_17  and  O_18
REMARK    7  A    between atoms: O_18  and  C_19
REMARK    8  A    between atoms: C_20  and  N_21
REMARK    9  A    between atoms: N_21  and  C_22
REMARK   10  A    between atoms: C_25  and  C_27
REMARK   11  A    between atoms: C_30  and  C_36
REMARK   12  A    between atoms: C_31  and  N_33
REMARK                            x       y       z     vdW  Elec       q    Type
REMARK                         _______ _______ _______ _____ _____    ______ ____
ROOT
ATOM      1  N   UNL     1      -2.938  -3.301  -4.736  0.00  0.00    +0.383 N 
ATOM      2  C   UNL     1      -3.011  -3.550  -3.291  0.00  0.00    -0.072 C 
ATOM      3  C   UNL     1      -2.484  -4.958  -2.981  0.00  0.00    +0.037 C 
ATOM      4  C   UNL     1      -1.150  -5.109  -3.670  0.00  0.00    +0.045 A 
ATOM      5  C   UNL     1      -0.724  -4.264  -4.647  0.00  0.00    -0.018 A 
ATOM      6  C   UNL     1       0.538  -4.684  -5.056  0.00  0.00    +0.082 A 
ATOM      7  N   UNL     1       0.862  -5.744  -4.354  0.00  0.00    -0.169 NA
ATOM      8  N   UNL     1      -0.193  -6.029  -3.473  0.00  0.00    -0.233 N 
ATOM      9  C   UNL     1      -1.540  -3.100  -5.150  0.00  0.00    -0.039 C 
ATOM     10  H   UNL     1      -3.322  -4.093  -5.229  0.00  0.00    -0.081 HD
ENDROOT
BRANCH   8  11
ATOM     11  C   UNL     1      -0.240  -7.087  -2.552  0.00  0.00    +0.107 A 
ATOM     12  C   UNL     1      -1.380  -7.870  -2.449  0.00  0.00    +0.031 A 
ATOM     13  C   UNL     1      -1.423  -8.911  -1.542  0.00  0.00    +0.002 A 
ATOM     14  C   UNL     1      -0.332  -9.174  -0.733  0.00  0.00    +0.004 A 
ATOM     15  C   UNL     1       0.807  -8.398  -0.830  0.00  0.00    +0.048 A 
ATOM     16  C   UNL     1       0.861  -7.356  -1.742  0.00  0.00    +0.145 A 
BRANCH  16  17
ATOM     17  O   UNL     1       1.983  -6.596  -1.842  0.00  0.00    -0.493 OA
ATOM     18  C   UNL     1       3.073  -6.930  -0.980  0.00  0.00    +0.277 C 
ENDBRANCH  16  17
ENDBRANCH   8  11
BRANCH   1  19
ATOM     19  C   UNL     1      -3.719  -2.100  -5.063  0.00  0.00    -0.079 C 
BRANCH  19  21
ATOM     20  C   UNL     1      -6.010  -1.103  -5.098  0.00  0.00    +0.002 C 
ATOM     21  C   UNL     1      -5.197  -2.353  -4.758  0.00  0.00    -0.022 C 
ENDBRANCH  19  21
ENDBRANCH   1  19
BRANCH   6  22
ATOM     22  C   UNL     1       1.385  -4.035  -6.120  0.00  0.00    +0.165 C 
BRANCH  22  23
ATOM     23  N   UNL     1       2.799  -4.144  -5.753  0.00  0.00    -0.289 N 
ATOM     24  C   UNL     1       3.421  -3.110  -5.152  0.00  0.00    +0.247 C 
ATOM     25  O   UNL     1       4.615  -3.164  -4.931  0.00  0.00    -0.270 OA
BRANCH  24  26
ATOM     26  C   UNL     1       2.651  -1.909  -4.763  0.00  0.00    +0.039 A 
ATOM     27  C   UNL     1       1.366  -2.042  -4.235  0.00  0.00    +0.013 A 
ATOM     28  C   UNL     1       0.653  -0.917  -3.873  0.00  0.00    +0.006 A 
ATOM     29  C   UNL     1       1.209   0.340  -4.034  0.00  0.00    -0.020 A 
ATOM     30  C   UNL     1       2.482   0.478  -4.558  0.00  0.00    +0.130 A 
ATOM     31  C   UNL     1       3.208  -0.639  -4.917  0.00  0.00    +0.046 A 
ATOM     32  C   UNL     1       0.425   1.563  -3.637  0.00  0.00    +0.046 C 
BRANCH  30  33
ATOM     33  N   UNL     1       3.069   1.826  -4.726  0.00  0.00    +0.057 N 
ATOM     34  O   UNL     1       3.721   2.083  -5.712  0.00  0.00    -0.126 OA
ATOM     35  O   UNL     1       2.897   2.671  -3.879  0.00  0.00    -0.126 OA
ENDBRANCH  30  33
ENDBRANCH  24  26
BRANCH  23  36
ATOM     36  C   UNL     1       3.537  -5.377  -6.037  0.00  0.00    +0.077 C 
ATOM     37  C   UNL     1       4.872  -5.584  -5.319  0.00  0.00    +0.024 C 
ATOM     38  C   UNL     1       4.850  -5.252  -6.812  0.00  0.00    +0.024 C 
ENDBRANCH  23  36
ENDBRANCH  22  23
ENDBRANCH   6  22
TORSDOF 9
