REMARK  Name = ZINC38732672
REMARK  7 active torsions:
REMARK  status: ('A' for Active; 'I' for Inactive)
REMARK    1  A    between atoms: C_4  and  C_7
REMARK    2  A    between atoms: C_7  and  C_8
REMARK    3  A    between atoms: C_7  and  C_35
REMARK    4  A    between atoms: C_8  and  C_9
REMARK    5  A    between atoms: C_9  and  N_10
REMARK    6  A    between atoms: C_11  and  C_13
REMARK    7  A    between atoms: C_19  and  C_21
REMARK                            x       y       z     vdW  Elec       q    Type
REMARK                         _______ _______ _______ _____ _____    ______ ____
ROOT
ATOM      1  C   UNL     1       3.314  -1.486   7.038  0.00  0.00    +0.087 C 
ATOM      2  C   UNL     1       4.297  -2.524   7.586  0.00  0.00    +0.013 C 
ATOM      3  C   UNL     1       4.037  -2.734   9.079  0.00  0.00    +0.001 C 
ATOM      4  C   UNL     1       4.228  -1.409   9.821  0.00  0.00    +0.001 C 
ATOM      5  C   UNL     1       3.246  -0.372   9.274  0.00  0.00    +0.013 C 
ATOM      6  C   UNL     1       3.505  -0.162   7.780  0.00  0.00    +0.087 C 
ENDROOT
BRANCH   6   7
ATOM      7  C   UNL     1       4.916   0.328   7.580  0.00  0.00    +0.219 C 
ATOM      8  O   UNL     1       5.728  -0.377   7.018  0.00  0.00    -0.275 OA
ATOM      9  N   UNL     1       5.276   1.548   8.024  0.00  0.00    -0.298 N 
ATOM     10  C   UNL     1       4.277   2.458   8.601  0.00  0.00    +0.126 C 
ATOM     11  C   UNL     1       4.743   2.873  10.002  0.00  0.00    +0.125 C 
ATOM     12  N   UNL     1       6.141   3.317   9.920  0.00  0.00    -0.314 N 
ATOM     13  C   UNL     1       7.141   2.407   9.343  0.00  0.00    +0.125 C 
ATOM     14  C   UNL     1       6.676   1.990   7.947  0.00  0.00    +0.126 C 
ATOM     15  C   UNL     1       6.512   4.576  10.378  0.00  0.00    +0.099 A 
ATOM     16  C   UNL     1       5.581   5.371  11.040  0.00  0.00    +0.042 A 
ATOM     17  C   UNL     1       5.964   6.621  11.491  0.00  0.00    +0.005 A 
ATOM     18  C   UNL     1       7.269   7.036  11.265  0.00  0.00    +0.018 A 
ATOM     19  C   UNL     1       8.141   6.196  10.601  0.00  0.00    +0.084 A 
ATOM     20  N   UNL     1       7.750   5.006  10.187  0.00  0.00    -0.350 N 
ATOM     21  H   UNL     1       8.383   4.433   9.727  0.00  0.00    +0.166 HD
ENDBRANCH   6   7
BRANCH   1  23
ATOM     22  N   UNL     1       3.460  -2.315   4.712  0.00  0.00    -0.315 N 
ATOM     23  C   UNL     1       3.570  -1.279   5.568  0.00  0.00    +0.217 C 
ATOM     24  O   UNL     1       3.875  -0.181   5.154  0.00  0.00    -0.275 OA
ATOM     25  H   UNL     1       3.216  -3.193   5.043  0.00  0.00    +0.149 HD
BRANCH  22  26
ATOM     26  C   UNL     1       3.708  -2.114   3.283  0.00  0.00    +0.105 C 
BRANCH  26  27
ATOM     27  C   UNL     1       3.518  -3.438   2.541  0.00  0.00    +0.031 C 
BRANCH  27  28
ATOM     28  C   UNL     1       3.777  -3.228   1.048  0.00  0.00    +0.050 C 
BRANCH  28  32
ATOM     29  C   UNL     1       0.818  -0.599  -0.558  0.00  0.00    +0.000 A 
ATOM     30  C   UNL     1       2.160  -0.320  -0.736  0.00  0.00    +0.000 A 
ATOM     31  C   UNL     1       3.118  -1.171  -0.216  0.00  0.00    +0.004 A 
ATOM     32  C   UNL     1       2.733  -2.300   0.482  0.00  0.00    -0.040 A 
ATOM     33  C   UNL     1       1.391  -2.579   0.661  0.00  0.00    +0.004 A 
ATOM     34  C   UNL     1       0.433  -1.729   0.140  0.00  0.00    +0.000 A 
ENDBRANCH  28  32
BRANCH  28  35
ATOM     35  C   UNL     1       3.710  -4.554   0.335  0.00  0.00    -0.040 A 
ATOM     36  C   UNL     1       2.607  -5.372   0.498  0.00  0.00    +0.004 A 
ATOM     37  C   UNL     1       2.545  -6.588  -0.156  0.00  0.00    +0.000 A 
ATOM     38  C   UNL     1       3.586  -6.987  -0.974  0.00  0.00    +0.000 A 
ATOM     39  C   UNL     1       4.689  -6.169  -1.138  0.00  0.00    +0.000 A 
ATOM     40  C   UNL     1       4.748  -4.950  -0.487  0.00  0.00    +0.004 A 
ENDBRANCH  28  35
ENDBRANCH  27  28
ENDBRANCH  26  27
ENDBRANCH  22  26
ENDBRANCH   1  23
TORSDOF 7
