REMARK  Name = ZINC31660288
REMARK  8 active torsions:
REMARK  status: ('A' for Active; 'I' for Inactive)
REMARK    1  A    between atoms: C_1  and  C_2
REMARK    2  A    between atoms: C_2  and  C_4
REMARK    3  A    between atoms: C_2  and  N_14
REMARK    4  A    between atoms: C_15  and  C_17
REMARK    5  A    between atoms: C_17  and  N_18
REMARK    6  A    between atoms: C_21  and  C_25
REMARK    7  A    between atoms: C_21  and  C_26
REMARK    8  A    between atoms: C_30  and  N_32
REMARK                            x       y       z     vdW  Elec       q    Type
REMARK                         _______ _______ _______ _____ _____    ______ ____
ROOT
ATOM      1  N   UNL     1      -3.929  -1.240   2.572  0.00  0.00    -0.215 N 
ATOM      2  C   UNL     1      -3.791  -2.314   3.375  0.00  0.00    +0.251 C 
ATOM      3  O   UNL     1      -3.260  -3.369   3.102  0.00  0.00    -0.272 OA
ATOM      4  C   UNL     1      -4.436  -1.927   4.691  0.00  0.00    +0.135 C 
ATOM      5  N   UNL     1      -4.907  -0.551   4.455  0.00  0.00    -0.281 N 
ATOM      6  C   UNL     1      -4.561  -0.238   3.193  0.00  0.00    +0.310 C 
ATOM      7  O   UNL     1      -4.799   0.835   2.674  0.00  0.00    -0.252 OA
ATOM      8  C   UNL     1      -3.407  -1.956   5.823  0.00  0.00    +0.047 C 
ATOM      9  H   UNL     1      -5.373   0.018   5.086  0.00  0.00    +0.152 HD
ENDROOT
BRANCH   4  10
ATOM     10  C   UNL     1      -5.595  -2.838   5.001  0.00  0.00    -0.013 A 
ATOM     11  C   UNL     1      -5.583  -4.148   4.557  0.00  0.00    +0.006 A 
ATOM     12  C   UNL     1      -6.646  -4.984   4.842  0.00  0.00    +0.003 A 
ATOM     13  C   UNL     1      -7.721  -4.511   5.572  0.00  0.00    +0.033 A 
ATOM     14  C   UNL     1      -7.732  -3.202   6.016  0.00  0.00    +0.127 A 
ATOM     15  C   UNL     1      -6.667  -2.367   5.735  0.00  0.00    +0.039 A 
BRANCH  14  16
ATOM     16  N   UNL     1      -8.884  -2.696   6.797  0.00  0.00    +0.056 N 
ATOM     17  O   UNL     1      -9.814  -3.427   7.045  0.00  0.00    -0.126 OA
ATOM     18  O   UNL     1      -8.894  -1.551   7.186  0.00  0.00    -0.126 OA
ENDBRANCH  14  16
ENDBRANCH   4  10
BRANCH   1  19
ATOM     19  C   UNL     1      -3.442  -1.177   1.191  0.00  0.00    +0.213 C 
BRANCH  19  21
ATOM     20  N   UNL     1      -1.372  -0.511   0.012  0.00  0.00    -0.307 N 
ATOM     21  C   UNL     1      -2.029  -0.655   1.181  0.00  0.00    +0.231 C 
ATOM     22  O   UNL     1      -1.481  -0.365   2.224  0.00  0.00    -0.274 OA
ATOM     23  H   UNL     1      -1.810  -0.743  -0.822  0.00  0.00    +0.149 HD
BRANCH  20  25
ATOM     24  C   UNL     1      -0.019   1.526   0.010  0.00  0.00    +0.033 C 
ATOM     25  C   UNL     1       0.002  -0.004   0.002  0.00  0.00    +0.100 C 
BRANCH  25  26
ATOM     26  C   UNL     1       0.707  -0.490  -1.238  0.00  0.00    -0.027 A 
ATOM     27  C   UNL     1       0.022  -0.518  -2.451  0.00  0.00    +0.006 A 
ATOM     28  C   UNL     1       0.630  -0.951  -3.589  0.00  0.00    +0.009 A 
ATOM     29  C   UNL     1       1.968  -1.378  -3.544  0.00  0.00    -0.018 A 
ATOM     30  C   UNL     1       2.629  -1.831  -4.698  0.00  0.00    +0.008 A 
ATOM     31  C   UNL     1       3.926  -2.236  -4.617  0.00  0.00    +0.001 A 
ATOM     32  C   UNL     1       4.611  -2.208  -3.403  0.00  0.00    +0.001 A 
ATOM     33  C   UNL     1       4.003  -1.776  -2.265  0.00  0.00    +0.008 A 
ATOM     34  C   UNL     1       2.665  -1.349  -2.310  0.00  0.00    -0.018 A 
ATOM     35  C   UNL     1       2.006  -0.890  -1.157  0.00  0.00    +0.014 A 
ENDBRANCH  25  26
ENDBRANCH  20  25
ENDBRANCH  19  21
ENDBRANCH   1  19
TORSDOF 6
