REMARK  Name = ZINC04885822
REMARK  10 active torsions:
REMARK  status: ('A' for Active; 'I' for Inactive)
REMARK    1  A    between atoms: C_1  and  C_2
REMARK    2  A    between atoms: C_2  and  C_3
REMARK    3  A    between atoms: C_3  and  C_4
REMARK    4  A    between atoms: C_4  and  C_30
REMARK    5  A    between atoms: C_9  and  C_11
REMARK    6  A    between atoms: C_14  and  C_17
REMARK    7  A    between atoms: N_20  and  C_23
REMARK    8  A    between atoms: C_26  and  C_29
REMARK    9  A    between atoms: C_30  and  O_32
REMARK   10  A    between atoms: O_32  and  C_33
REMARK                            x       y       z     vdW  Elec       q    Type
REMARK                         _______ _______ _______ _____ _____    ______ ____
ROOT
ATOM      1  C   UNL     1       1.710   2.598   1.330  0.00  0.00    +0.044 C 
ATOM      2  C   UNL     1       1.384   1.827   0.033  0.00  0.00    +0.086 C 
ATOM      3  C   UNL     1       2.237   0.533   0.115  0.00  0.00    +0.077 C 
ATOM      4  C   UNL     1       3.009   0.631   1.447  0.00  0.00    -0.027 C 
ATOM      5  C   UNL     1       1.199  -0.563   0.221  0.00  0.00    +0.229 C 
ATOM      6  O   UNL     1       1.438  -1.748   0.307  0.00  0.00    -0.275 OA
ATOM      7  N   UNL     1      -0.023  -0.019   0.205  0.00  0.00    -0.210 N 
ATOM      8  C   UNL     1      -0.037   1.315   0.102  0.00  0.00    +0.229 C 
ATOM      9  O   UNL     1      -1.033   2.005   0.065  0.00  0.00    -0.275 OA
ATOM     10  N   UNL     1       2.178   1.558   2.248  0.00  0.00    +0.395 N 
ATOM     11  H   UNL     1       1.378   1.056   2.652  0.00  0.00    -0.083 HD
ATOM     12  H   UNL     1       2.737   1.975   3.001  0.00  0.00    -0.083 HD
ENDROOT
BRANCH   4  13
ATOM     13  C   UNL     1       3.122  -0.727   2.090  0.00  0.00    -0.061 A 
ATOM     14  C   UNL     1       2.057  -1.243   2.805  0.00  0.00    +0.002 A 
ATOM     15  C   UNL     1       2.159  -2.491   3.391  0.00  0.00    +0.003 A 
ATOM     16  C   UNL     1       3.329  -3.217   3.272  0.00  0.00    -0.050 A 
ATOM     17  C   UNL     1       4.395  -2.699   2.561  0.00  0.00    +0.003 A 
ATOM     18  C   UNL     1       4.292  -1.453   1.971  0.00  0.00    +0.002 A 
ATOM     19  C   UNL     1       3.442  -4.575   3.916  0.00  0.00    +0.044 C 
ENDBRANCH   4  13
BRANCH   7  20
ATOM     20  C   UNL     1      -1.195  -0.785   0.289  0.00  0.00    +0.044 A 
ATOM     21  C   UNL     1      -2.003  -0.698   1.414  0.00  0.00    +0.024 A 
ATOM     22  C   UNL     1      -3.159  -1.450   1.492  0.00  0.00    +0.005 A 
ATOM     23  C   UNL     1      -3.506  -2.297   0.456  0.00  0.00    -0.050 A 
ATOM     24  C   UNL     1      -2.699  -2.391  -0.664  0.00  0.00    +0.005 A 
ATOM     25  C   UNL     1      -1.545  -1.637  -0.750  0.00  0.00    +0.024 A 
ATOM     26  C   UNL     1      -4.764  -3.122   0.547  0.00  0.00    +0.044 C 
ENDBRANCH   7  20
BRANCH   1  27
ATOM     27  C   UNL     1       0.475   3.283   1.857  0.00  0.00    +0.297 C 
ATOM     28  O   UNL     1       0.240   4.427   1.548  0.00  0.00    -0.252 OA
BRANCH  27  29
ATOM     29  O   UNL     1      -0.363   2.622   2.671  0.00  0.00    -0.469 OA
ATOM     30  C   UNL     1      -1.532   3.344   3.141  0.00  0.00    +0.280 C 
ENDBRANCH  27  29
ENDBRANCH   1  27
BRANCH   1  31
ATOM     31  C   UNL     1       2.821   3.619   1.079  0.00  0.00    -0.001 C 
BRANCH  31  33
ATOM     32  C   UNL     1       4.325   5.302   2.149  0.00  0.00    +0.004 C 
ATOM     33  C   UNL     1       3.213   4.281   2.401  0.00  0.00    -0.004 C 
ENDBRANCH  31  33
ENDBRANCH   1  31
TORSDOF 6
