REMARK  Name = ZINC40733752
REMARK  6 active torsions:
REMARK  status: ('A' for Active; 'I' for Inactive)
REMARK    1  A    between atoms: C_1  and  C_2
REMARK    2  A    between atoms: C_2  and  C_3
REMARK    3  A    between atoms: C_11  and  N_28
REMARK    4  A    between atoms: C_12  and  N_16
REMARK    5  A    between atoms: N_16  and  N_17
REMARK    6  A    between atoms: C_18  and  C_20
REMARK                            x       y       z     vdW  Elec       q    Type
REMARK                         _______ _______ _______ _____ _____    ______ ____
ROOT
ATOM      1  C   UNL     1       1.804   0.422   2.469  0.00  0.00    +0.075 C 
ATOM      2  C   UNL     1       0.444  -0.248   2.685  0.00  0.00    +0.022 C 
ATOM      3  C   UNL     1       0.616  -1.768   2.649  0.00  0.00    +0.003 C 
ATOM      4  C   UNL     1       1.150  -2.190   1.278  0.00  0.00    +0.019 C 
ATOM      5  C   UNL     1       2.518  -1.542   1.045  0.00  0.00    +0.107 C 
ATOM      6  N   UNL     1       2.393  -0.089   1.223  0.00  0.00    -0.311 N 
ATOM      7  C   UNL     1       2.820   0.786   0.231  0.00  0.00    +0.148 A 
ATOM      8  C   UNL     1       4.152   1.198   0.175  0.00  0.00    +0.107 A 
ATOM      9  C   UNL     1       4.528   2.077  -0.843  0.00  0.00    +0.161 A 
ATOM     10  N   UNL     1       3.608   2.486  -1.714  0.00  0.00    -0.217 NA
ATOM     11  C   UNL     1       2.361   2.072  -1.625  0.00  0.00    +0.225 A 
ATOM     12  N   UNL     1       1.966   1.239  -0.684  0.00  0.00    -0.219 NA
ENDROOT
BRANCH   8  13
ATOM     13  N   UNL     1       5.090   0.742   1.116  0.00  0.00    -0.353 N 
ATOM     14  H   UNL     1       4.799   0.197   1.864  0.00  0.00    +0.143 HD
ATOM     15  H   UNL     1       6.027   0.972   1.019  0.00  0.00    +0.143 HD
ENDBRANCH   8  13
BRANCH   1  17
ATOM     16  C   UNL     1       1.136   2.485   3.709  0.00  0.00    +0.006 C 
ATOM     17  C   UNL     1       1.620   1.937   2.365  0.00  0.00    +0.019 C 
ENDBRANCH   1  17
BRANCH   9  18
ATOM     18  N   UNL     1       5.842   2.519  -0.944  0.00  0.00    -0.247 N 
ATOM     19  H   UNL     1       6.506   2.217  -0.304  0.00  0.00    +0.172 HD
BRANCH  18  20
ATOM     20  N   UNL     1       6.207   3.401  -1.969  0.00  0.00    -0.231 N 
ATOM     21  C   UNL     1       7.481   3.830  -2.067  0.00  0.00    +0.262 C 
ATOM     22  O   UNL     1       8.313   3.452  -1.266  0.00  0.00    -0.269 OA
ATOM     23  H   UNL     1       5.543   3.704  -2.608  0.00  0.00    +0.173 HD
BRANCH  21  24
ATOM     24  C   UNL     1       7.866   4.760  -3.148  0.00  0.00    +0.057 A 
ATOM     25  C   UNL     1       6.911   5.202  -4.067  0.00  0.00    +0.016 A 
ATOM     26  C   UNL     1       7.276   6.070  -5.073  0.00  0.00    +0.021 A 
ATOM     27  C   UNL     1       8.588   6.505  -5.176  0.00  0.00    +0.042 A 
ATOM     28  C   UNL     1       9.540   6.072  -4.269  0.00  0.00    +0.040 A 
ATOM     29  C   UNL     1       9.186   5.207  -3.253  0.00  0.00    +0.054 A 
ATOM     30 CL   UNL     1      10.379   4.669  -2.112  0.00  0.00    -0.083 Cl
ATOM     31 CL   UNL     1       9.039   7.598  -6.447  0.00  0.00    -0.083 Cl
ENDBRANCH  21  24
ENDBRANCH  18  20
ENDBRANCH   9  18
TORSDOF 5
