REMARK  Name = ZINC38556213
REMARK  8 active torsions:
REMARK  status: ('A' for Active; 'I' for Inactive)
REMARK    1  A    between atoms: C_4  and  C_7
REMARK    2  A    between atoms: C_10  and  C_13
REMARK    3  A    between atoms: C_13  and  C_15
REMARK    4  A    between atoms: C_15  and  S_16
REMARK    5  A    between atoms: S_16  and  C_17
REMARK    6  A    between atoms: C_21  and  C_25
REMARK    7  A    between atoms: N_23  and  N_24
REMARK    8  A    between atoms: C_28  and  C_31
REMARK                            x       y       z     vdW  Elec       q    Type
REMARK                         _______ _______ _______ _____ _____    ______ ____
ROOT
ATOM      1  C   UNL     1       9.001  -6.641  -0.132  0.00  0.00    +0.214 C 
ATOM      2  N   UNL     1       8.214  -7.077  -1.308  0.00  0.00    -0.228 NA
ATOM      3  N   UNL     1       7.420  -8.214  -0.818  0.00  0.00    -0.234 NA
ATOM      4  C   UNL     1       7.055  -7.799   0.562  0.00  0.00    +0.185 C 
ATOM      5  N   UNL     1       8.263  -7.100   1.063  0.00  0.00    -0.197 NA
ATOM      6  H   UNL     1       7.616  -6.334  -1.639  0.00  0.00    +0.143 HD
ATOM      7  H   UNL     1       7.969  -9.061  -0.808  0.00  0.00    +0.143 HD
ENDROOT
BRANCH   4   8
ATOM      8  C   UNL     1       6.746  -9.024   1.425  0.00  0.00    +0.187 C 
ATOM      9  C   UNL     1       5.607  -9.829   0.826  0.00  0.00    +0.034 C 
ATOM     10  C   UNL     1       4.651  -9.790   1.773  0.00  0.00    +0.091 C 
ATOM     11  N   UNL     1       5.075  -9.071   2.846  0.00  0.00    -0.154 NA
ATOM     12  N   UNL     1       6.219  -8.615   2.738  0.00  0.00    -0.176 NA
BRANCH  10  13
ATOM     13  C   UNL     1       3.321 -10.438   1.661  0.00  0.00    +0.002 A 
ATOM     14  C   UNL     1       2.988 -11.159   0.515  0.00  0.00    +0.010 A 
ATOM     15  C   UNL     1       1.750 -11.760   0.417  0.00  0.00    +0.001 A 
ATOM     16  C   UNL     1       0.841 -11.650   1.453  0.00  0.00    +0.000 A 
ATOM     17  C   UNL     1       1.165 -10.937   2.593  0.00  0.00    +0.001 A 
ATOM     18  C   UNL     1       2.402 -10.335   2.704  0.00  0.00    +0.010 A 
ENDBRANCH  10  13
ENDBRANCH   4   8
BRANCH   5  19
ATOM     19  N   UNL     1       9.082  -7.988   1.872  0.00  0.00    -0.264 NA
ATOM     20  H   UNL     1       9.921  -7.522   2.183  0.00  0.00    +0.137 HD
ATOM     21  H   UNL     1       8.558  -8.351   2.654  0.00  0.00    +0.137 HD
ENDBRANCH   5  19
BRANCH   1  22
ATOM     22  S   UNL     1       9.145  -4.832  -0.117  0.00  0.00    -0.116 S 
BRANCH  22  23
ATOM     23  C   UNL     1       7.426  -4.255  -0.098  0.00  0.00    +0.151 C 
BRANCH  23  24
ATOM     24  C   UNL     1       7.402  -2.748  -0.084  0.00  0.00    +0.173 C 
ATOM     25  O   UNL     1       8.442  -2.125  -0.086  0.00  0.00    -0.291 OA
BRANCH  24  29
ATOM     26  C   UNL     1       3.698  -0.688  -0.037  0.00  0.00    -0.018 A 
ATOM     27  C   UNL     1       4.895   0.030  -0.040  0.00  0.00    +0.009 A 
ATOM     28  C   UNL     1       6.094  -0.634  -0.054  0.00  0.00    +0.012 A 
ATOM     29  C   UNL     1       6.117  -2.034  -0.068  0.00  0.00    +0.018 A 
ATOM     30  C   UNL     1       4.915  -2.752  -0.065  0.00  0.00    +0.012 A 
ATOM     31  C   UNL     1       3.719  -2.083  -0.045  0.00  0.00    +0.009 A 
BRANCH  26  35
ATOM     32  C   UNL     1      -0.017   1.379   0.010  0.00  0.00    +0.000 A 
ATOM     33  C   UNL     1       1.169   2.092   0.002  0.00  0.00    +0.001 A 
ATOM     34  C   UNL     1       2.377   1.427  -0.013  0.00  0.00    +0.008 A 
ATOM     35  C   UNL     1       2.403   0.033  -0.021  0.00  0.00    -0.018 A 
ATOM     36  C   UNL     1       1.205  -0.680  -0.013  0.00  0.00    +0.008 A 
ATOM     37  C   UNL     1       0.002  -0.004   0.002  0.00  0.00    +0.001 A 
ENDBRANCH  26  35
ENDBRANCH  24  29
ENDBRANCH  23  24
ENDBRANCH  22  23
ENDBRANCH   1  22
TORSDOF 8
