REMARK  Name = ZINC01383726
REMARK  8 active torsions:
REMARK  status: ('A' for Active; 'I' for Inactive)
REMARK    1  A    between atoms: C_1  and  C_2
REMARK    2  A    between atoms: C_5  and  C_8
REMARK    3  A    between atoms: N_9  and  N_10
REMARK    4  A    between atoms: C_11  and  C_13
REMARK    5  A    between atoms: C_13  and  C_15
REMARK    6  A    between atoms: C_13  and  N_23
REMARK    7  A    between atoms: C_15  and  C_16
REMARK    8  A    between atoms: C_19  and  O_22
REMARK                            x       y       z     vdW  Elec       q    Type
REMARK                         _______ _______ _______ _____ _____    ______ ____
ROOT
ATOM      1  C   UNL     1       2.465   1.524  -0.013  0.00  0.00    +0.168 C 
ENDROOT
BRANCH   1   2
ATOM      2  N   UNL     1       1.078   1.994   0.003  0.00  0.00    -0.281 N 
ATOM      3  C   UNL     1       0.652   3.399   0.014  0.00  0.00    +0.144 C 
ATOM      4  C   UNL     1      -0.856   3.382   0.028  0.00  0.00    -0.018 A 
ATOM      5  C   UNL     1      -1.810   4.374   0.042  0.00  0.00    +0.006 A 
ATOM      6  C   UNL     1      -3.154   4.041   0.053  0.00  0.00    +0.000 A 
ATOM      7  C   UNL     1      -3.541   2.712   0.049  0.00  0.00    +0.001 A 
ATOM      8  C   UNL     1      -2.594   1.710   0.035  0.00  0.00    +0.013 A 
ATOM      9  C   UNL     1      -1.236   2.038   0.018  0.00  0.00    +0.042 A 
ATOM     10  C   UNL     1      -0.014   1.211   0.009  0.00  0.00    +0.248 C 
ATOM     11  O   UNL     1       0.002  -0.004   0.002  0.00  0.00    -0.270 OA
ENDBRANCH   1   2
BRANCH   1  13
ATOM     12  N   UNL     1       3.988   0.475   1.630  0.00  0.00    -0.205 N 
ATOM     13  C   UNL     1       2.724   0.683   1.210  0.00  0.00    +0.253 C 
ATOM     14  O   UNL     1       1.795   0.192   1.816  0.00  0.00    -0.272 OA
ATOM     15  H   UNL     1       4.731   0.868   1.145  0.00  0.00    +0.177 HD
BRANCH  12  17
ATOM     16  C   UNL     1       5.446  -0.506   3.172  0.00  0.00    +0.138 C 
ATOM     17  N   UNL     1       4.229  -0.307   2.767  0.00  0.00    -0.188 NA
BRANCH  16  22
ATOM     18  C   UNL     1       6.434  -3.715   7.841  0.00  0.00    +0.044 C 
ATOM     19  C   UNL     1       6.175  -2.874   6.618  0.00  0.00    -0.050 A 
ATOM     20  C   UNL     1       7.237  -2.317   5.928  0.00  0.00    +0.004 A 
ATOM     21  C   UNL     1       7.007  -1.546   4.807  0.00  0.00    +0.010 A 
ATOM     22  C   UNL     1       5.699  -1.329   4.369  0.00  0.00    -0.005 A 
ATOM     23  C   UNL     1       4.631  -1.891   5.073  0.00  0.00    +0.010 A 
ATOM     24  C   UNL     1       4.876  -2.663   6.189  0.00  0.00    +0.004 A 
ENDBRANCH  16  22
ENDBRANCH  12  17
ENDBRANCH   1  13
BRANCH   1  25
ATOM     25  C   UNL     1       2.705   0.684  -1.270  0.00  0.00    +0.067 C 
BRANCH  25  26
ATOM     26  C   UNL     1       2.566   1.556  -2.491  0.00  0.00    -0.045 A 
ATOM     27  C   UNL     1       1.334   1.694  -3.104  0.00  0.00    +0.007 A 
ATOM     28  C   UNL     1       1.203   2.497  -4.220  0.00  0.00    +0.045 A 
ATOM     29  C   UNL     1       2.311   3.158  -4.732  0.00  0.00    +0.117 A 
ATOM     30  C   UNL     1       3.546   3.014  -4.118  0.00  0.00    +0.045 A 
ATOM     31  C   UNL     1       3.671   2.213  -2.999  0.00  0.00    +0.007 A 
BRANCH  29  32
ATOM     32  O   UNL     1       2.185   3.944  -5.833  0.00  0.00    -0.507 OA
ATOM     33  H   UNL     1       2.324   3.477  -6.668  0.00  0.00    +0.292 HD
ENDBRANCH  29  32
ENDBRANCH  25  26
ENDBRANCH   1  25
TORSDOF 7
