REMARK  Name = ZINC25063940
REMARK  2 active torsions:
REMARK  status: ('A' for Active; 'I' for Inactive)
REMARK    1  A    between atoms: C_6  and  C_7
REMARK    2  A    between atoms: C_8  and  C_13
REMARK                            x       y       z     vdW  Elec       q    Type
REMARK                         _______ _______ _______ _____ _____    ______ ____
ROOT
ATOM      1  C   UNL     1      -3.679  -0.784   0.017  0.00  0.00    +0.105 A 
ATOM      2  C   UNL     1      -4.916  -0.406   0.708  0.00  0.00    +0.082 A 
ATOM      3  C   UNL     1      -5.836  -1.395   0.428  0.00  0.00    +0.118 A 
ATOM      4  N   UNL     1      -5.236  -2.308  -0.351  0.00  0.00    -0.283 N 
ATOM      5  H   UNL     1      -5.793  -3.193  -0.691  0.00  0.00    +0.188 HD
ATOM      6  N   UNL     1      -3.915  -1.922  -0.595  0.00  0.00    -0.173 NA
ENDROOT
BRANCH   2   7
ATOM      7  C   UNL     1      -5.134   0.794   1.533  0.00  0.00    +0.253 C 
ATOM      8  O   UNL     1      -4.231   1.592   1.696  0.00  0.00    -0.270 OA
ATOM      9  N   UNL     1      -6.335   1.008   2.107  0.00  0.00    -0.261 N 
ATOM     10  C   UNL     1      -6.540   2.139   2.886  0.00  0.00    +0.165 A 
ATOM     11  N   UNL     1      -5.696   3.106   3.183  0.00  0.00    -0.229 NA
ATOM     12  C   UNL     1      -6.040   4.141   3.956  0.00  0.00    +0.054 A 
ATOM     13  C   UNL     1      -7.310   4.135   4.401  0.00  0.00    +0.014 A 
ATOM     14  S   UNL     1      -7.978   2.642   3.727  0.00  0.00    -0.057 S 
ATOM     15  C   UNL     1      -7.984   5.198   5.231  0.00  0.00    +0.044 C 
ATOM     16  C   UNL     1      -7.315   5.178   6.619  0.00  0.00    +0.005 C 
ATOM     17  C   UNL     1      -5.990   5.901   6.568  0.00  0.00    +0.001 C 
ATOM     18  C   UNL     1      -4.866   5.205   5.845  0.00  0.00    +0.006 C 
ATOM     19  C   UNL     1      -5.051   5.248   4.325  0.00  0.00    +0.056 C 
ATOM     20  H   UNL     1      -7.152   0.286   1.959  0.00  0.00    +0.157 HD
ENDBRANCH   2   7
BRANCH   1  26
ATOM     21  C   UNL     1      -2.416   1.365   0.026  0.00  0.00    +0.014 A 
ATOM     22  C   UNL     1      -1.228   2.065   0.019  0.00  0.00    +0.050 A 
ATOM     23  C   UNL     1      -0.017   1.387   0.010  0.00  0.00    +0.162 A 
ATOM     24  C   UNL     1       0.002  -0.004   0.002  0.00  0.00    +0.163 A 
ATOM     25  C   UNL     1      -1.188  -0.711   0.004  0.00  0.00    +0.059 A 
ATOM     26  C   UNL     1      -2.403  -0.029   0.016  0.00  0.00    +0.007 A 
ATOM     27  O   UNL     1       1.181  -0.685  -0.006  0.00  0.00    -0.485 OA
ATOM     28  C   UNL     1       2.347   0.054  -0.387  0.00  0.00    +0.270 C 
ATOM     29  C   UNL     1       2.335   1.392   0.365  0.00  0.00    +0.270 C 
ATOM     30  O   UNL     1       1.144   2.099   0.002  0.00  0.00    -0.485 OA
ENDBRANCH   1  26
TORSDOF 2
