REMARK  Name = ZINC03415496
REMARK  12 active torsions:
REMARK  status: ('A' for Active; 'I' for Inactive)
REMARK    1  A    between atoms: C_1  and  C_2
REMARK    2  A    between atoms: C_2  and  C_3
REMARK    3  A    between atoms: C_3  and  N_4
REMARK    4  A    between atoms: N_4  and  C_5
REMARK    5  A    between atoms: N_4  and  C_18
REMARK    6  A    between atoms: C_5  and  C_6
REMARK    7  A    between atoms: N_8  and  C_9
REMARK    8  A    between atoms: C_18  and  C_19
REMARK    9  A    between atoms: N_21  and  C_22
REMARK   10  A    between atoms: C_23  and  C_35
REMARK   11  A    between atoms: N_24  and  C_34
REMARK   12  A    between atoms: N_25  and  C_28
REMARK                            x       y       z     vdW  Elec       q    Type
REMARK                         _______ _______ _______ _____ _____    ______ ____
ROOT
ATOM      1  N   UNL     1       0.194   0.155  -1.013  0.00  0.00    +0.391 N 
ATOM      2  H   UNL     1      -0.323   1.016  -0.915  0.00  0.00    -0.080 HD
ENDROOT
BRANCH   1   3
ATOM      3  C   UNL     1       0.972   0.191  -2.259  0.00  0.00    -0.078 C 
BRANCH   3   5
ATOM      4  C   UNL     1       0.860   0.636  -4.715  0.00  0.00    +0.002 C 
ATOM      5  C   UNL     1       0.036   0.467  -3.437  0.00  0.00    -0.022 C 
ENDBRANCH   3   5
ENDBRANCH   1   3
BRANCH   1   6
ATOM      6  C   UNL     1       1.105  -0.002   0.128  0.00  0.00    +0.020 C 
BRANCH   6   7
ATOM      7  C   UNL     1       1.984   1.218   0.241  0.00  0.00    +0.201 C 
ATOM      8  O   UNL     1       1.863   2.128  -0.552  0.00  0.00    -0.278 OA
ATOM      9  N   UNL     1       2.905   1.296   1.222  0.00  0.00    -0.285 N 
ATOM     10  H   UNL     1       2.957   0.600   1.895  0.00  0.00    +0.155 HD
BRANCH   9  11
ATOM     11  C   UNL     1       3.786   2.385   1.271  0.00  0.00    +0.072 A 
ATOM     12  C   UNL     1       3.378   3.631   0.813  0.00  0.00    +0.029 A 
ATOM     13  C   UNL     1       4.247   4.703   0.861  0.00  0.00    +0.043 A 
ATOM     14  C   UNL     1       5.526   4.539   1.365  0.00  0.00    +0.161 A 
ATOM     15  C   UNL     1       5.938   3.297   1.823  0.00  0.00    +0.195 A 
ATOM     16  C   UNL     1       5.067   2.221   1.783  0.00  0.00    +0.182 A 
ATOM     17  F   UNL     1       5.465   1.012   2.235  0.00  0.00    -0.200 F 
ATOM     18  F   UNL     1       7.186   3.139   2.315  0.00  0.00    -0.199 F 
ATOM     19  F   UNL     1       6.373   5.590   1.410  0.00  0.00    -0.202 F 
ENDBRANCH   9  11
ENDBRANCH   6   7
ENDBRANCH   1   6
BRANCH   1  20
ATOM     20  C   UNL     1      -0.742  -0.976  -1.052  0.00  0.00    +0.020 C 
BRANCH  20  21
ATOM     21  C   UNL     1      -1.643  -0.924   0.155  0.00  0.00    +0.201 C 
ATOM     22  O   UNL     1      -1.591   0.024   0.910  0.00  0.00    -0.278 OA
ATOM     23  N   UNL     1      -2.506  -1.931   0.395  0.00  0.00    -0.281 N 
ATOM     24  H   UNL     1      -2.497  -2.722  -0.167  0.00  0.00    +0.155 HD
BRANCH  23  25
ATOM     25  C   UNL     1      -3.421  -1.835   1.462  0.00  0.00    +0.121 A 
ATOM     26  C   UNL     1      -4.768  -1.893   1.371  0.00  0.00    +0.059 A 
ATOM     27  N   UNL     1      -5.298  -1.761   2.627  0.00  0.00    -0.282 N 
ATOM     28  N   UNL     1      -4.257  -1.613   3.551  0.00  0.00    -0.216 N 
ATOM     29  C   UNL     1      -3.089  -1.659   2.877  0.00  0.00    +0.293 A 
ATOM     30  O   UNL     1      -1.972  -1.569   3.354  0.00  0.00    -0.264 OA
ATOM     31  C   UNL     1      -6.726  -1.772   2.953  0.00  0.00    +0.171 C 
ATOM     32  C   UNL     1      -5.556  -2.074   0.099  0.00  0.00    +0.067 C 
BRANCH  28  33
ATOM     33  C   UNL     1      -4.402  -1.451   4.933  0.00  0.00    +0.067 A 
ATOM     34  C   UNL     1      -3.711  -0.442   5.591  0.00  0.00    +0.028 A 
ATOM     35  C   UNL     1      -3.856  -0.285   6.956  0.00  0.00    +0.002 A 
ATOM     36  C   UNL     1      -4.688  -1.131   7.666  0.00  0.00    +0.000 A 
ATOM     37  C   UNL     1      -5.377  -2.137   7.013  0.00  0.00    +0.002 A 
ATOM     38  C   UNL     1      -5.241  -2.296   5.648  0.00  0.00    +0.028 A 
ENDBRANCH  28  33
ENDBRANCH  23  25
ENDBRANCH  20  21
ENDBRANCH   1  20
TORSDOF 9
