REMARK  Name = ZINC64813864
REMARK  8 active torsions:
REMARK  status: ('A' for Active; 'I' for Inactive)
REMARK    1  A    between atoms: C_1  and  C_2
REMARK    2  A    between atoms: C_5  and  C_8
REMARK    3  A    between atoms: N_14  and  C_33
REMARK    4  A    between atoms: C_15  and  C_32
REMARK    5  A    between atoms: C_16  and  C_19
REMARK    6  A    between atoms: C_19  and  C_20
REMARK    7  A    between atoms: N_22  and  C_23
REMARK    8  A    between atoms: C_33  and  C_34
REMARK                            x       y       z     vdW  Elec       q    Type
REMARK                         _______ _______ _______ _____ _____    ______ ____
ROOT
ATOM      1  C   UNL     1       0.454  -4.351   0.043  0.00  0.00    +0.147 C 
ATOM      2  N   UNL     1       0.289  -5.022  -1.058  0.00  0.00    -0.158 NA
ATOM      3  N   UNL     1       0.088  -6.366  -0.789  0.00  0.00    -0.150 N 
ATOM      4  C   UNL     1       0.443  -6.556   0.640  0.00  0.00    +0.279 C 
ATOM      5  N   UNL     1       0.463  -5.187   1.157  0.00  0.00    -0.293 N 
ATOM      6  N   UNL     1      -0.628  -7.383   1.210  0.00  0.00    -0.295 N 
ATOM      7  C   UNL     1      -1.012  -8.489   0.484  0.00  0.00    +0.015 C 
ATOM      8  C   UNL     1      -0.876  -8.515  -0.859  0.00  0.00    +0.042 C 
ATOM      9  C   UNL     1      -0.360  -7.385  -1.544  0.00  0.00    +0.267 C 
ATOM     10  O   UNL     1      -0.299  -7.356  -2.760  0.00  0.00    -0.268 OA
ATOM     11  C   UNL     1      -1.588  -9.685   1.198  0.00  0.00    +0.061 C 
ATOM     12  H   UNL     1       0.476  -4.916   2.089  0.00  0.00    +0.151 HD
ENDROOT
BRANCH   1  17
ATOM     13  C   UNL     1       1.094   1.364   0.280  0.00  0.00    +0.044 C 
ATOM     14  C   UNL     1       0.927  -0.133   0.218  0.00  0.00    -0.050 A 
ATOM     15  C   UNL     1       0.751  -0.756  -1.005  0.00  0.00    +0.004 A 
ATOM     16  C   UNL     1       0.597  -2.125  -1.069  0.00  0.00    +0.011 A 
ATOM     17  C   UNL     1       0.619  -2.882   0.104  0.00  0.00    +0.016 A 
ATOM     18  C   UNL     1       0.797  -2.248   1.334  0.00  0.00    +0.011 A 
ATOM     19  C   UNL     1       0.955  -0.878   1.383  0.00  0.00    +0.004 A 
ENDBRANCH   1  17
BRANCH   8  20
ATOM     20  C   UNL     1      -1.291  -9.740  -1.631  0.00  0.00    +0.137 C 
BRANCH  20  21
ATOM     21  C   UNL     1      -0.095 -10.633  -1.837  0.00  0.00    +0.220 C 
ATOM     22  O   UNL     1       0.988 -10.306  -1.400  0.00  0.00    -0.275 OA
ATOM     23  N   UNL     1      -0.228 -11.794  -2.508  0.00  0.00    -0.278 N 
ATOM     24  H   UNL     1      -1.095 -12.056  -2.857  0.00  0.00    +0.152 HD
BRANCH  23  25
ATOM     25  C   UNL     1       0.935 -12.662  -2.709  0.00  0.00    +0.269 C 
ATOM     26  N   UNL     1       1.223 -13.411  -1.479  0.00  0.00    -0.348 N 
ATOM     27  C   UNL     1       1.116 -14.678  -1.758  0.00  0.00    +0.061 A 
ATOM     28  C   UNL     1       1.284 -15.896  -0.954  0.00  0.00    +0.027 A 
ATOM     29  C   UNL     1       1.104 -17.102  -1.528  0.00  0.00    +0.002 A 
ATOM     30  C   UNL     1       0.757 -17.253  -2.883  0.00  0.00    +0.002 A 
ATOM     31  C   UNL     1       0.580 -16.202  -3.709  0.00  0.00    +0.027 A 
ATOM     32  C   UNL     1       0.750 -14.837  -3.192  0.00  0.00    +0.061 A 
ATOM     33  N   UNL     1       0.644 -13.663  -3.744  0.00  0.00    -0.348 N 
ATOM     34  H   UNL     1       1.452 -13.031  -0.616  0.00  0.00    +0.163 HD
ATOM     35  H   UNL     1       0.416 -13.481  -4.669  0.00  0.00    +0.163 HD
ENDBRANCH  23  25
ENDBRANCH  20  21
ENDBRANCH   8  20
BRANCH   6  36
ATOM     36  C   UNL     1      -1.259  -7.047   2.489  0.00  0.00    +0.135 C 
BRANCH  36  37
ATOM     37  C   UNL     1      -2.443  -6.148   2.244  0.00  0.00    -0.016 C 
ATOM     38  C   UNL     1      -3.625  -6.481   2.702  0.00  0.00    +0.005 C 
ENDBRANCH  36  37
ENDBRANCH   6  36
TORSDOF 6
