REMARK  Name = ZINC14998237
REMARK  11 active torsions:
REMARK  status: ('A' for Active; 'I' for Inactive)
REMARK    1  A    between atoms: C_1  and  N_2
REMARK    2  A    between atoms: N_2  and  C_3
REMARK    3  A    between atoms: N_2  and  C_29
REMARK    4  A    between atoms: C_3  and  C_4
REMARK    5  A    between atoms: C_8  and  O_10
REMARK    6  A    between atoms: O_10  and  C_11
REMARK    7  A    between atoms: C_11  and  C_12
REMARK    8  A    between atoms: C_12  and  N_13
REMARK    9  A    between atoms: N_16  and  S_19
REMARK   10  A    between atoms: S_19  and  C_22
REMARK   11  A    between atoms: C_29  and  C_30
REMARK                            x       y       z     vdW  Elec       q    Type
REMARK                         _______ _______ _______ _____ _____    ______ ____
ROOT
ATOM      1  C   UNL     1      -2.306  -0.350   0.021  0.00  0.00    +0.244 C 
ENDROOT
BRANCH   1   2
ATOM      2  O   UNL     1      -2.413   1.069   0.157  0.00  0.00    -0.491 OA
BRANCH   2   7
ATOM      3  C   UNL     1      -0.101   3.872   0.332  0.00  0.00    -0.060 A 
ATOM      4  C   UNL     1       1.111   3.213   0.222  0.00  0.00    +0.002 A 
ATOM      5  C   UNL     1       1.143   1.837   0.095  0.00  0.00    +0.004 A 
ATOM      6  C   UNL     1      -0.036   1.116   0.076  0.00  0.00    +0.045 A 
ATOM      7  C   UNL     1      -1.252   1.775   0.180  0.00  0.00    +0.121 A 
ATOM      8  C   UNL     1      -1.281   3.156   0.314  0.00  0.00    +0.047 A 
BRANCH   3   9
ATOM      9  C   UNL     1      -0.132   5.372   0.471  0.00  0.00    -0.043 C 
BRANCH   9  11
ATOM     10  C   UNL     1       1.034   5.731  -1.620  0.00  0.00    -0.095 C 
ATOM     11  N   UNL     1      -0.198   5.986  -0.862  0.00  0.00    +0.384 N 
ATOM     12  H   UNL     1      -1.033   5.522  -1.407  0.00  0.00    -0.081 HD
BRANCH  11  13
ATOM     13  C   UNL     1      -0.468   7.427  -0.764  0.00  0.00    -0.036 C 
BRANCH  13  14
ATOM     14  C   UNL     1      -0.772   7.975  -2.135  0.00  0.00    -0.027 A 
ATOM     15  C   UNL     1      -1.966   8.078  -2.768  0.00  0.00    +0.009 A 
ATOM     16  C   UNL     1      -2.007   8.624  -4.037  0.00  0.00    +0.008 A 
ATOM     17  C   UNL     1      -0.851   9.029  -4.616  0.00  0.00    +0.045 A 
ATOM     18  S   UNL     1       0.349   8.648  -3.350  0.00  0.00    -0.103 S 
ENDBRANCH  13  14
ENDBRANCH  11  13
ENDBRANCH   9  11
ENDBRANCH   3   9
ENDBRANCH   2   7
ENDBRANCH   1   2
BRANCH   1  19
ATOM     19  C   UNL     1      -3.706  -0.968   0.014  0.00  0.00    +0.125 C 
BRANCH  19  20
ATOM     20  N   UNL     1      -4.434  -0.517  -1.179  0.00  0.00    -0.297 NA
ATOM     21  C   UNL     1      -5.884  -0.677  -1.003  0.00  0.00    +0.101 C 
ATOM     22  C   UNL     1      -6.613  -0.033  -2.187  0.00  0.00    +0.125 C 
ATOM     23  N   UNL     1      -6.072  -0.598  -3.432  0.00  0.00    -0.174 NA
ATOM     24  C   UNL     1      -4.614  -0.599  -3.620  0.00  0.00    +0.125 C 
ATOM     25  C   UNL     1      -3.963  -1.221  -2.380  0.00  0.00    +0.101 C 
BRANCH  23  26
ATOM     26  S   UNL     1      -7.079  -1.218  -4.592  0.00  0.00    +0.061 S 
ATOM     27  O   UNL     1      -8.343  -0.595  -4.407  0.00  0.00    -0.153 OA
ATOM     28  O   UNL     1      -6.370  -1.153  -5.822  0.00  0.00    -0.153 OA
BRANCH  26  29
ATOM     29  C   UNL     1      -7.303  -2.927  -4.228  0.00  0.00    +0.107 A 
ATOM     30  C   UNL     1      -6.446  -3.867  -4.770  0.00  0.00    +0.028 A 
ATOM     31  C   UNL     1      -6.617  -5.208  -4.481  0.00  0.00    +0.003 A 
ATOM     32  C   UNL     1      -7.653  -5.611  -3.659  0.00  0.00    +0.020 A 
ATOM     33  C   UNL     1      -8.514  -4.671  -3.120  0.00  0.00    +0.043 A 
ATOM     34  C   UNL     1      -8.338  -3.329  -3.406  0.00  0.00    +0.048 A 
ATOM     35 CL   UNL     1      -9.815  -5.177  -2.088  0.00  0.00    -0.083 Cl
ENDBRANCH  26  29
ENDBRANCH  23  26
ENDBRANCH  19  20
ENDBRANCH   1  19
TORSDOF 10
