REMARK  Name = ZINC08644498
REMARK  6 active torsions:
REMARK  status: ('A' for Active; 'I' for Inactive)
REMARK    1  A    between atoms: C_3  and  C_9
REMARK    2  A    between atoms: C_12  and  S_15
REMARK    3  A    between atoms: N_13  and  N_14
REMARK    4  A    between atoms: S_15  and  C_16
REMARK    5  A    between atoms: C_16  and  C_17
REMARK    6  A    between atoms: N_22  and  C_23
REMARK                            x       y       z     vdW  Elec       q    Type
REMARK                         _______ _______ _______ _____ _____    ______ ____
ROOT
ATOM      1  C   UNL     1      -0.025  -1.932  -3.593  0.00  0.00    +0.173 C 
ENDROOT
BRANCH   1   2
ATOM      2  C   UNL     1      -0.050  -1.741  -5.087  0.00  0.00    +0.231 C 
ATOM      3  O   UNL     1      -0.071  -0.623  -5.555  0.00  0.00    -0.274 OA
ATOM      4  N   UNL     1      -0.048  -2.814  -5.904  0.00  0.00    -0.239 N 
ATOM      5  C   UNL     1      -0.069  -2.643  -7.240  0.00  0.00    +0.306 C 
ATOM      6  O   UNL     1      -0.091  -1.522  -7.710  0.00  0.00    -0.252 OA
ATOM      7  N   UNL     1      -0.067  -3.716  -8.057  0.00  0.00    -0.294 N 
ATOM      8  H   UNL     1      -0.030  -3.708  -5.529  0.00  0.00    +0.159 HD
ATOM      9  H   UNL     1      -0.050  -4.610  -7.682  0.00  0.00    +0.151 HD
BRANCH   7  10
ATOM     10  C   UNL     1      -0.091  -3.530  -9.510  0.00  0.00    +0.037 C 
ATOM     11  C   UNL     1      -1.356  -2.767  -9.906  0.00  0.00    +0.029 C 
ATOM     12  C   UNL     1      -1.381  -2.573 -11.423  0.00  0.00    -0.008 C 
ATOM     13  C   UNL     1      -1.373  -3.939 -12.112  0.00  0.00    +0.007 C 
ATOM     14  C   UNL     1      -0.108  -4.702 -11.716  0.00  0.00    -0.008 C 
ATOM     15  C   UNL     1      -0.083  -4.896 -10.198  0.00  0.00    +0.029 C 
ATOM     16  C   UNL     1       1.125  -3.906 -12.149  0.00  0.00    +0.007 C 
ATOM     17  C   UNL     1       1.117  -2.540 -11.460  0.00  0.00    -0.008 C 
ATOM     18  C   UNL     1      -0.148  -1.776 -11.856  0.00  0.00    +0.007 C 
ATOM     19  C   UNL     1       1.142  -2.734  -9.942  0.00  0.00    +0.029 C 
ENDBRANCH   7  10
ENDBRANCH   1   2
BRANCH   1  20
ATOM     20  S   UNL     1      -0.035  -0.316  -2.778  0.00  0.00    -0.075 S 
BRANCH  20  24
ATOM     21  C   UNL     1       0.024  -0.841   1.094  0.00  0.00    +0.183 A 
ATOM     22  N   UNL     1       0.035  -2.071   0.635  0.00  0.00    -0.127 NA
ATOM     23  N   UNL     1       0.023  -2.061  -0.649  0.00  0.00    -0.121 NA
ATOM     24  C   UNL     1      -0.003  -0.824  -1.091  0.00  0.00    +0.209 A 
ATOM     25  N   UNL     1       0.002  -0.004   0.002  0.00  0.00    -0.224 N 
BRANCH  21  28
ATOM     26  C   UNL     1       0.029   1.296   4.181  0.00  0.00    +0.021 A 
ATOM     27  C   UNL     1       0.025   0.921   2.854  0.00  0.00    +0.014 A 
ATOM     28  C   UNL     1       0.033  -0.432   2.514  0.00  0.00    +0.039 A 
ATOM     29  C   UNL     1       0.056  -1.400   3.522  0.00  0.00    +0.053 A 
ATOM     30  C   UNL     1       0.064  -1.011   4.847  0.00  0.00    +0.040 A 
ATOM     31  C   UNL     1       0.051   0.334   5.176  0.00  0.00    +0.042 A 
ATOM     32 CL   UNL     1       0.063   0.815   6.845  0.00  0.00    -0.083 Cl
ATOM     33 CL   UNL     1       0.073  -3.086   3.110  0.00  0.00    -0.083 Cl
ENDBRANCH  21  28
BRANCH  25  34
ATOM     34  N   UNL     1      -0.016   1.362   0.009  0.00  0.00    -0.295 N 
ATOM     35  H   UNL     1       0.920   1.736   0.003  0.00  0.00    +0.163 HD
ATOM     36  H   UNL     1      -0.555   1.720  -0.765  0.00  0.00    +0.163 HD
ENDBRANCH  25  34
ENDBRANCH  20  24
ENDBRANCH   1  20
TORSDOF 6
