REMARK  Name = ZINC11785266
REMARK  12 active torsions:
REMARK  status: ('A' for Active; 'I' for Inactive)
REMARK    1  A    between atoms: C_1  and  C_2
REMARK    2  A    between atoms: C_3  and  C_18
REMARK    3  A    between atoms: C_5  and  C_7
REMARK    4  A    between atoms: C_12  and  N_13
REMARK    5  A    between atoms: N_13  and  S_14
REMARK    6  A    between atoms: S_14  and  C_17
REMARK    7  A    between atoms: C_18  and  N_59
REMARK    8  A    between atoms: C_19  and  N_59
REMARK    9  A    between atoms: C_20  and  C_21
REMARK   10  A    between atoms: C_20  and  N_59
REMARK   11  A    between atoms: C_24  and  O_27
REMARK   12  A    between atoms: O_27  and  C_28
REMARK                            x       y       z     vdW  Elec       q    Type
REMARK                         _______ _______ _______ _____ _____    ______ ____
ROOT
ATOM      1  C   UNL     1      -4.437  -1.977  -0.287  0.00  0.00    +0.088 C 
ATOM      2  C   UNL     1      -3.937  -0.573  -0.064  0.00  0.00    +0.124 A 
ATOM      3  C   UNL     1      -4.693   0.520   0.141  0.00  0.00    +0.066 A 
ATOM      4  N   UNL     1      -3.869   1.568   0.295  0.00  0.00    -0.216 NA
ATOM      5  C   UNL     1      -2.630   1.146   0.189  0.00  0.00    +0.229 A 
ATOM      6  O   UNL     1      -2.647  -0.179  -0.039  0.00  0.00    -0.440 OA
ENDROOT
BRANCH   5   7
ATOM      7  C   UNL     1      -1.421   1.986   0.297  0.00  0.00    +0.059 A 
ATOM      8  C   UNL     1      -1.537   3.357   0.536  0.00  0.00    +0.015 A 
ATOM      9  C   UNL     1      -0.405   4.137   0.631  0.00  0.00    +0.001 A 
ATOM     10  C   UNL     1       0.850   3.568   0.494  0.00  0.00    +0.002 A 
ATOM     11  C   UNL     1       0.981   2.212   0.263  0.00  0.00    +0.025 A 
ATOM     12  C   UNL     1      -0.148   1.412   0.165  0.00  0.00    +0.060 A 
BRANCH  12  13
ATOM     13  N   UNL     1      -0.019   0.045  -0.068  0.00  0.00    -0.220 N 
ATOM     14  H   UNL     1      -0.669  -0.417  -0.621  0.00  0.00    +0.173 HD
BRANCH  13  15
ATOM     15  S   UNL     1       1.245  -0.793   0.597  0.00  0.00    +0.040 S 
ATOM     16  O   UNL     1       1.009  -2.148   0.242  0.00  0.00    -0.155 OA
ATOM     17  O   UNL     1       2.409  -0.116   0.141  0.00  0.00    -0.155 OA
ATOM     18  C   UNL     1       1.057  -0.575   2.388  0.00  0.00    +0.218 C 
ENDBRANCH  13  15
ENDBRANCH  12  13
ENDBRANCH   5   7
BRANCH   3  19
ATOM     19  C   UNL     1      -6.199   0.560   0.189  0.00  0.00    -0.019 C 
BRANCH  19  21
ATOM     20  C   UNL     1      -6.355   2.142  -1.637  0.00  0.00    -0.095 C 
ATOM     21  N   UNL     1      -6.714   0.784  -1.178  0.00  0.00    +0.384 N 
ATOM     22  H   UNL     1      -6.290   0.095  -1.811  0.00  0.00    -0.081 HD
BRANCH  21  23
ATOM     23  C   UNL     1      -8.182   0.615  -1.198  0.00  0.00    -0.043 C 
BRANCH  23  24
ATOM     24  C   UNL     1      -8.653   0.629  -2.630  0.00  0.00    -0.064 A 
ATOM     25  C   UNL     1      -9.029   1.821  -3.221  0.00  0.00    +0.005 A 
ATOM     26  C   UNL     1      -9.456   1.837  -4.535  0.00  0.00    +0.046 A 
ATOM     27  C   UNL     1      -9.518   0.655  -5.258  0.00  0.00    +0.132 A 
ATOM     28  C   UNL     1      -9.145  -0.541  -4.660  0.00  0.00    +0.046 A 
ATOM     29  C   UNL     1      -8.714  -0.551  -3.348  0.00  0.00    +0.005 A 
BRANCH  27  30
ATOM     30  O   UNL     1      -9.942   0.667  -6.549  0.00  0.00    -0.424 OA
BRANCH  30  31
ATOM     31  C   UNL     1     -11.191   0.213  -6.812  0.00  0.00    +0.323 A 
ATOM     32  N   UNL     1     -11.905  -0.318  -5.833  0.00  0.00    -0.203 NA
ATOM     33  C   UNL     1     -13.129  -0.766  -6.054  0.00  0.00    +0.118 A 
ATOM     34  C   UNL     1     -13.658  -0.684  -7.333  0.00  0.00    +0.040 A 
ATOM     35  C   UNL     1     -12.880  -0.127  -8.336  0.00  0.00    +0.118 A 
ATOM     36  N   UNL     1     -11.665   0.306  -8.044  0.00  0.00    -0.203 NA
ENDBRANCH  30  31
ENDBRANCH  27  30
ENDBRANCH  23  24
ENDBRANCH  21  23
ENDBRANCH  19  21
ENDBRANCH   3  19
TORSDOF 9
