REMARK  Name = ZINC38703357
REMARK  7 active torsions:
REMARK  status: ('A' for Active; 'I' for Inactive)
REMARK    1  A    between atoms: C_1  and  C_2
REMARK    2  A    between atoms: C_2  and  O_3
REMARK    3  A    between atoms: O_3  and  C_4
REMARK    4  A    between atoms: C_6  and  C_11
REMARK    5  A    between atoms: C_9  and  O_10
REMARK    6  A    between atoms: C_17  and  C_28
REMARK    7  A    between atoms: C_19  and  C_27
REMARK                            x       y       z     vdW  Elec       q    Type
REMARK                         _______ _______ _______ _____ _____    ______ ____
ROOT
ATOM      1  C   UNL     1      -0.217  -4.963  -0.535  0.00  0.00    +0.142 C 
ATOM      2  C   UNL     1       0.855  -5.469  -1.443  0.00  0.00    +0.072 A 
ATOM      3  C   UNL     1       1.766  -4.763  -2.351  0.00  0.00    +0.199 A 
ATOM      4  O   UNL     1       1.886  -3.551  -2.365  0.00  0.00    -0.287 OA
ATOM      5  C   UNL     1       2.528  -5.667  -3.249  0.00  0.00    +0.067 A 
ATOM      6  C   UNL     1       3.283  -5.146  -4.300  0.00  0.00    -0.036 A 
ATOM      7  C   UNL     1       3.975  -5.992  -5.122  0.00  0.00    +0.007 A 
ATOM      8  C   UNL     1       3.927  -7.363  -4.913  0.00  0.00    -0.047 A 
ATOM      9  C   UNL     1       3.188  -7.894  -3.880  0.00  0.00    +0.050 A 
ATOM     10  C   UNL     1       2.475  -7.052  -3.026  0.00  0.00    +0.140 A 
ATOM     11  O   UNL     1       1.764  -7.595  -2.012  0.00  0.00    -0.450 OA
ATOM     12  C   UNL     1       0.894  -6.829  -1.324  0.00  0.00    +0.199 A 
ATOM     13  C   UNL     1      -0.138  -7.238  -0.356  0.00  0.00    +0.281 C 
ATOM     14  O   UNL     1      -0.368  -8.385  -0.025  0.00  0.00    -0.267 OA
ATOM     15  N   UNL     1      -0.793  -6.153   0.111  0.00  0.00    -0.298 N 
ATOM     16  C   UNL     1       4.693  -8.282  -5.830  0.00  0.00    +0.044 C 
ATOM     17  C   UNL     1       3.335  -3.657  -4.529  0.00  0.00    +0.044 C 
ATOM     18  H   UNL     1      -1.516  -6.157   0.758  0.00  0.00    +0.150 HD
ENDROOT
BRANCH   1  21
ATOM     19  C   UNL     1       0.802  -1.825   1.306  0.00  0.00    +0.162 A 
ATOM     20  C   UNL     1       0.261  -2.673   0.353  0.00  0.00    +0.055 A 
ATOM     21  C   UNL     1       0.372  -4.043   0.502  0.00  0.00    -0.019 A 
ATOM     22  C   UNL     1       1.024  -4.570   1.602  0.00  0.00    +0.009 A 
ATOM     23  C   UNL     1       1.566  -3.730   2.557  0.00  0.00    +0.049 A 
ATOM     24  C   UNL     1       1.462  -2.356   2.410  0.00  0.00    +0.158 A 
BRANCH  24  25
ATOM     25  O   UNL     1       2.000  -1.528   3.345  0.00  0.00    -0.503 OA
ATOM     26  H   UNL     1       1.395  -1.301   4.064  0.00  0.00    +0.292 HD
ENDBRANCH  24  25
BRANCH  19  27
ATOM     27  O   UNL     1       0.693  -0.477   1.160  0.00  0.00    -0.489 OA
BRANCH  27  29
ATOM     28  C   UNL     1      -0.019   1.526   0.010  0.00  0.00    +0.048 C 
ATOM     29  C   UNL     1       0.002  -0.004   0.002  0.00  0.00    +0.226 C 
ENDBRANCH  27  29
ENDBRANCH  19  27
ENDBRANCH   1  21
TORSDOF 4
