REMARK  Name = ZINC35354302
REMARK  7 active torsions:
REMARK  status: ('A' for Active; 'I' for Inactive)
REMARK    1  A    between atoms: C_1  and  C_2
REMARK    2  A    between atoms: C_5  and  N_9
REMARK    3  A    between atoms: C_7  and  C_8
REMARK    4  A    between atoms: N_9  and  S_10
REMARK    5  A    between atoms: S_10  and  C_13
REMARK    6  A    between atoms: C_16  and  N_19
REMARK    7  A    between atoms: N_19  and  N_20
REMARK                            x       y       z     vdW  Elec       q    Type
REMARK                         _______ _______ _______ _____ _____    ______ ____
ROOT
ATOM      1  S   UNL     1       1.078  -4.976  -1.044  0.00  0.00    +0.072 S 
ATOM      2  O   UNL     1       0.884  -6.362  -0.799  0.00  0.00    -0.150 OA
ATOM      3  O   UNL     1       0.904  -4.399  -2.331  0.00  0.00    -0.150 OA
ENDROOT
BRANCH   1   4
ATOM      4  C   UNL     1       2.725  -4.602  -0.542  0.00  0.00    +0.109 A 
ATOM      5  C   UNL     1       3.377  -3.507  -1.079  0.00  0.00    +0.030 A 
ATOM      6  C   UNL     1       4.668  -3.210  -0.688  0.00  0.00    +0.026 A 
ATOM      7  C   UNL     1       5.311  -4.013   0.246  0.00  0.00    +0.041 A 
ATOM      8  C   UNL     1       4.653  -5.112   0.783  0.00  0.00    +0.026 A 
ATOM      9  C   UNL     1       3.360  -5.400   0.391  0.00  0.00    +0.030 A 
BRANCH   7  10
ATOM     10  N   UNL     1       6.617  -3.717   0.643  0.00  0.00    -0.283 N 
ATOM     11  H   UNL     1       7.076  -2.949   0.268  0.00  0.00    +0.166 HD
BRANCH  10  12
ATOM     12  N   UNL     1       7.248  -4.507   1.562  0.00  0.00    -0.257 NA
ATOM     13  H   UNL     1       7.264  -5.470   1.259  0.00  0.00    +0.140 HD
ATOM     14  H   UNL     1       8.180  -4.171   1.749  0.00  0.00    +0.140 HD
ENDBRANCH  10  12
ENDBRANCH   7  10
ENDBRANCH   1   4
BRANCH   1  15
ATOM     15  N   UNL     1       0.058  -4.167  -0.021  0.00  0.00    -0.216 N 
ATOM     16  H   UNL     1      -0.526  -4.663   0.573  0.00  0.00    +0.174 HD
BRANCH  15  21
ATOM     17  C   UNL     1      -0.018   1.503   0.010  0.00  0.00    +0.044 C 
ATOM     18  C   UNL     1       0.002  -0.004   0.002  0.00  0.00    -0.047 A 
ATOM     19  C   UNL     1       0.006  -0.687  -1.200  0.00  0.00    +0.005 A 
ATOM     20  C   UNL     1       0.024  -2.068  -1.212  0.00  0.00    +0.025 A 
ATOM     21  C   UNL     1       0.040  -2.771  -0.013  0.00  0.00    +0.048 A 
ATOM     22  C   UNL     1       0.036  -2.081   1.192  0.00  0.00    +0.028 A 
ATOM     23  C   UNL     1       0.023  -0.700   1.196  0.00  0.00    -0.046 A 
ATOM     24  C   UNL     1       0.025   0.049   2.504  0.00  0.00    +0.044 C 
ENDBRANCH  15  21
ENDBRANCH   1  15
TORSDOF 5
