REMARK  Name = ZINC36503552
REMARK  15 active torsions:
REMARK  status: ('A' for Active; 'I' for Inactive)
REMARK    1  A    between atoms: C_1  and  C_2
REMARK    2  A    between atoms: C_2  and  C_3
REMARK    3  A    between atoms: C_2  and  C_4
REMARK    4  A    between atoms: C_2  and  N_5
REMARK    5  A    between atoms: C_6  and  C_8
REMARK    6  A    between atoms: C_8  and  C_10
REMARK    7  A    between atoms: C_8  and  N_19
REMARK    8  A    between atoms: C_11  and  O_18
REMARK    9  A    between atoms: C_13  and  O_17
REMARK   10  A    between atoms: C_15  and  O_16
REMARK   11  A    between atoms: N_19  and  C_20
REMARK   12  A    between atoms: C_20  and  C_21
REMARK   13  A    between atoms: C_26  and  C_28
REMARK   14  A    between atoms: C_28  and  C_29
REMARK   15  A    between atoms: C_28  and  C_35
REMARK                            x       y       z     vdW  Elec       q    Type
REMARK                         _______ _______ _______ _____ _____    ______ ____
ROOT
ATOM      1  N   UNL     1       3.727  -0.632  -2.731  0.00  0.00    -0.278 N 
ATOM      2  C   UNL     1       4.848  -1.335  -2.990  0.00  0.00    +0.229 C 
ATOM      3  O   UNL     1       4.774  -2.413  -3.541  0.00  0.00    -0.275 OA
ENDROOT
BRANCH   1   4
ATOM      4  C   UNL     1       2.413  -1.226  -2.991  0.00  0.00    +0.200 C 
BRANCH   4   5
ATOM      5  C   UNL     1       2.259  -1.476  -4.469  0.00  0.00    +0.065 A 
ATOM      6  C   UNL     1       1.719  -2.672  -4.917  0.00  0.00    +0.129 A 
ATOM      7  C   UNL     1       1.577  -2.902  -6.277  0.00  0.00    +0.091 A 
ATOM      8  C   UNL     1       1.973  -1.935  -7.189  0.00  0.00    +0.124 A 
ATOM      9  C   UNL     1       2.512  -0.739  -6.741  0.00  0.00    +0.091 A 
ATOM     10  C   UNL     1       2.650  -0.507  -5.380  0.00  0.00    +0.129 A 
BRANCH  10  11
ATOM     11  O   UNL     1       3.174   0.667  -4.941  0.00  0.00    -0.506 OA
ATOM     12  H   UNL     1       4.135   0.656  -4.839  0.00  0.00    +0.292 HD
ENDBRANCH  10  11
BRANCH   8  13
ATOM     13  O   UNL     1       1.834  -2.161  -8.522  0.00  0.00    -0.507 OA
ATOM     14  H   UNL     1       0.985  -1.871  -8.883  0.00  0.00    +0.292 HD
ENDBRANCH   8  13
BRANCH   6  15
ATOM     15  O   UNL     1       1.330  -3.620  -4.024  0.00  0.00    -0.506 OA
ATOM     16  H   UNL     1       0.433  -3.496  -3.684  0.00  0.00    +0.292 HD
ENDBRANCH   6  15
ENDBRANCH   4   5
BRANCH   4  18
ATOM     17  N   UNL     1       0.120  -0.308  -3.108  0.00  0.00    -0.309 N 
ATOM     18  C   UNL     1       1.334  -0.283  -2.525  0.00  0.00    +0.239 C 
ATOM     19  O   UNL     1       1.559   0.498  -1.625  0.00  0.00    -0.273 OA
ATOM     20  H   UNL     1      -0.060  -0.933  -3.828  0.00  0.00    +0.149 HD
BRANCH  17  22
ATOM     21  C   UNL     1      -0.459   2.053  -2.841  0.00  0.00    +0.031 C 
ATOM     22  C   UNL     1      -0.929   0.609  -2.655  0.00  0.00    +0.026 C 
ATOM     23  C   UNL     1      -1.224   0.356  -1.175  0.00  0.00    +0.031 C 
ATOM     24  C   UNL     1      -2.199   0.377  -3.476  0.00  0.00    +0.031 C 
ENDBRANCH  17  22
ENDBRANCH   4  18
ENDBRANCH   1   4
BRANCH   1  25
ATOM     25  C   UNL     1       3.823   0.725  -2.189  0.00  0.00    +0.183 C 
BRANCH  25  26
ATOM     26  C   UNL     1       3.987   0.658  -0.692  0.00  0.00    +0.122 A 
ATOM     27  C   UNL     1       5.151   0.752  -0.024  0.00  0.00    +0.046 A 
ATOM     28  C   UNL     1       4.843   0.638   1.352  0.00  0.00    +0.041 A 
ATOM     29  C   UNL     1       3.510   0.482   1.441  0.00  0.00    +0.195 A 
ATOM     30  O   UNL     1       2.997   0.500   0.201  0.00  0.00    -0.466 OA
ENDBRANCH  25  26
ENDBRANCH   1  25
BRANCH   2  31
ATOM     31  C   UNL     1       6.192  -0.781  -2.596  0.00  0.00    +0.135 C 
BRANCH  31  32
ATOM     32  C   UNL     1       7.215  -1.888  -2.608  0.00  0.00    -0.031 A 
ATOM     33  C   UNL     1       7.472  -2.579  -3.777  0.00  0.00    +0.005 A 
ATOM     34  C   UNL     1       8.410  -3.595  -3.788  0.00  0.00    +0.000 A 
ATOM     35  C   UNL     1       9.091  -3.919  -2.629  0.00  0.00    +0.000 A 
ATOM     36  C   UNL     1       8.834  -3.227  -1.460  0.00  0.00    +0.000 A 
ATOM     37  C   UNL     1       7.900  -2.209  -1.451  0.00  0.00    +0.005 A 
ENDBRANCH  31  32
BRANCH  31  38
ATOM     38  C   UNL     1       6.601   0.290  -3.575  0.00  0.00    -0.031 A 
ATOM     39  C   UNL     1       7.114   1.488  -3.114  0.00  0.00    +0.005 A 
ATOM     40  C   UNL     1       7.488   2.471  -4.011  0.00  0.00    +0.000 A 
ATOM     41  C   UNL     1       7.350   2.255  -5.370  0.00  0.00    +0.000 A 
ATOM     42  C   UNL     1       6.838   1.056  -5.831  0.00  0.00    +0.000 A 
ATOM     43  C   UNL     1       6.468   0.072  -4.933  0.00  0.00    +0.005 A 
ENDBRANCH  31  38
ENDBRANCH   2  31
TORSDOF 12
