REMARK  Name = ZINC04313886
REMARK  5 active torsions:
REMARK  status: ('A' for Active; 'I' for Inactive)
REMARK    1  A    between atoms: C_3  and  C_9
REMARK    2  A    between atoms: C_12  and  S_15
REMARK    3  A    between atoms: N_13  and  N_14
REMARK    4  A    between atoms: S_15  and  C_16
REMARK    5  A    between atoms: C_16  and  C_17
REMARK                            x       y       z     vdW  Elec       q    Type
REMARK                         _______ _______ _______ _____ _____    ______ ____
ROOT
ATOM      1  C   UNL     1       0.024  -0.841   1.094  0.00  0.00    +0.183 A 
ATOM      2  N   UNL     1       0.035  -2.071   0.635  0.00  0.00    -0.127 NA
ATOM      3  N   UNL     1       0.023  -2.061  -0.649  0.00  0.00    -0.121 NA
ATOM      4  C   UNL     1      -0.003  -0.824  -1.091  0.00  0.00    +0.209 A 
ATOM      5  N   UNL     1       0.002  -0.004   0.002  0.00  0.00    -0.224 N 
ENDROOT
BRANCH   1   8
ATOM      6  C   UNL     1       0.029   1.296   4.181  0.00  0.00    +0.021 A 
ATOM      7  C   UNL     1       0.025   0.921   2.854  0.00  0.00    +0.014 A 
ATOM      8  C   UNL     1       0.033  -0.432   2.514  0.00  0.00    +0.039 A 
ATOM      9  C   UNL     1       0.056  -1.400   3.522  0.00  0.00    +0.053 A 
ATOM     10  C   UNL     1       0.064  -1.011   4.847  0.00  0.00    +0.040 A 
ATOM     11  C   UNL     1       0.051   0.334   5.176  0.00  0.00    +0.042 A 
ATOM     12 CL   UNL     1       0.063   0.815   6.845  0.00  0.00    -0.083 Cl
ATOM     13 CL   UNL     1       0.073  -3.086   3.110  0.00  0.00    -0.083 Cl
ENDBRANCH   1   8
BRANCH   5  14
ATOM     14  N   UNL     1      -0.016   1.362   0.009  0.00  0.00    -0.295 N 
ATOM     15  H   UNL     1       0.920   1.736   0.003  0.00  0.00    +0.163 HD
ATOM     16  H   UNL     1      -0.555   1.720  -0.765  0.00  0.00    +0.163 HD
ENDBRANCH   5  14
BRANCH   4  17
ATOM     17  S   UNL     1      -0.035  -0.316  -2.778  0.00  0.00    -0.075 S 
BRANCH  17  18
ATOM     18  C   UNL     1      -0.025  -1.932  -3.593  0.00  0.00    +0.173 C 
BRANCH  18  19
ATOM     19  C   UNL     1      -0.050  -1.741  -5.087  0.00  0.00    +0.231 C 
ATOM     20  O   UNL     1      -0.071  -0.623  -5.555  0.00  0.00    -0.274 OA
ATOM     21  N   UNL     1      -0.048  -2.814  -5.904  0.00  0.00    -0.240 N 
ATOM     22  C   UNL     1      -0.069  -2.643  -7.240  0.00  0.00    +0.303 C 
ATOM     23  O   UNL     1      -0.091  -1.522  -7.710  0.00  0.00    -0.253 OA
ATOM     24  N   UNL     1      -0.067  -3.716  -8.057  0.00  0.00    -0.313 N 
ATOM     25  H   UNL     1      -0.030  -3.708  -5.529  0.00  0.00    +0.159 HD
ATOM     26  H   UNL     1      -0.050  -4.610  -7.682  0.00  0.00    +0.146 HD
ATOM     27  H   UNL     1      -0.083  -3.593  -9.019  0.00  0.00    +0.146 HD
ENDBRANCH  18  19
ENDBRANCH  17  18
ENDBRANCH   4  17
TORSDOF 5
