REMARK  Name = ZINC35361037
REMARK  6 active torsions:
REMARK  status: ('A' for Active; 'I' for Inactive)
REMARK    1  A    between atoms: C_1  and  C_2
REMARK    2  A    between atoms: C_2  and  O_4
REMARK    3  A    between atoms: O_4  and  C_5
REMARK    4  A    between atoms: C_9  and  C_32
REMARK    5  A    between atoms: C_14  and  C_31
REMARK    6  A    between atoms: N_26  and  N_27
REMARK                            x       y       z     vdW  Elec       q    Type
REMARK                         _______ _______ _______ _____ _____    ______ ____
ROOT
ATOM      1  C   UNL     1      -1.057  -2.117   0.001  0.00  0.00    +0.180 C 
ATOM      2  C   UNL     1      -2.263  -2.712   0.730  0.00  0.00    +0.046 C 
ATOM      3  C   UNL     1      -2.121  -4.234   0.805  0.00  0.00    +0.015 C 
ATOM      4  C   UNL     1      -2.121  -4.814  -0.612  0.00  0.00    -0.008 C 
ATOM      5  C   UNL     1      -1.968  -6.325  -0.557  0.00  0.00    +0.003 C 
ATOM      6  C   UNL     1      -3.334  -6.958  -0.264  0.00  0.00    +0.005 C 
ATOM      7  C   UNL     1      -3.155  -8.465  -0.109  0.00  0.00    +0.013 C 
ATOM      8  C   UNL     1      -2.649  -9.082  -1.416  0.00  0.00    +0.011 C 
ATOM      9  C   UNL     1      -1.363  -8.379  -1.882  0.00  0.00    +0.005 C 
ATOM     10  C   UNL     1      -1.458  -6.872  -1.887  0.00  0.00    +0.001 C 
ATOM     11  C   UNL     1      -0.073  -6.274  -2.162  0.00  0.00    +0.031 C 
ATOM     12  C   UNL     1      -0.162  -4.776  -2.120  0.00  0.00    -0.027 C 
ATOM     13  C   UNL     1      -1.058  -4.138  -1.427  0.00  0.00    -0.064 C 
ATOM     14  C   UNL     1      -1.037  -2.619  -1.446  0.00  0.00    +0.075 C 
ATOM     15  C   UNL     1      -0.300  -8.907  -0.900  0.00  0.00    +0.010 C 
ATOM     16  C   UNL     1      -0.702 -10.388  -0.715  0.00  0.00    +0.053 C 
ATOM     17  C   UNL     1      -2.171 -10.493  -1.076  0.00  0.00    +0.043 C 
ATOM     18  N   UNL     1      -2.877 -11.561  -1.092  0.00  0.00    -0.187 NA
ATOM     19  C   UNL     1      -3.731  -9.088  -2.497  0.00  0.00    +0.018 C 
ATOM     20  C   UNL     1      -3.477  -4.508  -1.251  0.00  0.00    +0.016 C 
ENDROOT
BRANCH  18  21
ATOM     21  N   UNL     1      -2.296 -12.790  -0.754  0.00  0.00    -0.191 N 
ATOM     22  C   UNL     1      -3.039 -13.914  -0.771  0.00  0.00    +0.317 C 
ATOM     23  O   UNL     1      -2.535 -14.981  -0.477  0.00  0.00    -0.251 OA
ATOM     24  N   UNL     1      -4.341 -13.856  -1.114  0.00  0.00    -0.312 N 
ATOM     25  H   UNL     1      -1.359 -12.832  -0.507  0.00  0.00    +0.179 HD
ATOM     26  H   UNL     1      -4.743 -13.005  -1.349  0.00  0.00    +0.147 HD
ATOM     27  H   UNL     1      -4.876 -14.665  -1.127  0.00  0.00    +0.147 HD
ENDBRANCH  18  21
BRANCH   1  28
ATOM     28  O   UNL     1      -1.151  -0.691   0.009  0.00  0.00    -0.461 OA
BRANCH  28  30
ATOM     29  C   UNL     1      -0.018   1.503   0.010  0.00  0.00    +0.136 C 
ATOM     30  C   UNL     1       0.002  -0.004   0.002  0.00  0.00    +0.304 C 
ATOM     31  O   UNL     1       1.056  -0.594  -0.011  0.00  0.00    -0.251 OA
ENDBRANCH  28  30
ENDBRANCH   1  28
TORSDOF 3
