REMARK  Name = ZINC12885390
REMARK  7 active torsions:
REMARK  status: ('A' for Active; 'I' for Inactive)
REMARK    1  A    between atoms: C_1  and  C_2
REMARK    2  A    between atoms: C_7  and  C_8
REMARK    3  A    between atoms: C_17  and  C_19
REMARK    4  A    between atoms: C_19  and  C_20
REMARK    5  A    between atoms: N_25  and  C_28
REMARK    6  A    between atoms: C_28  and  C_29
REMARK    7  A    between atoms: C_29  and  C_30
REMARK                            x       y       z     vdW  Elec       q    Type
REMARK                         _______ _______ _______ _____ _____    ______ ____
ROOT
ATOM      1  C   UNL     1       1.710   7.017   0.038  0.00  0.00    +0.044 C 
ATOM      2  C   UNL     1       0.862   5.772   0.035  0.00  0.00    -0.046 A 
ATOM      3  C   UNL     1      -0.517   5.879   0.049  0.00  0.00    +0.004 A 
ATOM      4  C   UNL     1      -1.296   4.735   0.046  0.00  0.00    +0.005 A 
ATOM      5  C   UNL     1      -0.699   3.495   0.030  0.00  0.00    -0.027 A 
ATOM      6  C   UNL     1       0.687   3.375   0.017  0.00  0.00    +0.039 A 
ATOM      7  C   UNL     1       1.464   4.531   0.019  0.00  0.00    -0.026 A 
ATOM      8  C   UNL     1       2.967   4.426   0.004  0.00  0.00    +0.046 C 
ATOM      9  N   UNL     1       1.055   2.028   0.003  0.00  0.00    -0.286 N 
ATOM     10  C   UNL     1      -0.014   1.209   0.009  0.00  0.00    +0.211 C 
ATOM     11  O   UNL     1       0.002  -0.004   0.002  0.00  0.00    -0.277 OA
ATOM     12  C   UNL     1      -1.233   2.090   0.018  0.00  0.00    +0.050 C 
ATOM     13  C   UNL     1      -2.115   1.816   1.242  0.00  0.00    +0.088 C 
ATOM     14  C   UNL     1      -3.569   2.000   0.725  0.00  0.00    +0.073 C 
ATOM     15  C   UNL     1      -3.416   2.379  -0.763  0.00  0.00    -0.049 C 
ATOM     16  C   UNL     1      -4.155   0.611   0.830  0.00  0.00    +0.224 C 
ATOM     17  O   UNL     1      -5.284   0.301   0.514  0.00  0.00    -0.275 OA
ATOM     18  N   UNL     1      -3.235  -0.224   1.325  0.00  0.00    -0.241 N 
ATOM     19  C   UNL     1      -2.055   0.347   1.594  0.00  0.00    +0.225 C 
ATOM     20  O   UNL     1      -1.088  -0.225   2.049  0.00  0.00    -0.275 OA
ATOM     21  H   UNL     1       1.974   1.718  -0.010  0.00  0.00    +0.155 HD
ATOM     22  N   UNL     1      -2.095   1.859  -1.127  0.00  0.00    +0.394 N 
ATOM     23  H   UNL     1      -2.153   0.854  -1.331  0.00  0.00    -0.083 HD
ATOM     24  H   UNL     1      -1.733   2.355  -1.950  0.00  0.00    -0.083 HD
ENDROOT
BRANCH  15  25
ATOM     25  C   UNL     1      -4.521   1.726  -1.595  0.00  0.00    +0.080 C 
BRANCH  25  26
ATOM     26  C   UNL     1      -4.381   2.146  -3.036  0.00  0.00    +0.209 C 
ATOM     27  O   UNL     1      -3.484   2.894  -3.365  0.00  0.00    -0.276 OA
ATOM     28  N   UNL     1      -5.251   1.690  -3.959  0.00  0.00    -0.329 N 
ATOM     29  H   UNL     1      -5.968   1.092  -3.696  0.00  0.00    +0.145 HD
ATOM     30  H   UNL     1      -5.160   1.961  -4.886  0.00  0.00    +0.145 HD
ENDBRANCH  25  26
ENDBRANCH  15  25
BRANCH  18  31
ATOM     31  C   UNL     1      -3.497  -1.647   1.554  0.00  0.00    +0.121 C 
BRANCH  31  32
ATOM     32  C   UNL     1      -3.139  -2.440   0.295  0.00  0.00    +0.054 C 
BRANCH  32  33
ATOM     33  C   UNL     1      -3.408  -3.904   0.530  0.00  0.00    -0.046 A 
ATOM     34  C   UNL     1      -2.413  -4.717   1.039  0.00  0.00    +0.004 A 
ATOM     35  C   UNL     1      -2.661  -6.059   1.259  0.00  0.00    +0.000 A 
ATOM     36  C   UNL     1      -3.902  -6.590   0.961  0.00  0.00    +0.000 A 
ATOM     37  C   UNL     1      -4.896  -5.778   0.447  0.00  0.00    +0.000 A 
ATOM     38  C   UNL     1      -4.649  -4.435   0.232  0.00  0.00    +0.004 A 
ENDBRANCH  32  33
ENDBRANCH  31  32
ENDBRANCH  18  31
TORSDOF 5
