REMARK  Name = ZINC36578373
REMARK  13 active torsions:
REMARK  status: ('A' for Active; 'I' for Inactive)
REMARK    1  A    between atoms: C_1  and  C_2
REMARK    2  A    between atoms: C_2  and  C_3
REMARK    3  A    between atoms: C_3  and  N_4
REMARK    4  A    between atoms: N_4  and  C_5
REMARK    5  A    between atoms: C_5  and  C_7
REMARK    6  A    between atoms: C_5  and  C_16
REMARK    7  A    between atoms: C_10  and  N_13
REMARK    8  A    between atoms: N_18  and  C_19
REMARK    9  A    between atoms: C_19  and  S_20
REMARK   10  A    between atoms: S_20  and  C_23
REMARK   11  A    between atoms: C_26  and  C_29
REMARK   12  A    between atoms: C_30  and  C_32
REMARK   13  A    between atoms: C_32  and  C_33
REMARK                            x       y       z     vdW  Elec       q    Type
REMARK                         _______ _______ _______ _____ _____    ______ ____
ROOT
ATOM      1  C   UNL     1      -0.248  -2.791  -1.716  0.00  0.00    +0.192 C 
ENDROOT
BRANCH   1   2
ATOM      2  C   UNL     1      -1.437  -3.598  -1.261  0.00  0.00    -0.018 A 
ATOM      3  C   UNL     1      -2.645  -2.972  -1.017  0.00  0.00    +0.008 A 
ATOM      4  C   UNL     1      -3.735  -3.712  -0.600  0.00  0.00    +0.033 A 
ATOM      5  C   UNL     1      -3.617  -5.079  -0.427  0.00  0.00    +0.126 A 
ATOM      6  C   UNL     1      -2.410  -5.705  -0.672  0.00  0.00    +0.033 A 
ATOM      7  C   UNL     1      -1.321  -4.965  -1.094  0.00  0.00    +0.008 A 
BRANCH   5   8
ATOM      8  N   UNL     1      -4.785  -5.872   0.021  0.00  0.00    +0.056 N 
ATOM      9  O   UNL     1      -5.841  -5.324   0.235  0.00  0.00    -0.126 OA
ATOM     10  O   UNL     1      -4.682  -7.067   0.172  0.00  0.00    -0.126 OA
ENDBRANCH   5   8
ENDBRANCH   1   2
BRANCH   1  11
ATOM     11  C   UNL     1      -0.322  -2.584  -3.207  0.00  0.00    +0.239 C 
ATOM     12  O   UNL     1       0.502  -1.891  -3.765  0.00  0.00    -0.273 OA
ATOM     13  N   UNL     1      -1.304  -3.170  -3.921  0.00  0.00    -0.294 N 
ATOM     14  H   UNL     1      -1.964  -3.724  -3.475  0.00  0.00    +0.150 HD
BRANCH  13  15
ATOM     15  C   UNL     1      -1.377  -2.969  -5.370  0.00  0.00    +0.278 C 
BRANCH  15  16
ATOM     16  S   UNL     1      -0.539  -4.340  -6.213  0.00  0.00    +0.013 S 
ATOM     17  O   UNL     1      -0.655  -4.192  -7.622  0.00  0.00    -0.168 OA
ATOM     18  O   UNL     1       0.725  -4.585  -5.612  0.00  0.00    -0.168 OA
BRANCH  16  19
ATOM     19  C   UNL     1      -1.503  -5.763  -5.829  0.00  0.00    +0.090 A 
ATOM     20  C   UNL     1      -1.216  -6.509  -4.702  0.00  0.00    +0.027 A 
ATOM     21  C   UNL     1      -1.972  -7.627  -4.401  0.00  0.00    +0.005 A 
ATOM     22  C   UNL     1      -3.017  -7.998  -5.227  0.00  0.00    -0.050 A 
ATOM     23  C   UNL     1      -3.304  -7.251  -6.354  0.00  0.00    +0.005 A 
ATOM     24  C   UNL     1      -2.551  -6.132  -6.653  0.00  0.00    +0.027 A 
ATOM     25  C   UNL     1      -3.841  -9.216  -4.899  0.00  0.00    +0.044 C 
ENDBRANCH  16  19
ENDBRANCH  15  16
ENDBRANCH  13  15
ENDBRANCH   1  11
BRANCH   1  26
ATOM     26  N   UNL     1      -0.254  -1.491  -1.042  0.00  0.00    -0.286 N 
ATOM     27  C   UNL     1      -0.199  -1.429   0.303  0.00  0.00    +0.221 C 
ATOM     28  O   UNL     1      -0.144  -2.450   0.956  0.00  0.00    -0.275 OA
BRANCH  26  29
ATOM     29  C   UNL     1      -0.320  -0.257  -1.830  0.00  0.00    +0.108 C 
BRANCH  29  31
ATOM     30  C   UNL     1      -1.791   1.173  -3.256  0.00  0.00    +0.005 C 
ATOM     31  C   UNL     1      -1.742  -0.067  -2.361  0.00  0.00    +0.016 C 
ENDBRANCH  29  31
ENDBRANCH  26  29
BRANCH  27  32
ATOM     32  C   UNL     1      -0.205  -0.091   0.997  0.00  0.00    +0.131 C 
BRANCH  32  33
ATOM     33  C   UNL     1      -0.136  -0.298   2.488  0.00  0.00    -0.039 A 
ATOM     34  C   UNL     1      -1.300  -0.430   3.222  0.00  0.00    +0.004 A 
ATOM     35  C   UNL     1      -1.237  -0.620   4.590  0.00  0.00    +0.000 A 
ATOM     36  C   UNL     1      -0.010  -0.678   5.223  0.00  0.00    +0.000 A 
ATOM     37  C   UNL     1       1.154  -0.546   4.489  0.00  0.00    +0.000 A 
ATOM     38  C   UNL     1       1.091  -0.361   3.121  0.00  0.00    +0.004 A 
ENDBRANCH  32  33
ENDBRANCH  27  32
ENDBRANCH   1  26
TORSDOF 11
