REMARK  Name = ZINC39679011
REMARK  12 active torsions:
REMARK  status: ('A' for Active; 'I' for Inactive)
REMARK    1  A    between atoms: C_1  and  C_2
REMARK    2  A    between atoms: C_2  and  C_3
REMARK    3  A    between atoms: C_3  and  C_5
REMARK    4  A    between atoms: C_3  and  C_11
REMARK    5  A    between atoms: C_15  and  C_24
REMARK    6  A    between atoms: N_26  and  C_27
REMARK    7  A    between atoms: C_27  and  C_28
REMARK    8  A    between atoms: C_28  and  C_29
REMARK    9  A    between atoms: C_29  and  C_30
REMARK   10  A    between atoms: C_30  and  N_31
REMARK   11  A    between atoms: N_31  and  C_32
REMARK   12  A    between atoms: N_31  and  C_33
REMARK                            x       y       z     vdW  Elec       q    Type
REMARK                         _______ _______ _______ _____ _____    ______ ____
ROOT
ATOM      1  C   UNL     1      -2.171  -0.074  -1.360  0.00  0.00    +0.223 C 
ATOM      2  O   UNL     1      -2.775  -0.820  -2.102  0.00  0.00    -0.275 OA
ATOM      3  N   UNL     1      -2.171   1.254  -1.594  0.00  0.00    -0.300 N 
ATOM      4  C   UNL     1      -1.573   2.323  -0.760  0.00  0.00    +0.121 C 
ATOM      5  C   UNL     1      -0.962   3.314  -1.775  0.00  0.00    +0.100 C 
ATOM      6  C   UNL     1      -1.752   3.082  -3.074  0.00  0.00    -0.004 C 
ATOM      7  C   UNL     1      -2.763   1.973  -2.748  0.00  0.00    +0.115 C 
ATOM      8  C   UNL     1      -2.480   4.358  -3.486  0.00  0.00    -0.010 C 
ATOM      9  C   UNL     1      -3.210   4.119  -4.810  0.00  0.00    -0.082 C 
ATOM     10  N   UNL     1      -2.241   3.731  -5.842  0.00  0.00    +0.379 N 
ATOM     11  C   UNL     1      -1.612   2.454  -5.483  0.00  0.00    -0.082 C 
ATOM     12  C   UNL     1      -0.814   2.623  -4.187  0.00  0.00    -0.010 C 
ATOM     13  H   UNL     1      -2.716   3.634  -6.727  0.00  0.00    -0.086 HD
ATOM     14  H   UNL     1      -1.532   4.444  -5.921  0.00  0.00    -0.086 HD
ENDROOT
BRANCH   5  15
ATOM     15  C   UNL     1       0.500   3.016  -1.986  0.00  0.00    +0.218 C 
ATOM     16  O   UNL     1       0.906   1.877  -1.887  0.00  0.00    -0.275 OA
ATOM     17  N   UNL     1       1.355   4.013  -2.285  0.00  0.00    -0.315 N 
ATOM     18  H   UNL     1       1.030   4.924  -2.364  0.00  0.00    +0.149 HD
BRANCH  17  19
ATOM     19  C   UNL     1       2.776   3.723  -2.490  0.00  0.00    +0.104 C 
BRANCH  19  20
ATOM     20  C   UNL     1       3.521   5.020  -2.814  0.00  0.00    +0.017 C 
BRANCH  20  21
ATOM     21  C   UNL     1       5.005   4.716  -3.028  0.00  0.00    -0.017 C 
BRANCH  21  22
ATOM     22  C   UNL     1       5.749   6.013  -3.352  0.00  0.00    -0.080 C 
BRANCH  22  23
ATOM     23  N   UNL     1       7.174   5.722  -3.558  0.00  0.00    +0.376 N 
ATOM     24  C   UNL     1       7.334   4.874  -4.747  0.00  0.00    -0.097 C 
ATOM     25  C   UNL     1       7.908   6.979  -3.750  0.00  0.00    -0.097 C 
ATOM     26  H   UNL     1       7.539   5.240  -2.750  0.00  0.00    -0.083 HD
ENDBRANCH  22  23
ENDBRANCH  21  22
ENDBRANCH  20  21
ENDBRANCH  19  20
ENDBRANCH  17  19
ENDBRANCH   5  15
BRANCH   1  27
ATOM     27  C   UNL     1      -1.421  -0.631  -0.178  0.00  0.00    +0.105 C 
BRANCH  27  28
ATOM     28  C   UNL     1      -2.353  -0.739   1.002  0.00  0.00    -0.036 A 
ATOM     29  C   UNL     1      -3.480  -1.535   0.922  0.00  0.00    +0.004 A 
ATOM     30  C   UNL     1      -4.334  -1.635   2.004  0.00  0.00    +0.000 A 
ATOM     31  C   UNL     1      -4.061  -0.938   3.166  0.00  0.00    +0.000 A 
ATOM     32  C   UNL     1      -2.934  -0.142   3.247  0.00  0.00    +0.000 A 
ATOM     33  C   UNL     1      -2.077  -0.046   2.166  0.00  0.00    +0.004 A 
ENDBRANCH  27  28
BRANCH  27  35
ATOM     34  C   UNL     1       0.176  -1.889  -1.630  0.00  0.00    +0.005 C 
ATOM     35  C   UNL     1      -0.876  -2.017  -0.526  0.00  0.00    +0.014 C 
ENDBRANCH  27  35
ENDBRANCH   1  27
TORSDOF 9
