REMARK  Name = ZINC66240225
REMARK  9 active torsions:
REMARK  status: ('A' for Active; 'I' for Inactive)
REMARK    1  A    between atoms: C_1  and  C_2
REMARK    2  A    between atoms: C_2  and  C_3
REMARK    3  A    between atoms: C_2  and  C_4
REMARK    4  A    between atoms: C_4  and  C_6
REMARK    5  A    between atoms: C_4  and  N_16
REMARK    6  A    between atoms: C_17  and  C_19
REMARK    7  A    between atoms: C_22  and  N_25
REMARK    8  A    between atoms: C_26  and  N_32
REMARK    9  A    between atoms: C_27  and  C_30
REMARK                            x       y       z     vdW  Elec       q    Type
REMARK                         _______ _______ _______ _____ _____    ______ ____
ROOT
ATOM      1  N   UNL     1      -2.142  -0.048  -1.174  0.00  0.00    -0.301 N 
ATOM      2  C   UNL     1      -2.727   1.166  -1.160  0.00  0.00    +0.245 C 
ATOM      3  O   UNL     1      -2.667   1.858  -0.163  0.00  0.00    -0.270 OA
ATOM      4  H   UNL     1      -2.190  -0.601  -1.970  0.00  0.00    +0.150 HD
ENDROOT
BRANCH   2   5
ATOM      5  C   UNL     1      -3.441   1.655  -2.356  0.00  0.00    +0.037 A 
ATOM      6  C   UNL     1      -3.516   0.858  -3.502  0.00  0.00    +0.015 A 
ATOM      7  C   UNL     1      -4.183   1.317  -4.615  0.00  0.00    +0.028 A 
ATOM      8  C   UNL     1      -4.782   2.572  -4.601  0.00  0.00    +0.067 A 
ATOM      9  C   UNL     1      -4.709   3.368  -3.463  0.00  0.00    +0.028 A 
ATOM     10  C   UNL     1      -4.048   2.913  -2.344  0.00  0.00    +0.015 A 
BRANCH   8  11
ATOM     11  N   UNL     1      -5.458   3.035  -5.733  0.00  0.00    -0.218 N 
ATOM     12  C   UNL     1      -6.572   3.813  -5.732  0.00  0.00    +0.137 A 
ATOM     13  C   UNL     1      -6.911   4.040  -7.063  0.00  0.00    +0.111 A 
ATOM     14  C   UNL     1      -5.953   3.365  -7.856  0.00  0.00    +0.155 A 
ATOM     15  N   UNL     1      -5.100   2.782  -7.061  0.00  0.00    -0.172 NA
BRANCH  12  16
ATOM     16  N   UNL     1      -7.241   4.288  -4.621  0.00  0.00    -0.342 N 
ATOM     17  H   UNL     1      -6.921   4.070  -3.732  0.00  0.00    +0.144 HD
ATOM     18  H   UNL     1      -8.032   4.839  -4.730  0.00  0.00    +0.144 HD
ENDBRANCH  12  16
BRANCH  13  19
ATOM     19  C   UNL     1      -8.020   4.811  -7.539  0.00  0.00    +0.104 C 
ATOM     20  N   UNL     1      -8.899   5.422  -7.917  0.00  0.00    -0.191 NA
ENDBRANCH  13  19
ENDBRANCH   8  11
ENDBRANCH   2   5
BRANCH   1  21
ATOM     21  C   UNL     1      -1.433  -0.534   0.013  0.00  0.00    +0.142 C 
BRANCH  21  22
ATOM     22  C   UNL     1      -1.413  -2.041   0.005  0.00  0.00    +0.129 A 
ATOM     23  N   UNL     1      -2.038  -2.833   0.917  0.00  0.00    -0.340 N 
ATOM     24  H   UNL     1      -2.565  -2.534   1.673  0.00  0.00    +0.167 HD
ATOM     25  C   UNL     1      -1.781  -4.144   0.566  0.00  0.00    +0.066 A 
ATOM     26  C   UNL     1      -2.139  -5.375   1.098  0.00  0.00    +0.028 A 
ATOM     27  C   UNL     1      -1.705  -6.534   0.490  0.00  0.00    +0.002 A 
ATOM     28  C   UNL     1      -0.915  -6.477  -0.650  0.00  0.00    +0.002 A 
ATOM     29  C   UNL     1      -0.554  -5.274  -1.188  0.00  0.00    +0.030 A 
ATOM     30  C   UNL     1      -0.982  -4.087  -0.589  0.00  0.00    +0.089 A 
ATOM     31  N   UNL     1      -0.800  -2.773  -0.879  0.00  0.00    -0.231 NA
ENDBRANCH  21  22
BRANCH  21  33
ATOM     32  C   UNL     1      -0.019   1.526   0.010  0.00  0.00    +0.009 C 
ATOM     33  C   UNL     1       0.002  -0.004   0.002  0.00  0.00    +0.011 C 
ATOM     34  C   UNL     1       0.742  -0.511   1.242  0.00  0.00    +0.009 C 
ENDBRANCH  21  33
ENDBRANCH   1  21
TORSDOF 7
