REMARK  Name = ZINC08417890
REMARK  9 active torsions:
REMARK  status: ('A' for Active; 'I' for Inactive)
REMARK    1  A    between atoms: C_1  and  C_2
REMARK    2  A    between atoms: C_7  and  N_12
REMARK    3  A    between atoms: C_9  and  C_11
REMARK    4  A    between atoms: N_12  and  C_13
REMARK    5  A    between atoms: C_13  and  N_15
REMARK    6  A    between atoms: N_15  and  N_16
REMARK    7  A    between atoms: C_17  and  C_19
REMARK    8  A    between atoms: C_19  and  N_20
REMARK    9  A    between atoms: C_21  and  C_23
REMARK                            x       y       z     vdW  Elec       q    Type
REMARK                         _______ _______ _______ _____ _____    ______ ____
ROOT
ATOM      1  N   UNL     1      -2.004   2.917  -3.404  0.00  0.00    -0.234 N 
ATOM      2  C   UNL     1      -2.655   3.364  -4.496  0.00  0.00    +0.246 C 
ATOM      3  O   UNL     1      -3.864   3.463  -4.482  0.00  0.00    -0.273 OA
ATOM      4  H   UNL     1      -1.037   2.838  -3.415  0.00  0.00    +0.173 HD
ENDROOT
BRANCH   1   5
ATOM      5  N   UNL     1      -2.722   2.568  -2.253  0.00  0.00    -0.246 N 
ATOM      6  H   UNL     1      -3.689   2.647  -2.242  0.00  0.00    +0.172 HD
BRANCH   5   7
ATOM      7  C   UNL     1      -2.070   2.122  -1.161  0.00  0.00    +0.147 C 
ATOM      8  S   UNL     1      -2.949   1.695   0.245  0.00  0.00    -0.017 S 
BRANCH   7   9
ATOM      9  N   UNL     1      -0.727   2.011  -1.176  0.00  0.00    -0.322 N 
ATOM     10  H   UNL     1      -0.230   2.253  -1.973  0.00  0.00    +0.148 HD
BRANCH   9  16
ATOM     11  C   UNL     1       3.568   2.091  -1.270  0.00  0.00    +0.008 C 
ATOM     12  C   UNL     1       2.133   1.562  -1.259  0.00  0.00    -0.009 C 
ATOM     13  C   UNL     1       2.154   0.032  -1.268  0.00  0.00    +0.003 C 
ATOM     14  C   UNL     1       0.718  -0.497  -1.257  0.00  0.00    +0.002 C 
ATOM     15  C   UNL     1       0.002  -0.004   0.002  0.00  0.00    +0.022 C 
ATOM     16  C   UNL     1      -0.019   1.526   0.010  0.00  0.00    +0.075 C 
ATOM     17  C   UNL     1       1.417   2.055  -0.000  0.00  0.00    +0.009 C 
ATOM     18  C   UNL     1       1.396   3.585   0.008  0.00  0.00    +0.009 C 
ENDBRANCH   9  16
ENDBRANCH   7   9
ENDBRANCH   5   7
ENDBRANCH   1   5
BRANCH   2  19
ATOM     19  C   UNL     1      -1.883   3.740  -5.734  0.00  0.00    +0.202 C 
BRANCH  19  20
ATOM     20  N   UNL     1      -2.812   4.191  -6.772  0.00  0.00    -0.303 N 
ATOM     21  C   UNL     1      -2.343   4.580  -7.974  0.00  0.00    +0.247 C 
ATOM     22  O   UNL     1      -1.148   4.556  -8.197  0.00  0.00    -0.270 OA
ATOM     23  H   UNL     1      -3.766   4.210  -6.594  0.00  0.00    +0.150 HD
BRANCH  21  24
ATOM     24  C   UNL     1      -3.281   5.035  -9.021  0.00  0.00    +0.072 A 
ATOM     25  C   UNL     1      -4.654   5.063  -8.768  0.00  0.00    +0.016 A 
ATOM     26  C   UNL     1      -5.524   5.489  -9.749  0.00  0.00    +0.001 A 
ATOM     27  C   UNL     1      -5.040   5.890 -10.984  0.00  0.00    +0.003 A 
ATOM     28  C   UNL     1      -3.683   5.865 -11.243  0.00  0.00    +0.039 A 
ATOM     29  C   UNL     1      -2.797   5.445 -10.267  0.00  0.00    +0.135 A 
ATOM     30  F   UNL     1      -1.470   5.426 -10.519  0.00  0.00    -0.205 F 
ENDBRANCH  21  24
ENDBRANCH  19  20
ENDBRANCH   2  19
TORSDOF 7
