REMARK  Name = ZINC35851581
REMARK  3 active torsions:
REMARK  status: ('A' for Active; 'I' for Inactive)
REMARK    1  A    between atoms: C_1  and  C_2
REMARK    2  A    between atoms: C_2  and  C_3
REMARK    3  A    between atoms: N_25  and  C_28
REMARK                            x       y       z     vdW  Elec       q    Type
REMARK                         _______ _______ _______ _____ _____    ______ ____
ROOT
ATOM      1  C   UNL     1       0.682  -0.272  -1.314  0.00  0.00    -0.026 A 
ATOM      2  C   UNL     1      -0.041  -0.647  -2.428  0.00  0.00    +0.005 A 
ATOM      3  C   UNL     1       0.603  -1.168  -3.535  0.00  0.00    +0.001 A 
ATOM      4  C   UNL     1       1.979  -1.316  -3.525  0.00  0.00    +0.004 A 
ATOM      5  C   UNL     1       2.704  -0.945  -2.416  0.00  0.00    -0.027 A 
ATOM      6  C   UNL     1       2.067  -0.412  -1.298  0.00  0.00    +0.039 A 
ATOM      7  N   UNL     1       3.004  -0.106  -0.309  0.00  0.00    -0.286 N 
ATOM      8  C   UNL     1       4.262  -0.399  -0.692  0.00  0.00    +0.212 C 
ATOM      9  O   UNL     1       5.272  -0.241  -0.040  0.00  0.00    -0.277 OA
ATOM     10  C   UNL     1       4.169  -0.973  -2.081  0.00  0.00    +0.053 C 
ATOM     11  C   UNL     1       4.987  -0.132  -3.068  0.00  0.00    +0.089 C 
ATOM     12  C   UNL     1       5.581  -1.163  -4.066  0.00  0.00    +0.074 C 
ATOM     13  C   UNL     1       5.052  -2.531  -3.597  0.00  0.00    -0.054 C 
ATOM     14  N   UNL     1       4.712  -2.339  -2.148  0.00  0.00    +0.395 N 
ATOM     15  C   UNL     1       6.011  -2.384  -1.436  0.00  0.00    -0.076 C 
ATOM     16  C   UNL     1       6.837  -3.460  -2.169  0.00  0.00    -0.020 C 
ATOM     17  C   UNL     1       6.202  -3.554  -3.612  0.00  0.00    -0.016 C 
ATOM     18  C   UNL     1       7.070  -1.073  -3.815  0.00  0.00    +0.228 C 
ATOM     19  O   UNL     1       7.917  -1.722  -4.389  0.00  0.00    -0.275 OA
ATOM     20  N   UNL     1       7.306  -0.164  -2.862  0.00  0.00    -0.209 N 
ATOM     21  C   UNL     1       6.200   0.439  -2.369  0.00  0.00    +0.229 C 
ATOM     22  O   UNL     1       6.176   1.294  -1.510  0.00  0.00    -0.275 OA
ATOM     23  H   UNL     1       2.776   0.273   0.554  0.00  0.00    +0.155 HD
ATOM     24  H   UNL     1       4.058  -3.030  -1.814  0.00  0.00    -0.079 HD
ENDROOT
BRANCH  20  25
ATOM     25  C   UNL     1       8.597   0.145  -2.412  0.00  0.00    +0.062 A 
ATOM     26  C   UNL     1       9.139  -0.537  -1.330  0.00  0.00    +0.025 A 
ATOM     27  C   UNL     1      10.411  -0.230  -0.889  0.00  0.00    +0.002 A 
ATOM     28  C   UNL     1      11.146   0.755  -1.523  0.00  0.00    +0.002 A 
ATOM     29  C   UNL     1      10.611   1.436  -2.600  0.00  0.00    +0.022 A 
ATOM     30  C   UNL     1       9.340   1.130  -3.050  0.00  0.00    +0.063 A 
ATOM     31 CL   UNL     1       8.671   1.980  -4.408  0.00  0.00    -0.082 Cl
ENDBRANCH  20  25
BRANCH   1  33
ATOM     32  C   UNL     1      -0.020   1.824  -0.191  0.00  0.00    +0.009 C 
ATOM     33  C   UNL     1      -0.029   0.296  -0.113  0.00  0.00    +0.033 C 
ENDBRANCH   1  33
TORSDOF 2
