REMARK  Name = ZINC43253714
REMARK  6 active torsions:
REMARK  status: ('A' for Active; 'I' for Inactive)
REMARK    1  A    between atoms: C_1  and  C_2
REMARK    2  A    between atoms: C_2  and  C_4
REMARK    3  A    between atoms: C_2  and  N_22
REMARK    4  A    between atoms: C_4  and  C_6
REMARK    5  A    between atoms: C_4  and  N_12
REMARK    6  A    between atoms: C_17  and  C_19
REMARK                            x       y       z     vdW  Elec       q    Type
REMARK                         _______ _______ _______ _____ _____    ______ ____
ROOT
ATOM      1  C   UNL     1       0.983  -1.414   0.758  0.00  0.00    +0.080 C 
ENDROOT
BRANCH   1   2
ATOM      2  C   UNL     1       0.557  -2.856   0.864  0.00  0.00    +0.007 A 
ATOM      3  C   UNL     1       1.326  -3.969   0.943  0.00  0.00    +0.014 A 
ATOM      4  C   UNL     1       0.711  -5.204   1.035  0.00  0.00    +0.028 A 
ATOM      5  C   UNL     1      -0.644  -5.264   1.044  0.00  0.00    +0.078 A 
ATOM      6  S   UNL     1      -1.091  -3.539   0.928  0.00  0.00    -0.080 S 
ATOM      7 CL   UNL     1      -1.676  -6.656   1.149  0.00  0.00    -0.076 Cl
ENDBRANCH   1   2
BRANCH   1   8
ATOM      8  N   UNL     1       0.469  -0.665   1.912  0.00  0.00    -0.286 NA
ATOM      9  C   UNL     1      -0.856  -1.155   2.310  0.00  0.00    +0.086 C 
ATOM     10  C   UNL     1      -1.421  -0.262   3.417  0.00  0.00    +0.015 C 
ATOM     11  C   UNL     1      -0.469  -0.279   4.616  0.00  0.00    +0.003 C 
ATOM     12  C   UNL     1       0.916   0.190   4.164  0.00  0.00    +0.028 C 
ATOM     13  C   UNL     1       1.414  -0.717   3.036  0.00  0.00    +0.143 C 
BRANCH  13  14
ATOM     14  C   UNL     1       2.769  -0.247   2.575  0.00  0.00    +0.228 C 
ATOM     15  O   UNL     1       2.858   0.539   1.655  0.00  0.00    -0.274 OA
ATOM     16  N   UNL     1       3.883  -0.700   3.184  0.00  0.00    -0.328 N 
ATOM     17  H   UNL     1       3.812  -1.328   3.919  0.00  0.00    +0.145 HD
ATOM     18  H   UNL     1       4.755  -0.397   2.887  0.00  0.00    +0.145 HD
ENDBRANCH  13  14
ENDBRANCH   1   8
BRANCH   1  20
ATOM     19  C   UNL     1       0.956   0.613  -0.703  0.00  0.00    -0.012 C 
ATOM     20  C   UNL     1       0.423  -0.811  -0.532  0.00  0.00    -0.056 C 
BRANCH  20  21
ATOM     21  N   UNL     1      -1.044  -0.779  -0.460  0.00  0.00    +0.381 N 
ATOM     22  H   UNL     1      -1.419  -0.518  -1.360  0.00  0.00    -0.090 HD
ATOM     23  H   UNL     1      -1.388  -1.692  -0.204  0.00  0.00    -0.090 HD
ATOM     24  H   UNL     1      -1.333  -0.104   0.232  0.00  0.00    -0.090 HD
ENDBRANCH  20  21
ENDBRANCH   1  20
TORSDOF 5
