REMARK  Name = ZINC35682767
REMARK  9 active torsions:
REMARK  status: ('A' for Active; 'I' for Inactive)
REMARK    1  A    between atoms: C_1  and  C_2
REMARK    2  A    between atoms: C_4  and  O_5
REMARK    3  A    between atoms: C_6  and  C_27
REMARK    4  A    between atoms: N_9  and  C_10
REMARK    5  A    between atoms: C_15  and  S_16
REMARK    6  A    between atoms: S_16  and  C_17
REMARK    7  A    between atoms: C_17  and  C_18
REMARK    8  A    between atoms: N_20  and  C_21
REMARK    9  A    between atoms: C_27  and  C_29
REMARK                            x       y       z     vdW  Elec       q    Type
REMARK                         _______ _______ _______ _____ _____    ______ ____
ROOT
ATOM      1  C   UNL     1       3.257  -1.443   1.518  0.00  0.00    +0.055 A 
ATOM      2  C   UNL     1       3.122  -0.075   1.283  0.00  0.00    +0.027 A 
ATOM      3  C   UNL     1       4.156   0.784   1.601  0.00  0.00    +0.002 A 
ATOM      4  C   UNL     1       5.327   0.293   2.151  0.00  0.00    +0.001 A 
ATOM      5  C   UNL     1       5.474  -1.062   2.389  0.00  0.00    +0.017 A 
ATOM      6  C   UNL     1       4.444  -1.937   2.082  0.00  0.00    +0.032 A 
ENDROOT
BRANCH   1  14
ATOM      7  C   UNL     1      -0.137  -0.405   4.665  0.00  0.00    +0.086 C 
ATOM      8  C   UNL     1      -0.202  -1.190   3.381  0.00  0.00    +0.108 A 
ATOM      9  C   UNL     1      -1.206  -2.072   3.196  0.00  0.00    +0.087 A 
ATOM     10  C   UNL     1      -1.261  -2.861   2.031  0.00  0.00    +0.136 A 
ATOM     11  C   UNL     1      -0.138  -2.858   1.177  0.00  0.00    +0.118 A 
ATOM     12  C   UNL     1       1.010  -2.037   1.608  0.00  0.00    +0.213 A 
ATOM     13  O   UNL     1       0.739  -0.994   2.439  0.00  0.00    -0.444 OA
ATOM     14  N   UNL     1       2.236  -2.299   1.205  0.00  0.00    -0.324 N 
ATOM     15  H   UNL     1       2.416  -3.099   0.686  0.00  0.00    +0.169 HD
BRANCH  11  16
ATOM     16  C   UNL     1      -0.114  -3.600  -0.024  0.00  0.00    +0.169 C 
ATOM     17  O   UNL     1      -1.042  -4.331  -0.306  0.00  0.00    -0.292 OA
ATOM     18  C   UNL     1       1.064  -3.485  -0.957  0.00  0.00    +0.092 C 
ENDBRANCH  11  16
BRANCH  10  19
ATOM     19  O   UNL     1      -2.356  -3.597   1.740  0.00  0.00    -0.506 OA
ATOM     20  H   UNL     1      -3.064  -3.524   2.393  0.00  0.00    +0.292 HD
ENDBRANCH  10  19
ENDBRANCH   1  14
BRANCH   6  21
ATOM     21  S   UNL     1       4.626  -3.662   2.391  0.00  0.00    -0.114 S 
BRANCH  21  22
ATOM     22  C   UNL     1       6.287  -3.806   3.107  0.00  0.00    +0.170 C 
BRANCH  22  23
ATOM     23  C   UNL     1       6.574  -5.251   3.422  0.00  0.00    +0.227 C 
ATOM     24  O   UNL     1       5.740  -6.101   3.187  0.00  0.00    -0.275 OA
ATOM     25  N   UNL     1       7.757  -5.601   3.965  0.00  0.00    -0.285 N 
ATOM     26  H   UNL     1       8.449  -4.933   4.089  0.00  0.00    +0.155 HD
BRANCH  25  27
ATOM     27  C   UNL     1       7.986  -6.926   4.350  0.00  0.00    +0.033 A 
ATOM     28  C   UNL     1       8.741  -7.201   5.483  0.00  0.00    +0.023 A 
ATOM     29  C   UNL     1       8.965  -8.511   5.860  0.00  0.00    +0.002 A 
ATOM     30  C   UNL     1       8.439  -9.547   5.111  0.00  0.00    +0.000 A 
ATOM     31  C   UNL     1       7.687  -9.277   3.983  0.00  0.00    +0.002 A 
ATOM     32  C   UNL     1       7.454  -7.969   3.604  0.00  0.00    +0.023 A 
ENDBRANCH  25  27
ENDBRANCH  22  23
ENDBRANCH  21  22
ENDBRANCH   6  21
TORSDOF 7
