REMARK  Name = ZINC20570153
REMARK  9 active torsions:
REMARK  status: ('A' for Active; 'I' for Inactive)
REMARK    1  A    between atoms: C_1  and  C_2
REMARK    2  A    between atoms: C_9  and  N_14
REMARK    3  A    between atoms: C_10  and  C_11
REMARK    4  A    between atoms: C_15  and  C_17
REMARK    5  A    between atoms: C_22  and  N_23
REMARK    6  A    between atoms: N_23  and  S_24
REMARK    7  A    between atoms: S_24  and  C_27
REMARK    8  A    between atoms: C_30  and  O_33
REMARK    9  A    between atoms: O_33  and  C_34
REMARK                            x       y       z     vdW  Elec       q    Type
REMARK                         _______ _______ _______ _____ _____    ______ ____
ROOT
ATOM      1  N   UNL     1       2.248  -3.429  -0.889  0.00  0.00    -0.275 N 
ATOM      2  C   UNL     1       1.520  -2.325  -0.628  0.00  0.00    +0.250 C 
ATOM      3  O   UNL     1       0.980  -1.725  -1.538  0.00  0.00    -0.270 OA
ATOM      4  H   UNL     1       2.737  -3.972  -0.067  0.00  0.00    +0.156 HD
ENDROOT
BRANCH   1  12
ATOM      5  C   UNL     1       2.670  -5.697  -8.362  0.00  0.00    +0.008 C 
ATOM      6  C   UNL     1       2.566  -5.748  -6.836  0.00  0.00    -0.009 C 
ATOM      7  C   UNL     1       3.928  -6.117  -6.241  0.00  0.00    +0.008 C 
ATOM      8  C   UNL     1       3.779  -6.412  -4.747  0.00  0.00    +0.037 C 
ATOM      9  C   UNL     1       3.061  -5.242  -4.085  0.00  0.00    -0.023 A 
ATOM     10  C   UNL     1       2.349  -4.358  -4.818  0.00  0.00    -0.004 A 
ATOM     11  S   UNL     1       1.712  -3.201  -3.639  0.00  0.00    -0.077 S 
ATOM     12  C   UNL     1       2.381  -3.880  -2.192  0.00  0.00    +0.085 A 
ATOM     13  C   UNL     1       3.086  -4.982  -2.656  0.00  0.00    +0.068 A 
ATOM     14  C   UNL     1       2.151  -4.369  -6.303  0.00  0.00    +0.046 C 
BRANCH  13  15
ATOM     15  C   UNL     1       3.824  -5.854  -1.737  0.00  0.00    +0.244 C 
ATOM     16  O   UNL     1       3.272  -6.816  -1.236  0.00  0.00    -0.270 OA
ATOM     17  N   UNL     1       5.114  -5.590  -1.448  0.00  0.00    -0.325 N 
ATOM     18  H   UNL     1       5.668  -6.244  -0.759  0.00  0.00    +0.145 HD
ATOM     19  H   UNL     1       5.612  -4.721  -1.901  0.00  0.00    +0.145 HD
ENDBRANCH  13  15
ENDBRANCH   1  12
BRANCH   2  20
ATOM     20  C   UNL     1       1.380  -1.845   0.758  0.00  0.00    +0.059 A 
ATOM     21  C   UNL     1       2.003  -2.529   1.805  0.00  0.00    +0.015 A 
ATOM     22  C   UNL     1       1.862  -2.079   3.100  0.00  0.00    +0.001 A 
ATOM     23  C   UNL     1       1.110  -0.946   3.369  0.00  0.00    +0.002 A 
ATOM     24  C   UNL     1       0.493  -0.257   2.346  0.00  0.00    +0.025 A 
ATOM     25  C   UNL     1       0.623  -0.696   1.034  0.00  0.00    +0.060 A 
BRANCH  25  26
ATOM     26  N   UNL     1       0.002  -0.004   0.002  0.00  0.00    -0.216 N 
ATOM     27  H   UNL     1      -0.413  -0.553  -0.857  0.00  0.00    +0.174 HD
BRANCH  26  28
ATOM     28  S   UNL     1      -0.114   1.647   0.064  0.00  0.00    +0.072 S 
ATOM     29  O   UNL     1      -0.668   2.062  -1.177  0.00  0.00    -0.150 OA
ATOM     30  O   UNL     1      -0.714   1.965   1.312  0.00  0.00    -0.150 OA
BRANCH  28  31
ATOM     31  C   UNL     1       1.529   2.282   0.119  0.00  0.00    +0.109 A 
ATOM     32  C   UNL     1       2.148   2.490   1.337  0.00  0.00    +0.032 A 
ATOM     33  C   UNL     1       3.438   2.983   1.383  0.00  0.00    +0.047 A 
ATOM     34  C   UNL     1       4.108   3.280   0.205  0.00  0.00    +0.120 A 
ATOM     35  C   UNL     1       3.482   3.076  -1.017  0.00  0.00    +0.047 A 
ATOM     36  C   UNL     1       2.194   2.578  -1.057  0.00  0.00    +0.032 A 
BRANCH  34  37
ATOM     37  O   UNL     1       5.375   3.770   0.247  0.00  0.00    -0.495 OA
ATOM     38  C   UNL     1       5.956   3.955   1.539  0.00  0.00    +0.277 C 
ENDBRANCH  34  37
ENDBRANCH  28  31
ENDBRANCH  26  28
ENDBRANCH  25  26
ENDBRANCH   2  20
TORSDOF 7
