REMARK  Name = ZINC39159972
REMARK  11 active torsions:
REMARK  status: ('A' for Active; 'I' for Inactive)
REMARK    1  A    between atoms: C_1  and  C_2
REMARK    2  A    between atoms: C_2  and  O_3
REMARK    3  A    between atoms: O_3  and  C_4
REMARK    4  A    between atoms: C_7  and  C_10
REMARK    5  A    between atoms: C_14  and  N_21
REMARK    6  A    between atoms: N_16  and  C_17
REMARK    7  A    between atoms: C_17  and  C_18
REMARK    8  A    between atoms: C_18  and  O_19
REMARK    9  A    between atoms: O_19  and  C_20
REMARK   10  A    between atoms: N_21  and  C_22
REMARK   11  A    between atoms: C_22  and  C_23
REMARK                            x       y       z     vdW  Elec       q    Type
REMARK                         _______ _______ _______ _____ _____    ______ ____
ROOT
ATOM      1  C   UNL     1       1.186  -6.031  -1.869  0.00  0.00    -0.020 C 
ATOM      2  C   UNL     1       2.636  -6.526  -1.684  0.00  0.00    +0.070 C 
ATOM      3  N   UNL     1       2.767  -7.601  -2.705  0.00  0.00    -0.317 NA
ATOM      4  C   UNL     1       1.982  -7.073  -3.850  0.00  0.00    +0.067 C 
ATOM      5  N   UNL     1       0.803  -6.411  -3.245  0.00  0.00    +0.405 N 
ATOM      6  H   UNL     1       0.023  -7.050  -3.222  0.00  0.00    -0.076 HD
ATOM      7  H   UNL     1       3.733  -7.740  -2.962  0.00  0.00    +0.121 HD
ENDROOT
BRANCH   1  11
ATOM      8  C   UNL     1       1.004  -1.787  -1.405  0.00  0.00    +0.121 A 
ATOM      9  C   UNL     1       1.973  -2.356  -2.218  0.00  0.00    +0.046 A 
ATOM     10  C   UNL     1       2.030  -3.728  -2.367  0.00  0.00    +0.005 A 
ATOM     11  C   UNL     1       1.122  -4.534  -1.705  0.00  0.00    -0.059 A 
ATOM     12  C   UNL     1       0.155  -3.970  -0.893  0.00  0.00    +0.005 A 
ATOM     13  C   UNL     1       0.098  -2.598  -0.737  0.00  0.00    +0.046 A 
BRANCH   8  14
ATOM     14  O   UNL     1       0.946  -0.437  -1.257  0.00  0.00    -0.492 OA
BRANCH  14  16
ATOM     15  C   UNL     1       1.690   1.822  -1.685  0.00  0.00    +0.048 C 
ATOM     16  C   UNL     1       1.911   0.336  -1.974  0.00  0.00    +0.225 C 
ENDBRANCH  14  16
ENDBRANCH   8  14
ENDBRANCH   1  11
BRANCH   4  17
ATOM     17  N   UNL     1       1.555  -8.174  -4.725  0.00  0.00    -0.312 NA
ATOM     18  H   UNL     1       1.157  -8.929  -4.188  0.00  0.00    +0.122 HD
BRANCH  17  19
ATOM     19  C   UNL     1       2.671  -8.649  -5.554  0.00  0.00    +0.118 C 
BRANCH  19  20
ATOM     20  C   UNL     1       2.196  -9.775  -6.436  0.00  0.00    -0.009 A 
ATOM     21  C   UNL     1       1.448  -9.645  -7.689  0.00  0.00    +0.004 A 
ATOM     22  C   UNL     1       0.967  -8.560  -8.424  0.00  0.00    +0.010 A 
ATOM     23  C   UNL     1       0.287  -8.777  -9.589  0.00  0.00    +0.001 A 
ATOM     24  C   UNL     1       0.069 -10.069 -10.048  0.00  0.00    +0.002 A 
ATOM     25  C   UNL     1       0.535 -11.155  -9.338  0.00  0.00    +0.026 A 
ATOM     26  C   UNL     1       1.231 -10.957  -8.150  0.00  0.00    +0.047 A 
ATOM     27  N   UNL     1       1.808 -11.809  -7.236  0.00  0.00    -0.360 N 
ATOM     28  C   UNL     1       2.383 -11.088  -6.226  0.00  0.00    +0.088 A 
ATOM     29  H   UNL     1       1.811 -12.777  -7.301  0.00  0.00    +0.165 HD
ENDBRANCH  19  20
ENDBRANCH  17  19
ENDBRANCH   4  17
BRANCH   5  30
ATOM     30  C   UNL     1       0.452  -5.211  -4.016  0.00  0.00    -0.045 C 
BRANCH  30  31
ATOM     31  C   UNL     1      -0.100  -5.626  -5.382  0.00  0.00    +0.141 C 
BRANCH  31  32
ATOM     32  O   UNL     1      -1.328  -6.334  -5.204  0.00  0.00    -0.385 OA
ATOM     33  C   UNL     1      -1.931  -6.769  -6.425  0.00  0.00    +0.193 C 
ENDBRANCH  31  32
ENDBRANCH  30  31
ENDBRANCH   5  30
TORSDOF 9
