REMARK  Name = ZINC01303814
REMARK  16 active torsions:
REMARK  status: ('A' for Active; 'I' for Inactive)
REMARK    1  A    between atoms: C_1  and  C_2
REMARK    2  A    between atoms: C_2  and  O_3
REMARK    3  A    between atoms: O_3  and  C_4
REMARK    4  A    between atoms: C_4  and  C_6
REMARK    5  A    between atoms: C_7  and  C_28
REMARK    6  A    between atoms: C_11  and  C_20
REMARK    7  A    between atoms: C_12  and  O_19
REMARK    8  A    between atoms: C_13  and  C_15
REMARK    9  A    between atoms: C_15  and  N_16
REMARK   10  A    between atoms: N_16  and  C_17
REMARK   11  A    between atoms: N_16  and  C_18
REMARK   12  A    between atoms: C_20  and  S_21
REMARK   13  A    between atoms: S_21  and  C_22
REMARK   14  A    between atoms: C_28  and  N_29
REMARK   15  A    between atoms: N_29  and  C_30
REMARK   16  A    between atoms: N_29  and  C_31
REMARK                            x       y       z     vdW  Elec       q    Type
REMARK                         _______ _______ _______ _____ _____    ______ ____
ROOT
ATOM      1  C   UNL     1       1.451  -2.345  -2.520  0.00  0.00    +0.106 A 
ATOM      2  C   UNL     1       2.773  -2.646  -2.647  0.00  0.00    +0.104 A 
ATOM      3  O   UNL     1       3.014  -3.123  -3.874  0.00  0.00    -0.461 OA
ATOM      4  C   UNL     1       1.886  -3.164  -4.616  0.00  0.00    +0.137 A 
ATOM      5  C   UNL     1       0.836  -2.687  -3.818  0.00  0.00    +0.042 A 
ATOM      6  C   UNL     1      -0.457  -2.622  -4.326  0.00  0.00    +0.016 A 
ATOM      7  C   UNL     1      -0.704  -3.034  -5.623  0.00  0.00    +0.123 A 
ATOM      8  C   UNL     1       0.338  -3.511  -6.413  0.00  0.00    -0.019 A 
ATOM      9  C   UNL     1       1.623  -3.569  -5.918  0.00  0.00    +0.052 A 
ENDROOT
BRANCH   1  10
ATOM     10  C   UNL     1       0.776  -1.799  -1.335  0.00  0.00    +0.343 C 
ATOM     11  O   UNL     1       0.312  -2.551  -0.499  0.00  0.00    -0.245 OA
BRANCH  10  12
ATOM     12  O   UNL     1       0.671  -0.465  -1.174  0.00  0.00    -0.461 OA
BRANCH  12  14
ATOM     13  C   UNL     1      -0.019   1.526   0.010  0.00  0.00    +0.048 C 
ATOM     14  C   UNL     1       0.002  -0.004   0.002  0.00  0.00    +0.229 C 
ENDBRANCH  12  14
ENDBRANCH  10  12
ENDBRANCH   1  10
BRANCH   7  15
ATOM     15  O   UNL     1      -1.965  -2.974  -6.127  0.00  0.00    -0.506 OA
ATOM     16  H   UNL     1      -2.175  -2.136  -6.562  0.00  0.00    +0.292 HD
ENDBRANCH   7  15
BRANCH   8  17
ATOM     17  C   UNL     1       0.060  -3.958  -7.825  0.00  0.00    -0.040 C 
BRANCH  17  18
ATOM     18  N   UNL     1      -0.024  -2.783  -8.703  0.00  0.00    +0.379 N 
ATOM     19  C   UNL     1       1.285  -2.118  -8.756  0.00  0.00    -0.096 C 
ATOM     20  C   UNL     1      -0.412  -3.208 -10.054  0.00  0.00    -0.096 C 
ATOM     21  H   UNL     1      -0.713  -2.141  -8.341  0.00  0.00    -0.082 HD
ENDBRANCH  17  18
ENDBRANCH   8  17
BRANCH   6  22
ATOM     22  C   UNL     1      -1.583  -2.106  -3.467  0.00  0.00    +0.114 C 
BRANCH  22  23
ATOM     23  S   UNL     1      -1.735  -0.312  -3.683  0.00  0.00    -0.120 S 
BRANCH  23  24
ATOM     24  C   UNL     1      -3.075   0.133  -2.629  0.00  0.00    +0.008 A 
ATOM     25  C   UNL     1      -3.726  -0.841  -1.881  0.00  0.00    +0.015 A 
ATOM     26  C   UNL     1      -4.776  -0.489  -1.056  0.00  0.00    +0.001 A 
ATOM     27  C   UNL     1      -5.180   0.831  -0.974  0.00  0.00    +0.000 A 
ATOM     28  C   UNL     1      -4.536   1.803  -1.717  0.00  0.00    +0.001 A 
ATOM     29  C   UNL     1      -3.481   1.459  -2.540  0.00  0.00    +0.015 A 
ENDBRANCH  23  24
ENDBRANCH  22  23
ENDBRANCH   6  22
BRANCH   2  30
ATOM     30  C   UNL     1       3.809  -2.469  -1.568  0.00  0.00    -0.003 C 
BRANCH  30  31
ATOM     31  N   UNL     1       3.897  -3.696  -0.766  0.00  0.00    +0.381 N 
ATOM     32  C   UNL     1       4.989  -3.568   0.208  0.00  0.00    -0.096 C 
ATOM     33  C   UNL     1       2.629  -3.908  -0.056  0.00  0.00    -0.096 C 
ATOM     34  H   UNL     1       4.078  -4.482  -1.373  0.00  0.00    -0.082 HD
ENDBRANCH  30  31
ENDBRANCH   2  30
TORSDOF 11
