REMARK  Name = ZINC14348731
REMARK  7 active torsions:
REMARK  status: ('A' for Active; 'I' for Inactive)
REMARK    1  A    between atoms: C_4  and  C_7
REMARK    2  A    between atoms: C_7  and  C_9
REMARK    3  A    between atoms: C_7  and  N_25
REMARK    4  A    between atoms: C_9  and  C_10
REMARK    5  A    between atoms: N_12  and  C_13
REMARK    6  A    between atoms: C_13  and  C_14
REMARK    7  A    between atoms: C_14  and  C_15
REMARK                            x       y       z     vdW  Elec       q    Type
REMARK                         _______ _______ _______ _____ _____    ______ ____
ROOT
ATOM      1  C   UNL     1      -2.308   3.832   2.600  0.00  0.00    +0.215 C 
ATOM      2  O   UNL     1      -1.250   4.389   2.400  0.00  0.00    -0.276 OA
ATOM      3  N   UNL     1      -2.730   3.619   3.862  0.00  0.00    -0.315 N 
ATOM      4  H   UNL     1      -3.576   3.173   4.022  0.00  0.00    +0.149 HD
ENDROOT
BRANCH   1   5
ATOM      5  C   UNL     1      -3.152   3.377   1.437  0.00  0.00    +0.122 C 
BRANCH   5   6
ATOM      6  C   UNL     1      -2.450   3.738   0.126  0.00  0.00    +0.113 C 
BRANCH   6   7
ATOM      7  N   UNL     1      -1.200   2.981   0.017  0.00  0.00    -0.292 N 
ATOM      8  C   UNL     1      -0.181   3.466  -0.719  0.00  0.00    +0.298 C 
ATOM      9  O   UNL     1      -0.329   4.485  -1.366  0.00  0.00    -0.253 OA
ATOM     10  N   UNL     1       1.003   2.822  -0.738  0.00  0.00    -0.313 N 
ATOM     11  H   UNL     1      -1.107   2.131   0.475  0.00  0.00    +0.151 HD
ATOM     12  H   UNL     1       1.737   3.171  -1.267  0.00  0.00    +0.146 HD
ATOM     13  H   UNL     1       1.122   2.011  -0.218  0.00  0.00    +0.146 HD
ENDBRANCH   6   7
BRANCH   6  17
ATOM     14  C   UNL     1      -4.994   2.766  -3.166  0.00  0.00    +0.000 A 
ATOM     15  C   UNL     1      -4.819   4.086  -2.793  0.00  0.00    +0.000 A 
ATOM     16  C   UNL     1      -3.996   4.400  -1.728  0.00  0.00    +0.005 A 
ATOM     17  C   UNL     1      -3.348   3.395  -1.035  0.00  0.00    -0.027 A 
ATOM     18  C   UNL     1      -3.518   2.076  -1.411  0.00  0.00    +0.005 A 
ATOM     19  C   UNL     1      -4.345   1.761  -2.473  0.00  0.00    +0.000 A 
ENDBRANCH   6  17
ENDBRANCH   5   6
ENDBRANCH   1   5
BRANCH   3  20
ATOM     20  C   UNL     1      -1.909   4.061   4.993  0.00  0.00    +0.104 C 
BRANCH  20  21
ATOM     21  C   UNL     1      -2.611   3.700   6.304  0.00  0.00    +0.025 C 
BRANCH  21  22
ATOM     22  C   UNL     1      -1.754   4.161   7.484  0.00  0.00    -0.027 C 
ATOM     23  C   UNL     1      -0.392   3.467   7.428  0.00  0.00    +0.010 C 
ATOM     24  C   UNL     1       0.465   3.929   8.608  0.00  0.00    -0.010 C 
ATOM     25  C   UNL     1      -0.237   3.568   9.919  0.00  0.00    +0.007 C 
ATOM     26  C   UNL     1      -1.600   4.262   9.976  0.00  0.00    -0.010 C 
ATOM     27  C   UNL     1      -2.456   3.801   8.795  0.00  0.00    +0.010 C 
ATOM     28  C   UNL     1      -1.403   5.778   9.902  0.00  0.00    +0.007 C 
ATOM     29  C   UNL     1      -0.702   6.138   8.591  0.00  0.00    -0.010 C 
ATOM     30  C   UNL     1       0.661   5.444   8.535  0.00  0.00    +0.007 C 
ATOM     31  C   UNL     1      -1.558   5.677   7.411  0.00  0.00    +0.010 C 
ENDBRANCH  21  22
ENDBRANCH  20  21
ENDBRANCH   3  20
TORSDOF 7
