REMARK  Name = ZINC05021561
REMARK  7 active torsions:
REMARK  status: ('A' for Active; 'I' for Inactive)
REMARK    1  A    between atoms: C_1  and  C_2
REMARK    2  A    between atoms: C_5  and  C_8
REMARK    3  A    between atoms: C_11  and  S_14
REMARK    4  A    between atoms: N_12  and  N_13
REMARK    5  A    between atoms: S_14  and  C_15
REMARK    6  A    between atoms: C_15  and  C_16
REMARK    7  A    between atoms: N_18  and  C_19
REMARK                            x       y       z     vdW  Elec       q    Type
REMARK                         _______ _______ _______ _____ _____    ______ ____
ROOT
ATOM      1  S   UNL     1      -7.182   0.935   2.518  0.00  0.00    -0.075 S 
ENDROOT
BRANCH   1   5
ATOM      2  C   UNL     1     -11.036   0.290   2.561  0.00  0.00    +0.182 A 
ATOM      3  N   UNL     1     -10.644  -0.373   1.498  0.00  0.00    -0.127 NA
ATOM      4  N   UNL     1      -9.374  -0.249   1.347  0.00  0.00    -0.121 NA
ATOM      5  C   UNL     1      -8.875   0.494   2.309  0.00  0.00    +0.209 A 
ATOM      6  N   UNL     1      -9.915   0.867   3.113  0.00  0.00    -0.224 N 
BRANCH   2  11
ATOM      7  C   UNL     1     -16.424   0.713   4.536  0.00  0.00    +0.044 C 
ATOM      8  C   UNL     1     -15.013   0.602   4.019  0.00  0.00    -0.050 A 
ATOM      9  C   UNL     1     -14.050   1.498   4.447  0.00  0.00    +0.004 A 
ATOM     10  C   UNL     1     -12.756   1.403   3.978  0.00  0.00    +0.012 A 
ATOM     11  C   UNL     1     -12.420   0.399   3.068  0.00  0.00    +0.021 A 
ATOM     12  C   UNL     1     -13.397  -0.498   2.636  0.00  0.00    +0.012 A 
ATOM     13  C   UNL     1     -14.686  -0.395   3.117  0.00  0.00    +0.004 A 
ENDBRANCH   2  11
BRANCH   6  14
ATOM     14  N   UNL     1      -9.854   1.649   4.231  0.00  0.00    -0.295 N 
ATOM     15  H   UNL     1     -10.063   2.611   4.011  0.00  0.00    +0.163 HD
ATOM     16  H   UNL     1     -10.471   1.300   4.950  0.00  0.00    +0.163 HD
ENDBRANCH   6  14
ENDBRANCH   1   5
BRANCH   1  17
ATOM     17  C   UNL     1      -6.457   0.082   1.097  0.00  0.00    +0.173 C 
BRANCH  17  18
ATOM     18  C   UNL     1      -4.970   0.324   1.071  0.00  0.00    +0.224 C 
ATOM     19  O   UNL     1      -4.451   1.007   1.929  0.00  0.00    -0.275 OA
ATOM     20  N   UNL     1      -4.216  -0.218   0.094  0.00  0.00    -0.309 N 
ATOM     21  H   UNL     1      -4.630  -0.764  -0.593  0.00  0.00    +0.149 HD
BRANCH  20  22
ATOM     22  C   UNL     1      -2.770   0.018   0.068  0.00  0.00    +0.035 C 
ATOM     23  C   UNL     1      -2.157  -0.704  -1.133  0.00  0.00    +0.029 C 
ATOM     24  C   UNL     1      -0.647  -0.458  -1.160  0.00  0.00    -0.008 C 
ATOM     25  C   UNL     1      -0.020  -0.992   0.130  0.00  0.00    +0.007 C 
ATOM     26  C   UNL     1      -0.634  -0.270   1.331  0.00  0.00    -0.008 C 
ATOM     27  C   UNL     1      -2.143  -0.516   1.358  0.00  0.00    +0.029 C 
ATOM     28  C   UNL     1      -0.363   1.231   1.217  0.00  0.00    +0.007 C 
ATOM     29  C   UNL     1      -0.990   1.765  -0.073  0.00  0.00    -0.008 C 
ATOM     30  C   UNL     1      -0.377   1.044  -1.275  0.00  0.00    +0.007 C 
ATOM     31  C   UNL     1      -2.500   1.519  -0.046  0.00  0.00    +0.029 C 
ENDBRANCH  20  22
ENDBRANCH  17  18
ENDBRANCH   1  17
TORSDOF 6
