REMARK  Name = ZINC38659109
REMARK  9 active torsions:
REMARK  status: ('A' for Active; 'I' for Inactive)
REMARK    1  A    between atoms: C_1  and  C_2
REMARK    2  A    between atoms: C_5  and  C_7
REMARK    3  A    between atoms: C_12  and  O_21
REMARK    4  A    between atoms: C_16  and  N_20
REMARK    5  A    between atoms: C_17  and  C_18
REMARK    6  A    between atoms: O_21  and  C_22
REMARK    7  A    between atoms: C_22  and  C_24
REMARK    8  A    between atoms: C_24  and  O_25
REMARK    9  A    between atoms: O_25  and  C_26
REMARK                            x       y       z     vdW  Elec       q    Type
REMARK                         _______ _______ _______ _____ _____    ______ ____
ROOT
ATOM      1  C   UNL     1       1.723  -3.201   0.005  0.00  0.00    +0.134 C 
ATOM      2  C   UNL     1       2.567  -3.155  -1.241  0.00  0.00    +0.011 A 
ATOM      3  C   UNL     1       2.046  -3.622  -2.434  0.00  0.00    +0.012 A 
ATOM      4  C   UNL     1       2.806  -3.588  -3.587  0.00  0.00    +0.047 A 
ATOM      5  C   UNL     1       4.099  -3.084  -3.550  0.00  0.00    +0.135 A 
ATOM      6  C   UNL     1       4.624  -2.617  -2.356  0.00  0.00    +0.093 A 
ATOM      7  C   UNL     1       3.858  -2.651  -1.198  0.00  0.00    +0.138 A 
ATOM      8  O   UNL     1       4.387  -2.190  -0.038  0.00  0.00    -0.441 OA
ATOM      9  C   UNL     1       3.846  -2.555   1.136  0.00  0.00    +0.199 C 
ATOM     10  C   UNL     1       2.589  -3.040   1.223  0.00  0.00    +0.101 C 
ENDROOT
BRANCH   1  15
ATOM     11  C   UNL     1      -0.272   1.427  -0.192  0.00  0.00    +0.086 C 
ATOM     12  C   UNL     1      -0.158  -0.074  -0.123  0.00  0.00    +0.102 A 
ATOM     13  C   UNL     1      -1.186  -0.939  -0.073  0.00  0.00    +0.044 A 
ATOM     14  C   UNL     1      -0.627  -2.237  -0.019  0.00  0.00    +0.046 A 
ATOM     15  C   UNL     1       0.710  -2.086  -0.038  0.00  0.00    +0.118 A 
ATOM     16  O   UNL     1       0.988  -0.774  -0.107  0.00  0.00    -0.464 OA
ENDBRANCH   1  15
BRANCH   9  17
ATOM     17  N   UNL     1       4.594  -2.430   2.281  0.00  0.00    -0.328 N 
ATOM     18  H   UNL     1       5.498  -2.083   2.234  0.00  0.00    +0.145 HD
ATOM     19  H   UNL     1       4.218  -2.689   3.136  0.00  0.00    +0.145 HD
ENDBRANCH   9  17
BRANCH  10  20
ATOM     20  C   UNL     1       2.071  -3.409   2.506  0.00  0.00    +0.101 C 
ATOM     21  N   UNL     1       1.660  -3.702   3.523  0.00  0.00    -0.191 NA
ENDBRANCH  10  20
BRANCH   5  22
ATOM     22  O   UNL     1       4.848  -3.051  -4.683  0.00  0.00    -0.423 OA
BRANCH  22  23
ATOM     23  C   UNL     1       5.902  -3.878  -4.766  0.00  0.00    +0.350 C 
ATOM     24  O   UNL     1       6.100  -4.695  -3.898  0.00  0.00    -0.247 OA
BRANCH  23  25
ATOM     25  C   UNL     1       6.840  -3.789  -5.943  0.00  0.00    +0.349 C 
BRANCH  25  26
ATOM     26  O   UNL     1       7.873  -4.766  -5.804  0.00  0.00    -0.481 OA
BRANCH  26  27
ATOM     27  C   UNL     1       8.809  -4.819  -6.789  0.00  0.00    +0.121 A 
ATOM     28  C   UNL     1       8.736  -3.944  -7.864  0.00  0.00    +0.047 A 
ATOM     29  C   UNL     1       9.688  -4.000  -8.864  0.00  0.00    +0.023 A 
ATOM     30  C   UNL     1      10.712  -4.927  -8.794  0.00  0.00    +0.041 A 
ATOM     31  C   UNL     1      10.786  -5.800  -7.723  0.00  0.00    +0.023 A 
ATOM     32  C   UNL     1       9.841  -5.743  -6.718  0.00  0.00    +0.047 A 
ATOM     33 CL   UNL     1      11.907  -4.995 -10.052  0.00  0.00    -0.084 Cl
ENDBRANCH  26  27
ENDBRANCH  25  26
ENDBRANCH  23  25
ENDBRANCH  22  23
ENDBRANCH   5  22
TORSDOF 8
