REMARK  Name = ZINC04317755
REMARK  7 active torsions:
REMARK  status: ('A' for Active; 'I' for Inactive)
REMARK    1  A    between atoms: C_1  and  C_2
REMARK    2  A    between atoms: C_3  and  N_9
REMARK    3  A    between atoms: C_13  and  N_17
REMARK    4  A    between atoms: N_17  and  C_18
REMARK    5  A    between atoms: C_21  and  N_24
REMARK    6  A    between atoms: N_24  and  C_25
REMARK    7  A    between atoms: N_24  and  C_26
REMARK                            x       y       z     vdW  Elec       q    Type
REMARK                         _______ _______ _______ _____ _____    ______ ____
ROOT
ATOM      1  N   UNL     1      -0.020   0.026  -2.386  0.00  0.00    -0.209 N 
ATOM      2  C   UNL     1       1.098   0.390  -3.026  0.00  0.00    +0.228 C 
ATOM      3  O   UNL     1       2.228   0.173  -2.644  0.00  0.00    -0.275 OA
ATOM      4  C   UNL     1       0.727   1.114  -4.302  0.00  0.00    +0.128 C 
ATOM      5  C   UNL     1      -0.815   1.106  -4.288  0.00  0.00    +0.166 C 
ATOM      6  C   UNL     1      -1.154   0.373  -3.008  0.00  0.00    +0.247 C 
ATOM      7  O   UNL     1      -2.274   0.139  -2.609  0.00  0.00    -0.273 OA
ENDROOT
BRANCH   1  10
ATOM      8  C   UNL     1      -0.018   1.543   0.023  0.00  0.00    +0.047 C 
ATOM      9  C   UNL     1      -0.004   0.036   0.031  0.00  0.00    -0.010 A 
ATOM     10  C   UNL     1      -0.006  -0.666  -1.167  0.00  0.00    +0.048 A 
ATOM     11  C   UNL     1       0.007  -2.054  -1.155  0.00  0.00    +0.024 A 
ATOM     12  C   UNL     1       0.022  -2.733   0.047  0.00  0.00    +0.003 A 
ATOM     13  C   UNL     1       0.022  -2.033   1.239  0.00  0.00    +0.020 A 
ATOM     14  C   UNL     1       0.015  -0.649   1.232  0.00  0.00    +0.046 A 
ATOM     15 CL   UNL     1       0.024   0.227   2.730  0.00  0.00    -0.083 Cl
ENDBRANCH   1  10
BRANCH   5  16
ATOM     16  N   UNL     1      -1.337   2.474  -4.261  0.00  0.00    -0.333 N 
ATOM     17  H   UNL     1      -0.796   3.194  -3.900  0.00  0.00    +0.147 HD
BRANCH  16  18
ATOM     18  C   UNL     1      -2.618   2.744  -4.758  0.00  0.00    +0.028 A 
ATOM     19  C   UNL     1      -3.396   1.714  -5.270  0.00  0.00    +0.025 A 
ATOM     20  C   UNL     1      -4.659   1.980  -5.760  0.00  0.00    +0.025 A 
ATOM     21  C   UNL     1      -5.152   3.278  -5.740  0.00  0.00    +0.029 A 
ATOM     22  C   UNL     1      -4.375   4.308  -5.227  0.00  0.00    +0.025 A 
ATOM     23  C   UNL     1      -3.114   4.041  -4.733  0.00  0.00    +0.025 A 
BRANCH  21  24
ATOM     24  N   UNL     1      -6.433   3.548  -6.237  0.00  0.00    -0.336 N 
ATOM     25  C   UNL     1      -7.203   2.488  -6.892  0.00  0.00    +0.129 C 
ATOM     26  C   UNL     1      -7.003   4.891  -6.103  0.00  0.00    +0.129 C 
ENDBRANCH  21  24
ENDBRANCH  16  18
ENDBRANCH   5  16
TORSDOF 4
