REMARK  Name = ZINC21333500
REMARK  12 active torsions:
REMARK  status: ('A' for Active; 'I' for Inactive)
REMARK    1  A    between atoms: C_1  and  N_2
REMARK    2  A    between atoms: N_2  and  C_3
REMARK    3  A    between atoms: N_2  and  C_4
REMARK    4  A    between atoms: C_4  and  C_6
REMARK    5  A    between atoms: C_4  and  C_27
REMARK    6  A    between atoms: C_6  and  N_7
REMARK    7  A    between atoms: C_8  and  C_10
REMARK    8  A    between atoms: C_10  and  S_11
REMARK    9  A    between atoms: S_11  and  C_12
REMARK   10  A    between atoms: C_12  and  C_13
REMARK   11  A    between atoms: C_32  and  O_33
REMARK   12  A    between atoms: O_33  and  C_34
REMARK                            x       y       z     vdW  Elec       q    Type
REMARK                         _______ _______ _______ _____ _____    ______ ____
ROOT
ATOM      1  N   UNL     1      -0.398   1.300   2.176  0.00  0.00    -0.316 N 
ATOM      2  C   UNL     1      -1.210   1.904   3.066  0.00  0.00    +0.223 C 
ATOM      3  O   UNL     1      -1.665   1.274   3.997  0.00  0.00    -0.275 OA
ATOM      4  H   UNL     1      -0.034   1.803   1.432  0.00  0.00    +0.149 HD
ENDROOT
BRANCH   1   5
ATOM      5  C   UNL     1      -0.065  -0.118   2.334  0.00  0.00    +0.093 C 
BRANCH   5   6
ATOM      6  C   UNL     1       0.766  -0.584   1.136  0.00  0.00    -0.017 C 
BRANCH   6   7
ATOM      7  C   UNL     1      -0.070  -0.504  -0.115  0.00  0.00    -0.018 A 
ATOM      8  C   UNL     1       0.078   0.564  -0.979  0.00  0.00    +0.005 A 
ATOM      9  C   UNL     1      -0.689   0.638  -2.127  0.00  0.00    +0.000 A 
ATOM     10  C   UNL     1      -1.605  -0.357  -2.414  0.00  0.00    +0.004 A 
ATOM     11  C   UNL     1      -1.756  -1.428  -1.554  0.00  0.00    +0.046 A 
ATOM     12  C   UNL     1      -0.984  -1.507  -0.404  0.00  0.00    +0.122 A 
BRANCH  12  13
ATOM     13  O   UNL     1      -1.127  -2.562   0.441  0.00  0.00    -0.495 OA
ATOM     14  C   UNL     1      -2.088  -3.556   0.080  0.00  0.00    +0.277 C 
ENDBRANCH  12  13
ENDBRANCH   6   7
BRANCH   6  16
ATOM     15  C   UNL     1       2.690   0.306   2.259  0.00  0.00    -0.096 C 
ATOM     16  N   UNL     1       1.945   0.280   0.993  0.00  0.00    +0.382 N 
ATOM     17  C   UNL     1       2.809  -0.244  -0.073  0.00  0.00    -0.096 C 
ATOM     18  H   UNL     1       1.650   1.216   0.757  0.00  0.00    -0.082 HD
ENDBRANCH   6  16
ENDBRANCH   5   6
ENDBRANCH   1   5
BRANCH   2  19
ATOM     19  C   UNL     1      -1.552   3.363   2.904  0.00  0.00    +0.165 C 
BRANCH  19  20
ATOM     20  S   UNL     1      -2.655   3.878   4.249  0.00  0.00    -0.144 S 
BRANCH  20  21
ATOM     21  C   UNL     1      -2.968   5.633   3.912  0.00  0.00    +0.143 C 
BRANCH  21  22
ATOM     22  C   UNL     1      -3.884   6.192   4.970  0.00  0.00    +0.121 A 
ATOM     23  N   UNL     1      -4.256   7.496   4.908  0.00  0.00    -0.310 N 
ATOM     24  H   UNL     1      -3.927   8.050   4.182  0.00  0.00    +0.170 HD
ATOM     25  C   UNL     1      -5.072   8.037   5.832  0.00  0.00    +0.260 A 
ATOM     26  O   UNL     1      -5.398   9.209   5.764  0.00  0.00    -0.267 OA
ATOM     27  C   UNL     1      -5.551   7.207   6.898  0.00  0.00    +0.075 A 
ATOM     28  C   UNL     1      -6.443   7.580   8.006  0.00  0.00    -0.023 A 
ATOM     29  C   UNL     1      -6.750   6.614   8.889  0.00  0.00    -0.004 A 
ATOM     30  S   UNL     1      -5.889   5.171   8.310  0.00  0.00    -0.073 S 
ATOM     31  C   UNL     1      -5.115   5.876   6.879  0.00  0.00    +0.116 A 
ATOM     32  N   UNL     1      -4.310   5.411   5.927  0.00  0.00    -0.226 NA
ATOM     33  C   UNL     1      -7.662   7.111   9.980  0.00  0.00    +0.043 C 
ATOM     34  C   UNL     1      -7.550   8.649   9.907  0.00  0.00    +0.010 C 
ATOM     35  C   UNL     1      -7.155   8.866   8.433  0.00  0.00    +0.037 C 
ENDBRANCH  21  22
ENDBRANCH  20  21
ENDBRANCH  19  20
ENDBRANCH   2  19
TORSDOF 9
