REMARK  Name = ZINC19799211
REMARK  9 active torsions:
REMARK  status: ('A' for Active; 'I' for Inactive)
REMARK    1  A    between atoms: C_1  and  C_2
REMARK    2  A    between atoms: C_2  and  O_3
REMARK    3  A    between atoms: O_3  and  C_4
REMARK    4  A    between atoms: C_7  and  C_10
REMARK    5  A    between atoms: N_15  and  C_29
REMARK    6  A    between atoms: C_19  and  C_27
REMARK    7  A    between atoms: C_20  and  N_26
REMARK    8  A    between atoms: C_21  and  C_22
REMARK    9  A    between atoms: C_21  and  C_24
REMARK                            x       y       z     vdW  Elec       q    Type
REMARK                         _______ _______ _______ _____ _____    ______ ____
ROOT
ATOM      1  C   UNL     1      -1.605   0.356   4.240  0.00  0.00    +0.067 C 
ATOM      2  C   UNL     1      -0.799   1.551   3.727  0.00  0.00    +0.044 C 
ATOM      3  C   UNL     1      -0.064   1.226   2.446  0.00  0.00    +0.093 C 
ATOM      4  N   UNL     1      -0.775   1.721   1.264  0.00  0.00    -0.301 NA
ATOM      5  C   UNL     1      -0.927   3.185   1.338  0.00  0.00    +0.111 C 
ATOM      6  C   UNL     1      -1.782   3.497   2.541  0.00  0.00    -0.007 C 
ATOM      7  C   UNL     1      -1.728   2.726   3.611  0.00  0.00    -0.026 C 
ATOM      8  C   UNL     1      -2.651   2.974   4.746  0.00  0.00    +0.074 C 
ATOM      9  C   UNL     1      -2.836   2.002   5.676  0.00  0.00    +0.054 C 
ATOM     10  C   UNL     1      -2.133   0.679   5.639  0.00  0.00    +0.188 C 
ATOM     11  C   UNL     1      -0.085   1.325   0.030  0.00  0.00    +0.105 C 
ENDROOT
BRANCH   1  15
ATOM     12  C   UNL     1      -4.887  -0.393   1.608  0.00  0.00    +0.121 A 
ATOM     13  C   UNL     1      -3.656  -0.985   1.369  0.00  0.00    +0.046 A 
ATOM     14  C   UNL     1      -2.596  -0.741   2.222  0.00  0.00    +0.007 A 
ATOM     15  C   UNL     1      -2.763   0.092   3.312  0.00  0.00    -0.041 A 
ATOM     16  C   UNL     1      -3.991   0.679   3.556  0.00  0.00    +0.007 A 
ATOM     17  C   UNL     1      -5.052   0.442   2.703  0.00  0.00    +0.046 A 
BRANCH  12  18
ATOM     18  O   UNL     1      -5.931  -0.631   0.771  0.00  0.00    -0.492 OA
BRANCH  18  20
ATOM     19  C   UNL     1      -8.218  -0.373   0.033  0.00  0.00    +0.048 C 
ATOM     20  C   UNL     1      -7.170   0.011   1.079  0.00  0.00    +0.225 C 
ENDBRANCH  18  20
ENDBRANCH  12  18
ENDBRANCH   1  15
BRANCH   9  21
ATOM     21  N   UNL     1      -3.708   2.244   6.699  0.00  0.00    -0.358 N 
ATOM     22  H   UNL     1      -3.880   1.476   7.468  0.00  0.00    +0.142 HD
ATOM     23  H   UNL     1      -4.239   3.205   6.754  0.00  0.00    +0.142 HD
ENDBRANCH   9  21
BRANCH  10  24
ATOM     24  C   UNL     1      -1.005   0.708   6.583  0.00  0.00    +0.091 C 
ATOM     25  N   UNL     1      -0.134   0.731   7.312  0.00  0.00    -0.194 NA
ENDBRANCH  10  24
BRANCH  10  26
ATOM     26  C   UNL     1      -3.075  -0.376   6.049  0.00  0.00    +0.091 C 
ATOM     27  N   UNL     1      -3.801  -1.190   6.366  0.00  0.00    -0.194 NA
ENDBRANCH  10  26
BRANCH   8  28
ATOM     28  C   UNL     1      -3.340   4.225   4.859  0.00  0.00    +0.101 C 
ATOM     29  N   UNL     1      -3.885   5.217   4.950  0.00  0.00    -0.191 NA
ENDBRANCH   8  28
TORSDOF 7
