REMARK  Name = ZINC09406771
REMARK  8 active torsions:
REMARK  status: ('A' for Active; 'I' for Inactive)
REMARK    1  A    between atoms: C_1  and  C_2
REMARK    2  A    between atoms: C_2  and  C_3
REMARK    3  A    between atoms: C_3  and  C_5
REMARK    4  A    between atoms: C_3  and  N_6
REMARK    5  A    between atoms: C_7  and  C_9
REMARK    6  A    between atoms: N_14  and  S_15
REMARK    7  A    between atoms: S_15  and  C_18
REMARK    8  A    between atoms: C_25  and  C_28
REMARK                            x       y       z     vdW  Elec       q    Type
REMARK                         _______ _______ _______ _____ _____    ______ ____
ROOT
ATOM      1  S   UNL     1      -2.754  -0.153   1.166  0.00  0.00    +0.062 S 
ATOM      2  O   UNL     1      -3.502  -1.184   0.537  0.00  0.00    -0.153 OA
ATOM      3  O   UNL     1      -1.523  -0.402   1.831  0.00  0.00    -0.153 OA
ENDROOT
BRANCH   1   4
ATOM      4  C   UNL     1      -3.823   0.596   2.349  0.00  0.00    +0.108 A 
ATOM      5  C   UNL     1      -3.281   1.262   3.440  0.00  0.00    +0.030 A 
ATOM      6  C   UNL     1      -4.102   1.858   4.373  0.00  0.00    +0.030 A 
ATOM      7  C   UNL     1      -5.480   1.783   4.226  0.00  0.00    +0.067 A 
ATOM      8  C   UNL     1      -6.029   1.104   3.124  0.00  0.00    +0.091 A 
ATOM      9  C   UNL     1      -5.176   0.511   2.187  0.00  0.00    +0.058 A 
ATOM     10  N   UNL     1      -7.377   1.187   3.233  0.00  0.00    -0.228 NA
ATOM     11  C   UNL     1      -7.690   1.862   4.312  0.00  0.00    +0.139 A 
ATOM     12  N   UNL     1      -6.551   2.253   4.961  0.00  0.00    -0.338 N 
ATOM     13  H   UNL     1      -6.502   2.780   5.809  0.00  0.00    +0.167 HD
BRANCH  11  14
ATOM     14  C   UNL     1      -9.069   2.158   4.761  0.00  0.00    +0.017 A 
ATOM     15  C   UNL     1      -9.283   2.883   5.933  0.00  0.00    +0.011 A 
ATOM     16  C   UNL     1     -10.571   3.159   6.344  0.00  0.00    +0.001 A 
ATOM     17  C   UNL     1     -11.649   2.709   5.601  0.00  0.00    +0.000 A 
ATOM     18  C   UNL     1     -11.443   1.985   4.441  0.00  0.00    +0.001 A 
ATOM     19  C   UNL     1     -10.159   1.707   4.016  0.00  0.00    +0.011 A 
ENDBRANCH  11  14
ENDBRANCH   1   4
BRANCH   1  24
ATOM     20  C   UNL     1      -1.330   1.944   0.019  0.00  0.00    +0.165 C 
ATOM     21  C   UNL     1      -1.455   2.813  -1.251  0.00  0.00    +0.031 C 
ATOM     22  C   UNL     1      -2.953   2.665  -1.626  0.00  0.00    +0.019 C 
ATOM     23  C   UNL     1      -3.231   1.194  -1.226  0.00  0.00    +0.110 C 
ATOM     24  N   UNL     1      -2.441   0.982   0.001  0.00  0.00    -0.165 NA
BRANCH  20  26
ATOM     25  N   UNL     1       1.143   1.898   0.001  0.00  0.00    -0.311 N 
ATOM     26  C   UNL     1      -0.014   1.209   0.009  0.00  0.00    +0.232 C 
ATOM     27  O   UNL     1       0.002  -0.004   0.002  0.00  0.00    -0.274 OA
ATOM     28  H   UNL     1       1.130   2.868   0.007  0.00  0.00    +0.149 HD
BRANCH  25  29
ATOM     29  C   UNL     1       2.422   1.183  -0.015  0.00  0.00    +0.070 C 
ATOM     30  C   UNL     1       2.819   0.817   1.417  0.00  0.00    +0.028 C 
BRANCH  29  32
ATOM     31  C   UNL     1       3.165   2.343  -2.099  0.00  0.00    +0.005 C 
ATOM     32  C   UNL     1       3.499   2.078  -0.630  0.00  0.00    +0.018 C 
ENDBRANCH  29  32
ENDBRANCH  25  29
ENDBRANCH  20  26
ENDBRANCH   1  24
TORSDOF 6
