REMARK  Name = ZINC03368457
REMARK  10 active torsions:
REMARK  status: ('A' for Active; 'I' for Inactive)
REMARK    1  A    between atoms: C_1  and  C_2
REMARK    2  A    between atoms: C_2  and  C_3
REMARK    3  A    between atoms: C_6  and  S_9
REMARK    4  A    between atoms: S_9  and  N_12
REMARK    5  A    between atoms: N_12  and  C_13
REMARK    6  A    between atoms: C_16  and  N_23
REMARK    7  A    between atoms: N_23  and  S_24
REMARK    8  A    between atoms: S_24  and  C_27
REMARK    9  A    between atoms: C_30  and  C_33
REMARK   10  A    between atoms: C_33  and  C_34
REMARK                            x       y       z     vdW  Elec       q    Type
REMARK                         _______ _______ _______ _____ _____    ______ ____
ROOT
ATOM      1  C   UNL     1      -0.653   2.814   6.427  0.00  0.00    +0.056 A 
ATOM      2  C   UNL     1      -0.243   4.117   6.248  0.00  0.00    +0.027 A 
ATOM      3  C   UNL     1       1.090   4.477   6.425  0.00  0.00    +0.027 A 
ATOM      4  C   UNL     1       2.032   3.539   6.784  0.00  0.00    +0.056 A 
ATOM      5  C   UNL     1       1.645   2.196   6.975  0.00  0.00    +0.006 A 
ATOM      6  C   UNL     1       0.287   1.831   6.800  0.00  0.00    +0.006 A 
ATOM      7  C   UNL     1      -0.095   0.493   6.984  0.00  0.00    +0.010 A 
ATOM      8  C   UNL     1       0.839  -0.432   7.339  0.00  0.00    +0.001 A 
ATOM      9  C   UNL     1       2.173  -0.072   7.517  0.00  0.00    +0.001 A 
ATOM     10  C   UNL     1       2.580   1.215   7.341  0.00  0.00    +0.010 A 
ENDROOT
BRANCH   1  11
ATOM     11  N   UNL     1      -1.995   2.469   6.245  0.00  0.00    -0.216 N 
ATOM     12  H   UNL     1      -2.402   1.792   6.808  0.00  0.00    +0.174 HD
BRANCH  11  13
ATOM     13  S   UNL     1      -2.890   3.216   5.069  0.00  0.00    +0.072 S 
ATOM     14  O   UNL     1      -2.759   4.614   5.284  0.00  0.00    -0.150 OA
ATOM     15  O   UNL     1      -4.153   2.564   5.044  0.00  0.00    -0.150 OA
BRANCH  13  19
ATOM     16  C   UNL     1      -0.899   2.326   1.102  0.00  0.00    -0.048 A 
ATOM     17  C   UNL     1      -0.529   3.445   1.825  0.00  0.00    +0.005 A 
ATOM     18  C   UNL     1      -1.140   3.718   3.035  0.00  0.00    +0.029 A 
ATOM     19  C   UNL     1      -2.115   2.869   3.525  0.00  0.00    +0.109 A 
ATOM     20  C   UNL     1      -2.480   1.748   2.804  0.00  0.00    +0.029 A 
ATOM     21  C   UNL     1      -1.872   1.476   1.593  0.00  0.00    +0.005 A 
BRANCH  16  23
ATOM     22  C   UNL     1      -1.026   2.698  -1.346  0.00  0.00    +0.009 C 
ATOM     23  C   UNL     1      -0.236   2.030  -0.219  0.00  0.00    +0.032 C 
ENDBRANCH  16  23
ENDBRANCH  13  19
ENDBRANCH  11  13
ENDBRANCH   1  11
BRANCH   4  24
ATOM     24  N   UNL     1       3.367   3.916   6.959  0.00  0.00    -0.216 N 
ATOM     25  H   UNL     1       4.080   3.310   6.704  0.00  0.00    +0.174 HD
BRANCH  24  26
ATOM     26  S   UNL     1       3.731   5.399   7.601  0.00  0.00    +0.072 S 
ATOM     27  O   UNL     1       5.141   5.431   7.775  0.00  0.00    -0.150 OA
ATOM     28  O   UNL     1       3.038   6.361   6.818  0.00  0.00    -0.150 OA
BRANCH  26  29
ATOM     29  C   UNL     1       3.023   5.456   9.213  0.00  0.00    +0.109 A 
ATOM     30  C   UNL     1       1.736   5.932   9.387  0.00  0.00    +0.029 A 
ATOM     31  C   UNL     1       1.179   5.973  10.651  0.00  0.00    +0.005 A 
ATOM     32  C   UNL     1       1.912   5.547  11.743  0.00  0.00    -0.048 A 
ATOM     33  C   UNL     1       3.200   5.077  11.571  0.00  0.00    +0.005 A 
ATOM     34  C   UNL     1       3.756   5.032  10.306  0.00  0.00    +0.029 A 
BRANCH  32  35
ATOM     35  C   UNL     1       1.306   5.596  13.122  0.00  0.00    +0.032 C 
ATOM     36  C   UNL     1       1.613   6.949  13.767  0.00  0.00    +0.009 C 
ENDBRANCH  32  35
ENDBRANCH  26  29
ENDBRANCH  24  26
ENDBRANCH   4  24
TORSDOF 8
