REMARK  Name = ZINC66421360
REMARK  6 active torsions:
REMARK  status: ('A' for Active; 'I' for Inactive)
REMARK    1  A    between atoms: C_1  and  C_2
REMARK    2  A    between atoms: C_2  and  C_4
REMARK    3  A    between atoms: C_2  and  N_14
REMARK    4  A    between atoms: C_18  and  N_21
REMARK    5  A    between atoms: N_21  and  S_22
REMARK    6  A    between atoms: S_22  and  C_25
REMARK                            x       y       z     vdW  Elec       q    Type
REMARK                         _______ _______ _______ _____ _____    ______ ____
ROOT
ATOM      1  N   UNL     1      -1.376  -0.512   0.012  0.00  0.00    +0.385 N 
ATOM      2  C   UNL     1      -2.065  -0.031   1.216  0.00  0.00    -0.078 C 
ATOM      3  C   UNL     1      -3.524  -0.491   1.192  0.00  0.00    -0.017 C 
ATOM      4  C   UNL     1      -3.571  -2.021   1.152  0.00  0.00    +0.017 C 
ATOM      5  C   UNL     1      -2.787  -2.515  -0.067  0.00  0.00    +0.060 C 
ATOM      6  C   UNL     1      -1.355  -1.980   0.004  0.00  0.00    -0.057 C 
ATOM      7  H   UNL     1      -1.863  -0.180  -0.807  0.00  0.00    -0.081 HD
ENDROOT
BRANCH   1   9
ATOM      8  C   UNL     1      -0.019   1.526   0.010  0.00  0.00    -0.008 C 
ATOM      9  C   UNL     1       0.002  -0.004   0.002  0.00  0.00    -0.040 C 
BRANCH   9  10
ATOM     10  C   UNL     1       0.707  -0.490  -1.238  0.00  0.00    -0.053 A 
ATOM     11  C   UNL     1      -0.008  -0.813  -2.350  0.00  0.00    +0.002 A 
ATOM     12  C   UNL     1       0.626  -1.264  -3.505  0.00  0.00    +0.001 A 
ATOM     13  C   UNL     1       1.980  -1.395  -3.556  0.00  0.00    +0.008 A 
ATOM     14  C   UNL     1       2.753  -1.071  -2.428  0.00  0.00    -0.018 A 
ATOM     15  C   UNL     1       2.107  -0.607  -1.254  0.00  0.00    -0.016 A 
ATOM     16  C   UNL     1       2.881  -0.277  -0.127  0.00  0.00    +0.009 A 
ATOM     17  C   UNL     1       4.235  -0.403  -0.180  0.00  0.00    +0.001 A 
ATOM     18  C   UNL     1       4.870  -0.853  -1.336  0.00  0.00    +0.001 A 
ATOM     19  C   UNL     1       4.153  -1.194  -2.441  0.00  0.00    +0.008 A 
ENDBRANCH   9  10
ENDBRANCH   1   9
BRANCH   5  20
ATOM     20  N   UNL     1      -2.763  -3.979  -0.073  0.00  0.00    -0.194 NA
ATOM     21  H   UNL     1      -2.090  -4.456   0.437  0.00  0.00    +0.148 HD
BRANCH  20  22
ATOM     22  S   UNL     1      -3.887  -4.822  -0.950  0.00  0.00    +0.027 S 
ATOM     23  O   UNL     1      -3.585  -6.189  -0.709  0.00  0.00    -0.158 OA
ATOM     24  O   UNL     1      -5.139  -4.276  -0.555  0.00  0.00    -0.158 OA
ATOM     25  C   UNL     1      -3.540  -4.401  -2.680  0.00  0.00    +0.214 C 
ENDBRANCH  20  22
ENDBRANCH   5  20
TORSDOF 4
