REMARK  Name = ZINC39542718
REMARK  6 active torsions:
REMARK  status: ('A' for Active; 'I' for Inactive)
REMARK    1  A    between atoms: C_3  and  C_9
REMARK    2  A    between atoms: C_9  and  N_10
REMARK    3  A    between atoms: C_16  and  C_18
REMARK    4  A    between atoms: C_18  and  C_19
REMARK    5  A    between atoms: C_24  and  C_27
REMARK    6  A    between atoms: C_27  and  O_28
REMARK                            x       y       z     vdW  Elec       q    Type
REMARK                         _______ _______ _______ _____ _____    ______ ____
ROOT
ATOM      1  N   UNL     1       4.274   2.233   1.180  0.00  0.00    -0.285 NA
ATOM      2  C   UNL     1       3.516   3.046   2.146  0.00  0.00    +0.104 C 
ATOM      3  C   UNL     1       3.861   2.576   3.560  0.00  0.00    +0.119 C 
ATOM      4  N   UNL     1       5.310   2.515   3.728  0.00  0.00    -0.313 N 
ATOM      5  C   UNL     1       6.160   2.485   2.697  0.00  0.00    +0.231 C 
ATOM      6  O   UNL     1       7.349   2.404   2.926  0.00  0.00    -0.274 OA
ATOM      7  C   UNL     1       5.706   2.549   1.266  0.00  0.00    +0.152 C 
ATOM      8  H   UNL     1       5.671   2.496   4.628  0.00  0.00    +0.149 HD
ENDROOT
BRANCH   1   9
ATOM      9  C   UNL     1       3.772   2.434  -0.186  0.00  0.00    +0.121 C 
BRANCH   9  12
ATOM     10  C   UNL     1       0.003   2.530  -0.385  0.00  0.00    +0.039 A 
ATOM     11  C   UNL     1       1.323   2.934  -0.314  0.00  0.00    +0.009 A 
ATOM     12  C   UNL     1       2.333   1.992  -0.262  0.00  0.00    -0.015 A 
ATOM     13  C   UNL     1       2.024   0.643  -0.281  0.00  0.00    +0.048 A 
ATOM     14  C   UNL     1       0.704   0.238  -0.351  0.00  0.00    +0.058 A 
ATOM     15  C   UNL     1      -0.308   1.181  -0.404  0.00  0.00    +0.125 A 
ATOM     16  F   UNL     1      -1.598   0.786  -0.473  0.00  0.00    -0.205 F 
ATOM     17 CL   UNL     1       3.293  -0.539  -0.216  0.00  0.00    -0.083 Cl
ENDBRANCH   9  12
ENDBRANCH   1   9
BRANCH   7  18
ATOM     18  C   UNL     1       6.500   1.538   0.436  0.00  0.00    +0.124 C 
BRANCH  18  19
ATOM     19  C   UNL     1       6.308   0.157   1.008  0.00  0.00    +0.218 C 
ATOM     20  O   UNL     1       5.527  -0.019   1.920  0.00  0.00    -0.276 OA
ATOM     21  N   UNL     1       7.003  -0.883   0.507  0.00  0.00    -0.301 N 
ATOM     22  C   UNL     1       7.957  -0.685  -0.593  0.00  0.00    +0.108 C 
ATOM     23  C   UNL     1       7.611  -1.656  -1.726  0.00  0.00    +0.025 C 
ATOM     24  C   UNL     1       7.574  -3.084  -1.175  0.00  0.00    +0.017 C 
ATOM     25  C   UNL     1       6.490  -3.190  -0.101  0.00  0.00    +0.025 C 
ATOM     26  C   UNL     1       6.827  -2.235   1.055  0.00  0.00    +0.108 C 
BRANCH  24  27
ATOM     27  C   UNL     1       7.263  -4.060  -2.312  0.00  0.00    +0.159 C 
BRANCH  27  28
ATOM     28  O   UNL     1       7.342  -5.401  -1.823  0.00  0.00    -0.395 OA
ATOM     29  H   UNL     1       7.156  -6.075  -2.491  0.00  0.00    +0.209 HD
ENDBRANCH  27  28
ENDBRANCH  24  27
ENDBRANCH  18  19
ENDBRANCH   7  18
TORSDOF 6
