REMARK  Name = ZINC67605956
REMARK  2 active torsions:
REMARK  status: ('A' for Active; 'I' for Inactive)
REMARK    1  A    between atoms: C_4  and  C_7
REMARK    2  A    between atoms: C_7  and  N_8
REMARK                            x       y       z     vdW  Elec       q    Type
REMARK                         _______ _______ _______ _____ _____    ______ ____
ROOT
ATOM      1  N   UNL     1       4.152  -0.952   1.338  0.00  0.00    -0.309 N 
ATOM      2  C   UNL     1       5.339  -1.616   1.574  0.00  0.00    +0.221 A 
ATOM      3  N   UNL     1       6.085  -2.028   0.554  0.00  0.00    -0.181 NA
ATOM      4  C   UNL     1       7.228  -2.667   0.782  0.00  0.00    +0.218 A 
ATOM      5  N   UNL     1       7.625  -2.894   2.030  0.00  0.00    -0.181 NA
ATOM      6  C   UNL     1       6.879  -2.482   3.050  0.00  0.00    +0.224 A 
ATOM      7  N   UNL     1       5.738  -1.839   2.822  0.00  0.00    -0.181 NA
ATOM      8  N   UNL     1       7.291  -2.719   4.346  0.00  0.00    -0.299 N 
ATOM      9  C   UNL     1       6.562  -2.324   5.566  0.00  0.00    +0.108 C 
ATOM     10  C   UNL     1       7.058  -3.303   6.661  0.00  0.00    +0.025 C 
ATOM     11  C   UNL     1       8.545  -3.470   6.275  0.00  0.00    -0.027 C 
ATOM     12  C   UNL     1       8.528  -3.412   4.740  0.00  0.00    +0.113 C 
ATOM     13  C   UNL     1       9.063  -4.819   6.755  0.00  0.00    +0.005 C 
ATOM     14  C   UNL     1       9.092  -4.831   8.287  0.00  0.00    -0.019 C 
ATOM     15  C   UNL     1       9.932  -3.651   8.782  0.00  0.00    -0.083 C 
ATOM     16  N   UNL     1       9.336  -2.390   8.322  0.00  0.00    +0.379 N 
ATOM     17  C   UNL     1       9.370  -2.330   6.855  0.00  0.00    -0.074 C 
ATOM     18  N   UNL     1       8.002  -3.095  -0.278  0.00  0.00    -0.327 N 
ATOM     19  H   UNL     1       3.610  -0.648   2.082  0.00  0.00    +0.149 HD
ATOM     20  H   UNL     1       8.379  -2.337   8.638  0.00  0.00    -0.086 HD
ATOM     21  H   UNL     1       7.712  -2.929  -1.188  0.00  0.00    +0.145 HD
ATOM     22  H   UNL     1       8.836  -3.562  -0.112  0.00  0.00    +0.145 HD
ATOM     23  H   UNL     1       9.858  -1.615   8.702  0.00  0.00    -0.086 HD
ENDROOT
BRANCH   1  24
ATOM     24  C   UNL     1       3.711  -0.707  -0.038  0.00  0.00    +0.139 C 
BRANCH  24  28
ATOM     25  C   UNL     1      -0.017   1.378   0.010  0.00  0.00    +0.000 A 
ATOM     26  C   UNL     1       1.171   2.086   0.002  0.00  0.00    +0.000 A 
ATOM     27  C   UNL     1       2.377   1.411  -0.013  0.00  0.00    +0.005 A 
ATOM     28  C   UNL     1       2.396   0.029  -0.020  0.00  0.00    -0.030 A 
ATOM     29  C   UNL     1       1.208  -0.679  -0.012  0.00  0.00    +0.005 A 
ATOM     30  C   UNL     1       0.002  -0.004   0.002  0.00  0.00    +0.000 A 
ENDBRANCH  24  28
ENDBRANCH   1  24
TORSDOF 2
