REMARK  Name = ZINC35341238
REMARK  5 active torsions:
REMARK  status: ('A' for Active; 'I' for Inactive)
REMARK    1  A    between atoms: C_1  and  C_2
REMARK    2  A    between atoms: C_7  and  N_12
REMARK    3  A    between atoms: C_9  and  C_11
REMARK    4  A    between atoms: N_12  and  C_13
REMARK    5  A    between atoms: C_18  and  N_19
REMARK                            x       y       z     vdW  Elec       q    Type
REMARK                         _______ _______ _______ _____ _____    ______ ____
ROOT
ATOM      1  C   UNL     1      -0.884  -3.826   1.752  0.00  0.00    +0.049 A 
ATOM      2  C   UNL     1       0.147  -4.608   2.251  0.00  0.00    +0.030 A 
ATOM      3  C   UNL     1      -0.120  -5.868   2.753  0.00  0.00    -0.024 A 
ATOM      4  C   UNL     1      -1.421  -6.354   2.759  0.00  0.00    +0.038 A 
ATOM      5  C   UNL     1      -2.456  -5.575   2.261  0.00  0.00    +0.048 A 
ATOM      6  C   UNL     1      -2.192  -4.309   1.763  0.00  0.00    +0.047 A 
ATOM      7  N   UNL     1      -1.686  -7.632   3.268  0.00  0.00    -0.285 N 
ATOM      8  C   UNL     1      -0.799  -8.242   4.075  0.00  0.00    +0.218 C 
ATOM      9  O   UNL     1      -1.037  -9.354   4.496  0.00  0.00    -0.275 OA
ATOM     10  C   UNL     1       0.485  -7.559   4.462  0.00  0.00    +0.101 C 
ATOM     11  C   UNL     1       1.000  -6.718   3.294  0.00  0.00    +0.046 C 
ATOM     12  H   UNL     1      -2.514  -8.081   3.036  0.00  0.00    +0.155 HD
ENDROOT
BRANCH   6  13
ATOM     13  N   UNL     1      -3.235  -3.519   1.265  0.00  0.00    -0.356 N 
ATOM     14  H   UNL     1      -3.048  -2.635   0.913  0.00  0.00    +0.142 HD
ATOM     15  H   UNL     1      -4.145  -3.856   1.273  0.00  0.00    +0.142 HD
ENDBRANCH   6  13
BRANCH   1  16
ATOM     16  N   UNL     1      -0.612  -2.548   1.244  0.00  0.00    -0.339 N 
ATOM     17  H   UNL     1      -1.333  -2.000   0.898  0.00  0.00    +0.146 HD
BRANCH  16  23
ATOM     18  C   UNL     1      -0.019   1.526   0.010  0.00  0.00    +0.008 C 
ATOM     19  C   UNL     1       0.002  -0.004   0.002  0.00  0.00    -0.009 C 
ATOM     20  C   UNL     1       0.718  -0.497  -1.257  0.00  0.00    +0.003 C 
ATOM     21  C   UNL     1       0.739  -2.027  -1.265  0.00  0.00    +0.002 C 
ATOM     22  C   UNL     1       1.479  -2.534  -0.026  0.00  0.00    +0.022 C 
ATOM     23  C   UNL     1       0.763  -2.041   1.233  0.00  0.00    +0.074 C 
ATOM     24  C   UNL     1       0.742  -0.511   1.242  0.00  0.00    +0.009 C 
ATOM     25  C   UNL     1       0.026  -0.018   2.500  0.00  0.00    +0.009 C 
ENDBRANCH  16  23
ENDBRANCH   1  16
TORSDOF 3
