REMARK  Name = ZINC04236763
REMARK  14 active torsions:
REMARK  status: ('A' for Active; 'I' for Inactive)
REMARK    1  A    between atoms: C_1  and  C_2
REMARK    2  A    between atoms: C_5  and  O_30
REMARK    3  A    between atoms: C_7  and  C_27
REMARK    4  A    between atoms: C_7  and  C_28
REMARK    5  A    between atoms: C_12  and  O_26
REMARK    6  A    between atoms: C_14  and  C_16
REMARK    7  A    between atoms: C_16  and  C_17
REMARK    8  A    between atoms: N_19  and  C_20
REMARK    9  A    between atoms: C_20  and  C_21
REMARK   10  A    between atoms: C_28  and  O_29
REMARK   11  A    between atoms: O_30  and  C_31
REMARK   12  A    between atoms: N_33  and  C_34
REMARK   13  A    between atoms: C_38  and  S_40
REMARK   14  A    between atoms: S_40  and  C_41
REMARK                            x       y       z     vdW  Elec       q    Type
REMARK                         _______ _______ _______ _____ _____    ______ ____
ROOT
ATOM      1  C   UNL     1       6.019   1.983   1.806  0.00  0.00    +0.012 C 
ATOM      2  C   UNL     1       5.850   0.843   0.800  0.00  0.00    -0.023 C 
ATOM      3  C   UNL     1       4.730  -0.088   1.269  0.00  0.00    +0.011 C 
ATOM      4  C   UNL     1       3.422   0.699   1.373  0.00  0.00    +0.046 C 
ATOM      5  C   UNL     1       3.064   1.277   0.003  0.00  0.00    +0.186 C 
ATOM      6  C   UNL     1       4.184   2.209  -0.466  0.00  0.00    +0.031 C 
ATOM      7  C   UNL     1       5.492   1.422  -0.570  0.00  0.00    +0.007 C 
ATOM      8  C   UNL     1       5.322   0.282  -1.577  0.00  0.00    +0.007 C 
ATOM      9  C   UNL     1       6.630  -0.505  -1.681  0.00  0.00    +0.032 C 
ATOM     10  C   UNL     1       6.988  -1.084  -0.311  0.00  0.00    +0.119 C 
ATOM     11  C   UNL     1       7.157   0.056   0.695  0.00  0.00    +0.032 C 
ATOM     12  C   UNL     1       3.826   2.787  -1.836  0.00  0.00    +0.017 C 
ENDROOT
BRANCH  10  13
ATOM     13  O   UNL     1       8.209  -1.819  -0.409  0.00  0.00    -0.391 OA
ATOM     14  H   UNL     1       8.174  -2.559  -1.031  0.00  0.00    +0.210 HD
ENDBRANCH  10  13
BRANCH  11  15
ATOM     15  C   UNL     1       8.277   0.987   0.227  0.00  0.00    +0.102 C 
BRANCH  15  16
ATOM     16  C   UNL     1       9.612   0.337   0.482  0.00  0.00    +0.214 C 
ATOM     17  O   UNL     1       9.667  -0.729   1.059  0.00  0.00    -0.276 OA
ATOM     18  N   UNL     1      10.745   0.939   0.071  0.00  0.00    -0.308 N 
ATOM     19  H   UNL     1      10.702   1.791  -0.390  0.00  0.00    +0.149 HD
BRANCH  18  20
ATOM     20  C   UNL     1      12.043   0.306   0.319  0.00  0.00    +0.178 C 
BRANCH  20  21
ATOM     21  C   UNL     1      13.141   1.176  -0.236  0.00  0.00    +0.122 A 
ATOM     22  C   UNL     1      13.781   2.155   0.428  0.00  0.00    +0.046 A 
ATOM     23  C   UNL     1      14.729   2.705  -0.465  0.00  0.00    +0.041 A 
ATOM     24  C   UNL     1      14.605   2.035  -1.625  0.00  0.00    +0.195 A 
ATOM     25  O   UNL     1      13.642   1.110  -1.480  0.00  0.00    -0.466 OA
ENDBRANCH  20  21
ENDBRANCH  18  20
ENDBRANCH  15  16
ENDBRANCH  11  15
BRANCH   6  26
ATOM     26  C   UNL     1       4.354   3.349   0.541  0.00  0.00    +0.166 C 
BRANCH  26  27
ATOM     27  O   UNL     1       3.202   4.194   0.502  0.00  0.00    -0.394 OA
ATOM     28  H   UNL     1       3.241   4.940   1.116  0.00  0.00    +0.209 HD
ENDBRANCH  26  27
ENDBRANCH   6  26
BRANCH   5  29
ATOM     29  O   UNL     1       1.823   2.024   0.102  0.00  0.00    -0.446 OA
BRANCH  29  30
ATOM     30  C   UNL     1       0.681   1.344  -0.114  0.00  0.00    +0.405 C 
ATOM     31  O   UNL     1       0.721   0.159  -0.379  0.00  0.00    -0.226 OA
ATOM     32  N   UNL     1      -0.505   1.979  -0.043  0.00  0.00    -0.251 N 
ATOM     33  H   UNL     1      -0.542   2.909   0.232  0.00  0.00    +0.158 HD
BRANCH  32  34
ATOM     34  C   UNL     1      -1.685   1.298  -0.365  0.00  0.00    +0.037 A 
ATOM     35  C   UNL     1      -2.728   1.970  -0.991  0.00  0.00    +0.023 A 
ATOM     36  C   UNL     1      -3.890   1.297  -1.313  0.00  0.00    +0.003 A 
ATOM     37  C   UNL     1      -4.024  -0.043  -1.006  0.00  0.00    +0.015 A 
ATOM     38  C   UNL     1      -2.987  -0.721  -0.376  0.00  0.00    +0.009 A 
ATOM     39  C   UNL     1      -1.815  -0.048  -0.055  0.00  0.00    +0.038 A 
BRANCH  38  40
ATOM     40  S   UNL     1      -3.159  -2.430   0.016  0.00  0.00    -0.129 S 
ATOM     41  C   UNL     1      -4.818  -2.853  -0.583  0.00  0.00    +0.090 C 
ENDBRANCH  38  40
ENDBRANCH  32  34
ENDBRANCH  29  30
ENDBRANCH   5  29
TORSDOF 11
