REMARK  Name = ZINC34920225
REMARK  7 active torsions:
REMARK  status: ('A' for Active; 'I' for Inactive)
REMARK    1  A    between atoms: C_1  and  C_2
REMARK    2  A    between atoms: C_9  and  C_13
REMARK    3  A    between atoms: N_15  and  C_16
REMARK    4  A    between atoms: C_16  and  C_17
REMARK    5  A    between atoms: C_17  and  C_18
REMARK    6  A    between atoms: N_23  and  C_24
REMARK    7  A    between atoms: C_25  and  C_27
REMARK                            x       y       z     vdW  Elec       q    Type
REMARK                         _______ _______ _______ _____ _____    ______ ____
ROOT
ATOM      1  C   UNL     1      -0.551  -0.234  -1.179  0.00  0.00    +0.007 C 
ATOM      2  C   UNL     1       0.247  -1.043  -0.154  0.00  0.00    -0.014 C 
ATOM      3  C   UNL     1      -0.491  -2.347   0.153  0.00  0.00    +0.008 C 
ATOM      4  C   UNL     1       0.311  -3.159   1.172  0.00  0.00    +0.056 C 
ATOM      5  C   UNL     1       0.476  -2.346   2.456  0.00  0.00    +0.139 C 
ATOM      6  C   UNL     1       1.204  -1.035   2.154  0.00  0.00    +0.056 C 
ATOM      7  C   UNL     1       0.400  -0.229   1.132  0.00  0.00    +0.008 C 
ATOM      8  N   UNL     1      -0.846  -2.057   3.032  0.00  0.00    -0.259 N 
ATOM      9  C   UNL     1      -0.862  -2.701   4.365  0.00  0.00    +0.190 C 
ATOM     10  C   UNL     1       0.250  -3.772   4.240  0.00  0.00    +0.194 C 
ATOM     11  O   UNL     1       1.231  -3.106   3.413  0.00  0.00    -0.354 OA
ATOM     12  C   UNL     1      -1.841  -1.348   2.462  0.00  0.00    +0.221 C 
ATOM     13  O   UNL     1      -1.704  -0.902   1.343  0.00  0.00    -0.275 OA
ENDROOT
BRANCH  12  14
ATOM     14  C   UNL     1      -3.125  -1.112   3.216  0.00  0.00    +0.075 C 
ATOM     15  C   UNL     1      -4.309  -1.740   2.453  0.00  0.00    +0.013 C 
ATOM     16  C   UNL     1      -5.473  -0.741   2.668  0.00  0.00    +0.001 C 
ATOM     17  C   UNL     1      -4.761   0.633   2.596  0.00  0.00    +0.001 C 
ATOM     18  C   UNL     1      -3.412   0.397   3.307  0.00  0.00    +0.013 C 
ENDBRANCH  12  14
BRANCH   9  19
ATOM     19  C   UNL     1      -2.200  -3.342   4.632  0.00  0.00    +0.236 C 
ATOM     20  O   UNL     1      -2.982  -3.514   3.721  0.00  0.00    -0.274 OA
ATOM     21  N   UNL     1      -2.526  -3.724   5.882  0.00  0.00    -0.314 N 
ATOM     22  H   UNL     1      -1.900  -3.587   6.610  0.00  0.00    +0.149 HD
BRANCH  21  23
ATOM     23  C   UNL     1      -3.826  -4.348   6.142  0.00  0.00    +0.102 C 
BRANCH  23  24
ATOM     24  C   UNL     1      -3.943  -4.683   7.630  0.00  0.00    +0.003 C 
BRANCH  24  25
ATOM     25  C   UNL     1      -5.301  -5.334   7.901  0.00  0.00    -0.068 C 
ATOM     26  C   UNL     1      -5.421  -5.729   9.394  0.00  0.00    -0.017 C 
ATOM     27  C   UNL     1      -6.960  -5.750   9.590  0.00  0.00    -0.020 C 
ATOM     28  C   UNL     1      -7.441  -4.593   8.689  0.00  0.00    -0.079 C 
ATOM     29  N   UNL     1      -6.392  -4.362   7.676  0.00  0.00    +0.380 N 
ATOM     30  C   UNL     1      -6.950  -4.547   6.330  0.00  0.00    -0.096 C 
ATOM     31  H   UNL     1      -6.034  -3.423   7.768  0.00  0.00    -0.082 HD
ENDBRANCH  24  25
ENDBRANCH  23  24
ENDBRANCH  21  23
ENDBRANCH   9  19
TORSDOF 5
