REMARK  Name = ZINC63165339
REMARK  10 active torsions:
REMARK  status: ('A' for Active; 'I' for Inactive)
REMARK    1  A    between atoms: C_1  and  C_2
REMARK    2  A    between atoms: C_2  and  O_3
REMARK    3  A    between atoms: O_3  and  C_4
REMARK    4  A    between atoms: C_7  and  N_10
REMARK    5  A    between atoms: C_11  and  S_24
REMARK    6  A    between atoms: C_15  and  C_16
REMARK    7  A    between atoms: C_16  and  O_17
REMARK    8  A    between atoms: O_17  and  C_18
REMARK    9  A    between atoms: S_24  and  C_25
REMARK   10  A    between atoms: C_25  and  C_26
REMARK                            x       y       z     vdW  Elec       q    Type
REMARK                         _______ _______ _______ _____ _____    ______ ____
ROOT
ATOM      1  N   UNL     1       1.129  -5.956   1.758  0.00  0.00    -0.255 N 
ATOM      2  C   UNL     1       1.872  -6.671   2.810  0.00  0.00    +0.241 C 
ATOM      3  N   UNL     1       1.663  -8.092   2.482  0.00  0.00    -0.237 N 
ATOM      4  N   UNL     1       0.862  -8.112   1.334  0.00  0.00    -0.170 NA
ATOM      5  C   UNL     1       0.567  -6.926   0.943  0.00  0.00    +0.160 C 
ATOM      6  H   UNL     1       2.010  -8.859   2.965  0.00  0.00    +0.171 HD
ENDROOT
BRANCH   1  10
ATOM      7  C   UNL     1       0.770  -1.825   1.328  0.00  0.00    +0.121 A 
ATOM      8  C   UNL     1       0.257  -2.671   0.356  0.00  0.00    +0.047 A 
ATOM      9  C   UNL     1       0.375  -4.039   0.497  0.00  0.00    +0.027 A 
ATOM     10  C   UNL     1       1.009  -4.569   1.613  0.00  0.00    +0.038 A 
ATOM     11  C   UNL     1       1.523  -3.722   2.587  0.00  0.00    +0.027 A 
ATOM     12  C   UNL     1       1.408  -2.354   2.441  0.00  0.00    +0.047 A 
BRANCH   7  13
ATOM     13  O   UNL     1       0.654  -0.478   1.188  0.00  0.00    -0.492 OA
BRANCH  13  15
ATOM     14  C   UNL     1      -0.049   1.526   0.035  0.00  0.00    +0.048 C 
ATOM     15  C   UNL     1      -0.015  -0.003   0.017  0.00  0.00    +0.225 C 
ENDBRANCH  13  15
ENDBRANCH   7  13
ENDBRANCH   1  10
BRANCH   5  16
ATOM     16  C   UNL     1      -0.285  -6.624  -0.262  0.00  0.00    +0.302 C 
BRANCH  16  17
ATOM     17  O   UNL     1      -0.803  -7.844  -0.798  0.00  0.00    -0.484 OA
BRANCH  17  18
ATOM     18  C   UNL     1      -1.598  -7.747  -1.895  0.00  0.00    +0.121 A 
ATOM     19  C   UNL     1      -1.870  -6.505  -2.450  0.00  0.00    +0.045 A 
ATOM     20  C   UNL     1      -2.678  -6.410  -3.566  0.00  0.00    +0.004 A 
ATOM     21  C   UNL     1      -3.216  -7.551  -4.131  0.00  0.00    +0.000 A 
ATOM     22  C   UNL     1      -2.948  -8.790  -3.580  0.00  0.00    +0.004 A 
ATOM     23  C   UNL     1      -2.135  -8.892  -2.467  0.00  0.00    +0.045 A 
ENDBRANCH  17  18
ENDBRANCH  16  17
ENDBRANCH   5  16
BRANCH   2  24
ATOM     24  S   UNL     1       3.636  -6.251   2.742  0.00  0.00    -0.114 S 
BRANCH  24  25
ATOM     25  C   UNL     1       4.149  -6.777   1.084  0.00  0.00    +0.119 C 
BRANCH  25  26
ATOM     26  C   UNL     1       5.637  -6.476   0.891  0.00  0.00    +0.184 C 
ATOM     27  N   UNL     1       6.425  -7.139   1.937  0.00  0.00    -0.363 N 
ATOM     28  C   UNL     1       7.047  -6.211   2.605  0.00  0.00    +0.060 A 
ATOM     29  C   UNL     1       7.969  -6.251   3.748  0.00  0.00    +0.027 A 
ATOM     30  C   UNL     1       8.469  -5.100   4.240  0.00  0.00    +0.002 A 
ATOM     31  C   UNL     1       8.144  -3.841   3.703  0.00  0.00    +0.002 A 
ATOM     32  C   UNL     1       7.309  -3.692   2.655  0.00  0.00    +0.027 A 
ATOM     33  C   UNL     1       6.704  -4.879   2.036  0.00  0.00    +0.060 A 
ATOM     34  N   UNL     1       5.883  -5.035   1.038  0.00  0.00    -0.363 N 
ATOM     35  H   UNL     1       6.473  -8.094   2.101  0.00  0.00    +0.162 HD
ATOM     36  H   UNL     1       5.503  -4.330   0.491  0.00  0.00    +0.162 HD
ENDBRANCH  25  26
ENDBRANCH  24  25
ENDBRANCH   2  24
TORSDOF 9
