REMARK  Name = ZINC40621694
REMARK  7 active torsions:
REMARK  status: ('A' for Active; 'I' for Inactive)
REMARK    1  A    between atoms: C_4  and  C_7
REMARK    2  A    between atoms: C_7  and  C_8
REMARK    3  A    between atoms: C_7  and  C_14
REMARK    4  A    between atoms: N_16  and  N_17
REMARK    5  A    between atoms: C_19  and  N_35
REMARK    6  A    between atoms: C_20  and  N_24
REMARK    7  A    between atoms: N_24  and  C_25
REMARK                            x       y       z     vdW  Elec       q    Type
REMARK                         _______ _______ _______ _____ _____    ______ ____
ROOT
ATOM      1  N   UNL     1       4.632  -3.381  -2.526  0.00  0.00    -0.246 N 
ATOM      2  C   UNL     1       5.697  -4.232  -2.779  0.00  0.00    +0.170 A 
ATOM      3  C   UNL     1       5.655  -5.116  -3.853  0.00  0.00    +0.206 A 
ATOM      4  C   UNL     1       6.750  -5.948  -4.064  0.00  0.00    +0.155 A 
ATOM      5  N   UNL     1       7.791  -5.869  -3.237  0.00  0.00    -0.218 NA
ATOM      6  C   UNL     1       7.793  -5.019  -2.231  0.00  0.00    +0.225 A 
ATOM      7  N   UNL     1       6.778  -4.211  -2.001  0.00  0.00    -0.217 NA
ATOM      8  H   UNL     1       3.848  -3.403  -3.097  0.00  0.00    +0.172 HD
ENDROOT
BRANCH   1  11
ATOM      9  C   UNL     1       3.652  -1.665  -1.200  0.00  0.00    +0.241 C 
ATOM     10  O   UNL     1       2.672  -1.691  -1.914  0.00  0.00    -0.273 OA
ATOM     11  N   UNL     1       4.687  -2.491  -1.446  0.00  0.00    -0.235 N 
ATOM     12  H   UNL     1       5.471  -2.470  -0.874  0.00  0.00    +0.173 HD
BRANCH   9  13
ATOM     13  C   UNL     1       3.711  -0.707  -0.038  0.00  0.00    +0.136 C 
BRANCH  13  17
ATOM     14  C   UNL     1       0.102   1.573   0.113  0.00  0.00    +0.000 A 
ATOM     15  C   UNL     1       1.325   2.216   0.082  0.00  0.00    +0.000 A 
ATOM     16  C   UNL     1       2.493   1.478   0.034  0.00  0.00    +0.005 A 
ATOM     17  C   UNL     1       2.438   0.097   0.016  0.00  0.00    -0.031 A 
ATOM     18  C   UNL     1       1.215  -0.546   0.048  0.00  0.00    +0.005 A 
ATOM     19  C   UNL     1       0.047   0.192   0.095  0.00  0.00    +0.000 A 
ENDBRANCH  13  17
BRANCH  13  20
ATOM     20  C   UNL     1       3.870  -1.483   1.245  0.00  0.00    -0.031 A 
ATOM     21  C   UNL     1       3.012  -2.528   1.531  0.00  0.00    +0.005 A 
ATOM     22  C   UNL     1       3.158  -3.240   2.707  0.00  0.00    +0.000 A 
ATOM     23  C   UNL     1       4.161  -2.906   3.597  0.00  0.00    +0.000 A 
ATOM     24  C   UNL     1       5.020  -1.861   3.310  0.00  0.00    +0.000 A 
ATOM     25  C   UNL     1       4.877  -1.153   2.132  0.00  0.00    +0.005 A 
ENDBRANCH  13  20
ENDBRANCH   9  13
ENDBRANCH   1  11
BRANCH   3  26
ATOM     26  N   UNL     1       4.477  -5.170  -4.747  0.00  0.00    +0.063 N 
ATOM     27  O   UNL     1       4.429  -4.465  -5.727  0.00  0.00    -0.126 OA
ATOM     28  O   UNL     1       3.562  -5.919  -4.496  0.00  0.00    -0.126 OA
ENDBRANCH   3  26
BRANCH   4  29
ATOM     29  N   UNL     1       6.757  -6.847  -5.120  0.00  0.00    -0.322 N 
ATOM     30  H   UNL     1       5.995  -6.898  -5.718  0.00  0.00    +0.148 HD
BRANCH  29  31
ATOM     31  C   UNL     1       7.916  -7.718  -5.332  0.00  0.00    +0.034 C 
ATOM     32  C   UNL     1       8.126  -8.597  -4.098  0.00  0.00    +0.029 C 
ATOM     33  C   UNL     1       9.336  -9.507  -4.320  0.00  0.00    -0.008 C 
ATOM     34  C   UNL     1       9.089 -10.394  -5.541  0.00  0.00    +0.007 C 
ATOM     35  C   UNL     1       8.879  -9.515  -6.776  0.00  0.00    -0.008 C 
ATOM     36  C   UNL     1       7.669  -8.605  -6.554  0.00  0.00    +0.029 C 
ATOM     37  C   UNL     1      10.124  -8.659  -7.011  0.00  0.00    +0.007 C 
ATOM     38  C   UNL     1      10.371  -7.772  -5.790  0.00  0.00    -0.008 C 
ATOM     39  C   UNL     1      10.582  -8.650  -4.555  0.00  0.00    +0.007 C 
ATOM     40  C   UNL     1       9.162  -6.862  -5.567  0.00  0.00    +0.029 C 
ENDBRANCH  29  31
ENDBRANCH   4  29
TORSDOF 7
