REMARK  Name = ZINC65248041
REMARK  6 active torsions:
REMARK  status: ('A' for Active; 'I' for Inactive)
REMARK    1  A    between atoms: C_7  and  C_10
REMARK    2  A    between atoms: C_10  and  C_11
REMARK    3  A    between atoms: C_11  and  N_12
REMARK    4  A    between atoms: C_13  and  C_15
REMARK    5  A    between atoms: C_15  and  C_16
REMARK    6  A    between atoms: C_26  and  C_28
REMARK                            x       y       z     vdW  Elec       q    Type
REMARK                         _______ _______ _______ _____ _____    ______ ____
ROOT
ATOM      1  C   UNL     1      -1.986  -7.025  -4.059  0.00  0.00    +0.222 C 
ATOM      2  N   UNL     1      -0.735  -7.565  -4.623  0.00  0.00    -0.174 NA
ATOM      3  N   UNL     1      -0.439  -8.762  -4.598  0.00  0.00    -0.082 NA
ATOM      4  C   UNL     1      -1.211  -9.716  -4.018  0.00  0.00    +0.276 C 
ATOM      5  O   UNL     1      -0.947 -10.892  -4.108  0.00  0.00    -0.270 OA
ATOM      6  C   UNL     1      -2.409  -9.230  -3.261  0.00  0.00    +0.192 C 
ATOM      7  N   UNL     1      -2.958  -8.097  -4.078  0.00  0.00    -0.187 NA
ATOM      8  N   UNL     1      -4.194  -7.973  -3.543  0.00  0.00    -0.275 N 
ATOM      9  C   UNL     1      -4.665  -9.302  -3.411  0.00  0.00    +0.047 C 
ATOM     10  C   UNL     1      -3.600 -10.149  -3.225  0.00  0.00    +0.027 C 
ATOM     11  H   UNL     1      -4.656  -7.155  -3.303  0.00  0.00    +0.167 HD
ENDROOT
BRANCH   9  12
ATOM     12  C   UNL     1      -6.087  -9.713  -3.450  0.00  0.00    -0.003 A 
ATOM     13  C   UNL     1      -6.430 -11.057  -3.301  0.00  0.00    +0.012 A 
ATOM     14  C   UNL     1      -7.756 -11.435  -3.338  0.00  0.00    +0.039 A 
ATOM     15  C   UNL     1      -8.746 -10.483  -3.522  0.00  0.00    +0.123 A 
ATOM     16  C   UNL     1      -8.410  -9.147  -3.670  0.00  0.00    +0.039 A 
ATOM     17  C   UNL     1      -7.087  -8.758  -3.628  0.00  0.00    +0.012 A 
ATOM     18  F   UNL     1     -10.043 -10.859  -3.557  0.00  0.00    -0.205 F 
ENDBRANCH   9  12
BRANCH   1  19
ATOM     19  C   UNL     1      -1.752  -6.557  -2.622  0.00  0.00    +0.141 C 
BRANCH  19  21
ATOM     20  N   UNL     1      -0.458  -4.798  -1.460  0.00  0.00    -0.315 N 
ATOM     21  C   UNL     1      -0.811  -5.380  -2.623  0.00  0.00    +0.216 C 
ATOM     22  O   UNL     1      -0.371  -4.957  -3.671  0.00  0.00    -0.276 OA
ATOM     23  H   UNL     1      -0.810  -5.136  -0.622  0.00  0.00    +0.149 HD
BRANCH  20  24
ATOM     24  C   UNL     1       0.457  -3.653  -1.462  0.00  0.00    +0.108 C 
BRANCH  24  25
ATOM     25  C   UNL     1       0.691  -3.186  -0.024  0.00  0.00    +0.052 C 
BRANCH  25  32
ATOM     26  C   UNL     1      -0.016   1.348   0.009  0.00  0.00    +0.001 A 
ATOM     27  C   UNL     1       1.166   2.101   0.002  0.00  0.00    +0.002 A 
ATOM     28  C   UNL     1       2.391   1.535  -0.013  0.00  0.00    +0.026 A 
ATOM     29  C   UNL     1       2.529   0.120  -0.022  0.00  0.00    +0.043 A 
ATOM     30  N   UNL     1       3.587  -0.654  -0.037  0.00  0.00    -0.380 N 
ATOM     31  C   UNL     1       3.143  -2.053  -0.041  0.00  0.00    +0.144 C 
ATOM     32  C   UNL     1       1.631  -2.008  -0.025  0.00  0.00    -0.040 C 
ATOM     33  C   UNL     1       1.295  -0.698  -0.014  0.00  0.00    -0.001 A 
ATOM     34  C   UNL     1       0.002  -0.004   0.002  0.00  0.00    +0.010 A 
ATOM     35  H   UNL     1       4.509  -0.353  -0.045  0.00  0.00    +0.160 HD
ENDBRANCH  25  32
ENDBRANCH  24  25
ENDBRANCH  20  24
ENDBRANCH  19  21
ENDBRANCH   1  19
TORSDOF 6
