REMARK  Name = ZINC05601931
REMARK  6 active torsions:
REMARK  status: ('A' for Active; 'I' for Inactive)
REMARK    1  A    between atoms: C_1  and  C_2
REMARK    2  A    between atoms: N_7  and  N_8
REMARK    3  A    between atoms: C_9  and  C_16
REMARK    4  A    between atoms: C_10  and  C_12
REMARK    5  A    between atoms: C_19  and  C_21
REMARK    6  A    between atoms: C_23  and  N_24
REMARK                            x       y       z     vdW  Elec       q    Type
REMARK                         _______ _______ _______ _____ _____    ______ ____
ROOT
ATOM      1  C   UNL     1      -1.105  -2.612   2.415  0.00  0.00    +0.046 C 
ATOM      2  C   UNL     1      -0.957  -1.876   1.108  0.00  0.00    -0.014 A 
ATOM      3  C   UNL     1      -0.610  -2.559  -0.013  0.00  0.00    +0.052 A 
ATOM      4  C   UNL     1      -0.466  -1.897  -1.238  0.00  0.00    +0.142 A 
ATOM      5  C   UNL     1      -0.679  -0.510  -1.306  0.00  0.00    +0.094 A 
ATOM      6  C   UNL     1      -0.502   0.158  -2.620  0.00  0.00    +0.108 A 
ATOM      7  N   UNL     1      -0.897   1.387  -2.834  0.00  0.00    -0.188 NA
ATOM      8  C   UNL     1       0.153  -0.657  -3.679  0.00  0.00    +0.075 A 
ATOM      9  C   UNL     1       0.292  -1.982  -3.462  0.00  0.00    +0.219 A 
ATOM     10  O   UNL     1      -0.137  -2.587  -2.347  0.00  0.00    -0.450 OA
ATOM     11  C   UNL     1      -1.032   0.209  -0.174  0.00  0.00    +0.220 A 
ATOM     12  C   UNL     1      -1.180  -0.479   1.060  0.00  0.00    +0.158 A 
ATOM     13  O   UNL     1      -1.239   1.545  -0.244  0.00  0.00    -0.285 OA
ENDROOT
BRANCH   8  14
ATOM     14  C   UNL     1       0.637  -0.033  -4.933  0.00  0.00    +0.084 A 
ATOM     15  C   UNL     1      -0.114   0.905  -5.592  0.00  0.00    +0.075 A 
ATOM     16  S   UNL     1       0.957   1.271  -6.975  0.00  0.00    -0.080 S 
ATOM     17  C   UNL     1       2.242   0.178  -6.565  0.00  0.00    +0.076 A 
ATOM     18  N   UNL     1       1.806  -0.368  -5.456  0.00  0.00    -0.244 NA
ATOM     19  C   UNL     1       3.534  -0.077  -7.299  0.00  0.00    +0.073 C 
ENDBRANCH   8  14
BRANCH   9  20
ATOM     20  C   UNL     1       0.970  -2.817  -4.518  0.00  0.00    +0.451 C 
ATOM     21  F   UNL     1       2.357  -2.726  -4.365  0.00  0.00    -0.163 F 
ATOM     22  F   UNL     1       0.572  -4.152  -4.384  0.00  0.00    -0.163 F 
ATOM     23  F   UNL     1       0.609  -2.349  -5.786  0.00  0.00    -0.163 F 
ENDBRANCH   9  20
BRANCH   7  24
ATOM     24  N   UNL     1      -1.962   1.919  -2.095  0.00  0.00    -0.282 N 
ATOM     25  H   UNL     1      -2.051   2.880  -1.997  0.00  0.00    +0.164 HD
ATOM     26  H   UNL     1      -2.610   1.327  -1.683  0.00  0.00    +0.164 HD
ENDBRANCH   7  24
BRANCH  12  27
ATOM     27  N   UNL     1      -1.526   0.182   2.160  0.00  0.00    -0.027 NA
ATOM     28  O   UNL     1      -1.718   1.384   2.112  0.00  0.00    -0.143 OA
ENDBRANCH  12  27
TORSDOF 4
