REMARK  Name = ZINC24510517
REMARK  6 active torsions:
REMARK  status: ('A' for Active; 'I' for Inactive)
REMARK    1  A    between atoms: C_6  and  S_7
REMARK    2  A    between atoms: S_7  and  N_10
REMARK    3  A    between atoms: N_18  and  C_19
REMARK    4  A    between atoms: C_19  and  C_20
REMARK    5  A    between atoms: N_22  and  C_23
REMARK    6  A    between atoms: C_24  and  C_28
REMARK                            x       y       z     vdW  Elec       q    Type
REMARK                         _______ _______ _______ _____ _____    ______ ____
ROOT
ATOM      1  C   UNL     1      -4.645   3.398  -1.132  0.00  0.00    +0.030 A 
ATOM      2  C   UNL     1      -5.810   2.660  -1.130  0.00  0.00    +0.025 A 
ATOM      3  C   UNL     1      -6.395   2.277   0.076  0.00  0.00    +0.033 A 
ATOM      4  C   UNL     1      -5.789   2.649   1.270  0.00  0.00    -0.023 A 
ATOM      5  C   UNL     1      -4.620   3.380   1.262  0.00  0.00    +0.034 A 
ATOM      6  C   UNL     1      -4.043   3.754   0.061  0.00  0.00    +0.106 A 
ATOM      7  C   UNL     1      -6.637   2.121   2.409  0.00  0.00    +0.056 C 
ATOM      8  C   UNL     1      -7.973   1.777   1.712  0.00  0.00    +0.110 C 
ATOM      9  N   UNL     1      -7.555   1.530   0.315  0.00  0.00    -0.321 N 
ENDROOT
BRANCH   6  10
ATOM     10  S   UNL     1      -2.550   4.688   0.052  0.00  0.00    +0.061 S 
ATOM     11  O   UNL     1      -2.485   5.364   1.300  0.00  0.00    -0.153 OA
ATOM     12  O   UNL     1      -2.509   5.377  -1.190  0.00  0.00    -0.153 OA
BRANCH  10  13
ATOM     13  N   UNL     1      -1.296   3.606   0.034  0.00  0.00    -0.177 NA
ATOM     14  C   UNL     1      -0.741   3.124  -1.238  0.00  0.00    +0.109 C 
ATOM     15  C   UNL     1      -0.752   1.593  -1.232  0.00  0.00    +0.017 C 
ATOM     16  C   UNL     1      -0.013   1.086   0.008  0.00  0.00    +0.003 C 
ATOM     17  C   UNL     1      -0.729   1.579   1.268  0.00  0.00    +0.017 C 
ATOM     18  C   UNL     1      -0.717   3.111   1.290  0.00  0.00    +0.109 C 
ENDBRANCH  10  13
ENDBRANCH   6  10
BRANCH   9  19
ATOM     19  C   UNL     1      -8.621   1.896  -0.626  0.00  0.00    +0.201 C 
BRANCH  19  20
ATOM     20  C   UNL     1      -9.917   1.261  -0.191  0.00  0.00    +0.235 C 
ATOM     21  O   UNL     1      -9.948   0.571   0.806  0.00  0.00    -0.274 OA
ATOM     22  N   UNL     1     -11.040   1.460  -0.909  0.00  0.00    -0.278 N 
ATOM     23  H   UNL     1     -11.011   2.086  -1.813  0.00  0.00    +0.155 HD
BRANCH  22  24
ATOM     24  C   UNL     1     -12.232   0.876  -0.508  0.00  0.00    +0.084 A 
ATOM     25  C   UNL     1     -13.482   0.968  -1.107  0.00  0.00    +0.065 A 
ATOM     26  C   UNL     1     -14.560   0.247  -0.473  0.00  0.00    +0.022 A 
ATOM     27  C   UNL     1     -14.265  -0.441   0.645  0.00  0.00    +0.048 A 
ATOM     28  S   UNL     1     -12.524  -0.138   0.865  0.00  0.00    -0.081 S 
BRANCH  25  29
ATOM     29  C   UNL     1     -13.696   1.755  -2.326  0.00  0.00    +0.244 C 
ATOM     30  O   UNL     1     -12.765   2.348  -2.837  0.00  0.00    -0.270 OA
ATOM     31  N   UNL     1     -14.923   1.821  -2.879  0.00  0.00    -0.325 N 
ATOM     32  H   UNL     1     -15.083   2.411  -3.793  0.00  0.00    +0.145 HD
ATOM     33  H   UNL     1     -15.764   1.284  -2.416  0.00  0.00    +0.145 HD
ENDBRANCH  25  29
ENDBRANCH  22  24
ENDBRANCH  19  20
ENDBRANCH   9  19
TORSDOF 6
