REMARK  Name = ZINC47325067
REMARK  5 active torsions:
REMARK  status: ('A' for Active; 'I' for Inactive)
REMARK    1  A    between atoms: C_1  and  N_2
REMARK    2  A    between atoms: N_2  and  C_3
REMARK    3  A    between atoms: C_3  and  C_4
REMARK    4  A    between atoms: C_9  and  O_10
REMARK    5  A    between atoms: N_13  and  C_14
REMARK                            x       y       z     vdW  Elec       q    Type
REMARK                         _______ _______ _______ _____ _____    ______ ____
ROOT
ATOM      1  C   UNL     1       0.008   1.462   0.009  0.00  0.00    +0.134 C 
ATOM      2  N   UNL     1       0.018  -0.003   0.002  0.00  0.00    -0.284 N 
ATOM      3  C   UNL     1       0.004  -0.671  -1.169  0.00  0.00    +0.307 C 
ATOM      4  O   UNL     1       0.013  -1.887  -1.175  0.00  0.00    -0.252 OA
ATOM      5  N   UNL     1      -0.020   0.009  -2.332  0.00  0.00    -0.268 N 
ATOM      6  H   UNL     1      -0.109   0.974  -2.328  0.00  0.00    +0.156 HD
ENDROOT
BRANCH   5   7
ATOM      7  C   UNL     1       0.083  -0.679  -3.547  0.00  0.00    +0.048 A 
ATOM      8  C   UNL     1       0.706  -1.920  -3.593  0.00  0.00    +0.024 A 
ATOM      9  C   UNL     1       0.806  -2.596  -4.793  0.00  0.00    +0.002 A 
ATOM     10  C   UNL     1       0.288  -2.039  -5.948  0.00  0.00    +0.001 A 
ATOM     11  C   UNL     1      -0.332  -0.804  -5.906  0.00  0.00    +0.016 A 
ATOM     12  C   UNL     1      -0.441  -0.125  -4.707  0.00  0.00    +0.035 A 
ATOM     13  I   UNL     1      -1.389   1.742  -4.643  0.00  0.00    -0.042 I 
ENDBRANCH   5   7
BRANCH   2  14
ATOM     14  C   UNL     1       0.044  -0.742   1.267  0.00  0.00    +0.147 C 
BRANCH  14  15
ATOM     15  C   UNL     1      -1.367  -1.006   1.724  0.00  0.00    +0.011 A 
ATOM     16  C   UNL     1      -1.942  -0.204   2.691  0.00  0.00    +0.009 A 
ATOM     17  C   UNL     1      -3.237  -0.446   3.111  0.00  0.00    +0.001 A 
ATOM     18  C   UNL     1      -3.960  -1.490   2.564  0.00  0.00    +0.004 A 
ATOM     19  C   UNL     1      -3.390  -2.293   1.596  0.00  0.00    +0.046 A 
ATOM     20  C   UNL     1      -2.093  -2.050   1.169  0.00  0.00    +0.122 A 
BRANCH  20  21
ATOM     21  O   UNL     1      -1.532  -2.836   0.213  0.00  0.00    -0.506 OA
ATOM     22  H   UNL     1      -1.065  -3.607   0.561  0.00  0.00    +0.292 HD
ENDBRANCH  20  21
ENDBRANCH  14  15
ENDBRANCH   2  14
TORSDOF 4
