REMARK  Name = ZINC55916649
REMARK  8 active torsions:
REMARK  status: ('A' for Active; 'I' for Inactive)
REMARK    1  A    between atoms: C_4  and  O_29
REMARK    2  A    between atoms: C_5  and  C_7
REMARK    3  A    between atoms: C_7  and  C_8
REMARK    4  A    between atoms: C_8  and  C_9
REMARK    5  A    between atoms: N_11  and  C_12
REMARK    6  A    between atoms: C_12  and  C_13
REMARK    7  A    between atoms: C_16  and  N_19
REMARK    8  A    between atoms: C_23  and  C_26
REMARK                            x       y       z     vdW  Elec       q    Type
REMARK                         _______ _______ _______ _____ _____    ______ ____
ROOT
ATOM      1  C   UNL     1       1.680  -6.862   3.963  0.00  0.00    -0.030 A 
ATOM      2  C   UNL     1       2.939  -7.058   4.500  0.00  0.00    +0.007 A 
ATOM      3  C   UNL     1       3.075  -7.524   5.793  0.00  0.00    +0.023 A 
ATOM      4  C   UNL     1       1.945  -7.796   6.554  0.00  0.00    +0.030 A 
ATOM      5  C   UNL     1       0.682  -7.599   6.011  0.00  0.00    +0.023 A 
ATOM      6  C   UNL     1       0.553  -7.127   4.720  0.00  0.00    +0.007 A 
ENDROOT
BRANCH   4   7
ATOM      7  N   UNL     1       2.079  -8.268   7.861  0.00  0.00    -0.329 N 
ATOM      8  C   UNL     1       0.899  -8.446   8.718  0.00  0.00    +0.105 C 
ATOM      9  C   UNL     1       1.122  -7.685  10.029  0.00  0.00    +0.020 C 
ATOM     10  C   UNL     1       2.435  -8.148  10.665  0.00  0.00    +0.016 C 
ATOM     11  C   UNL     1       3.599  -7.835   9.721  0.00  0.00    +0.092 C 
ATOM     12  C   UNL     1       3.403  -8.602   8.405  0.00  0.00    +0.117 C 
BRANCH  11  13
ATOM     13  C   UNL     1       4.895  -8.260  10.362  0.00  0.00    +0.215 C 
ATOM     14  O   UNL     1       5.596  -9.089   9.821  0.00  0.00    -0.276 OA
ATOM     15  N   UNL     1       5.274  -7.720  11.537  0.00  0.00    -0.329 N 
ATOM     16  H   UNL     1       4.714  -7.057  11.970  0.00  0.00    +0.145 HD
ATOM     17  H   UNL     1       6.109  -7.993  11.950  0.00  0.00    +0.145 HD
ENDBRANCH  11  13
ENDBRANCH   4   7
BRANCH   1  18
ATOM     18  C   UNL     1       1.535  -6.354   2.551  0.00  0.00    +0.139 C 
BRANCH  18  21
ATOM     19  C   UNL     1       1.371  -4.210   1.404  0.00  0.00    +0.214 C 
ATOM     20  O   UNL     1       1.290  -4.812   0.354  0.00  0.00    -0.276 OA
ATOM     21  N   UNL     1       1.497  -4.889   2.562  0.00  0.00    -0.311 N 
ATOM     22  H   UNL     1       1.562  -4.408   3.402  0.00  0.00    +0.149 HD
BRANCH  19  23
ATOM     23  C   UNL     1       1.332  -2.704   1.415  0.00  0.00    +0.100 C 
BRANCH  23  24
ATOM     24  C   UNL     1       1.185  -2.187  -0.018  0.00  0.00    +0.048 C 
BRANCH  24  29
ATOM     25  C   UNL     1      -0.104   1.361   0.012  0.00  0.00    +0.000 A 
ATOM     26  C   UNL     1       1.073   2.086   0.011  0.00  0.00    +0.004 A 
ATOM     27  C   UNL     1       2.289   1.431   0.001  0.00  0.00    +0.045 A 
ATOM     28  C   UNL     1       2.329   0.044  -0.009  0.00  0.00    +0.120 A 
ATOM     29  C   UNL     1       1.146  -0.681  -0.007  0.00  0.00    -0.005 A 
ATOM     30  C   UNL     1      -0.068  -0.021   0.003  0.00  0.00    +0.007 A 
BRANCH  28  31
ATOM     31  O   UNL     1       3.524  -0.603  -0.020  0.00  0.00    -0.506 OA
ATOM     32  H   UNL     1       3.875  -0.796   0.860  0.00  0.00    +0.292 HD
ENDBRANCH  28  31
ENDBRANCH  24  29
ENDBRANCH  23  24
ENDBRANCH  19  23
ENDBRANCH  18  21
ENDBRANCH   1  18
TORSDOF 8
