REMARK  Name = ZINC06605644
REMARK  9 active torsions:
REMARK  status: ('A' for Active; 'I' for Inactive)
REMARK    1  A    between atoms: C_1  and  C_2
REMARK    2  A    between atoms: C_2  and  C_3
REMARK    3  A    between atoms: C_2  and  C_4
REMARK    4  A    between atoms: C_4  and  C_6
REMARK    5  A    between atoms: C_4  and  N_16
REMARK    6  A    between atoms: C_17  and  C_19
REMARK    7  A    between atoms: C_19  and  N_20
REMARK    8  A    between atoms: C_23  and  C_27
REMARK    9  A    between atoms: C_23  and  C_28
REMARK                            x       y       z     vdW  Elec       q    Type
REMARK                         _______ _______ _______ _____ _____    ______ ____
ROOT
ATOM      1  N   UNL     1      -0.698   1.558   1.213  0.00  0.00    -0.304 N 
ATOM      2  C   UNL     1      -0.575   0.877   2.369  0.00  0.00    +0.232 C 
ATOM      3  O   UNL     1       0.103  -0.128   2.412  0.00  0.00    -0.274 OA
ATOM      4  H   UNL     1      -1.241   2.362   1.179  0.00  0.00    +0.149 HD
ENDROOT
BRANCH   1   5
ATOM      5  C   UNL     1      -0.013   1.086   0.008  0.00  0.00    +0.141 C 
BRANCH   5   6
ATOM      6  C   UNL     1      -0.742   1.585  -1.213  0.00  0.00    +0.129 A 
ATOM      7  N   UNL     1      -1.376   0.794  -2.119  0.00  0.00    -0.340 N 
ATOM      8  H   UNL     1      -1.439  -0.204  -2.094  0.00  0.00    +0.167 HD
ATOM      9  C   UNL     1      -1.916   1.624  -3.082  0.00  0.00    +0.066 A 
ATOM     10  C   UNL     1      -2.660   1.411  -4.234  0.00  0.00    +0.028 A 
ATOM     11  C   UNL     1      -3.056   2.487  -4.999  0.00  0.00    +0.002 A 
ATOM     12  C   UNL     1      -2.717   3.780  -4.624  0.00  0.00    +0.002 A 
ATOM     13  C   UNL     1      -1.986   4.008  -3.493  0.00  0.00    +0.030 A 
ATOM     14  C   UNL     1      -1.573   2.932  -2.702  0.00  0.00    +0.089 A 
ATOM     15  N   UNL     1      -0.860   2.836  -1.550  0.00  0.00    -0.231 NA
ENDBRANCH   5   6
BRANCH   5  17
ATOM     16  C   UNL     1       2.163   1.109   1.237  0.00  0.00    +0.009 C 
ATOM     17  C   UNL     1       1.423   1.615  -0.003  0.00  0.00    +0.011 C 
ATOM     18  C   UNL     1       2.139   1.122  -1.262  0.00  0.00    +0.009 C 
ENDBRANCH   5  17
ENDBRANCH   1   5
BRANCH   2  19
ATOM     19  C   UNL     1      -1.281   1.363   3.609  0.00  0.00    +0.213 C 
BRANCH  19  20
ATOM     20  N   UNL     1      -0.991   0.457   4.723  0.00  0.00    -0.215 N 
ATOM     21  C   UNL     1       0.051   0.602   5.566  0.00  0.00    +0.251 C 
ATOM     22  O   UNL     1       0.893   1.474   5.546  0.00  0.00    -0.272 OA
ATOM     23  C   UNL     1      -0.049  -0.552   6.544  0.00  0.00    +0.135 C 
ATOM     24  N   UNL     1      -1.248  -1.281   6.098  0.00  0.00    -0.281 N 
ATOM     25  C   UNL     1      -1.730  -0.614   5.033  0.00  0.00    +0.310 C 
ATOM     26  O   UNL     1      -2.725  -0.949   4.420  0.00  0.00    -0.252 OA
ATOM     27  C   UNL     1      -0.235  -0.032   7.971  0.00  0.00    +0.047 C 
ATOM     28  H   UNL     1      -1.620  -2.084   6.496  0.00  0.00    +0.152 HD
BRANCH  23  29
ATOM     29  C   UNL     1       1.171  -1.431   6.454  0.00  0.00    -0.016 A 
ATOM     30  C   UNL     1       2.389  -0.889   6.087  0.00  0.00    +0.006 A 
ATOM     31  C   UNL     1       3.509  -1.695   6.008  0.00  0.00    +0.000 A 
ATOM     32  C   UNL     1       3.410  -3.045   6.288  0.00  0.00    +0.000 A 
ATOM     33  C   UNL     1       2.191  -3.589   6.649  0.00  0.00    +0.000 A 
ATOM     34  C   UNL     1       1.072  -2.782   6.732  0.00  0.00    +0.006 A 
ENDBRANCH  23  29
ENDBRANCH  19  20
ENDBRANCH   2  19
TORSDOF 6
