REMARK  Name = ZINC01687267
REMARK  10 active torsions:
REMARK  status: ('A' for Active; 'I' for Inactive)
REMARK    1  A    between atoms: C_1  and  N_2
REMARK    2  A    between atoms: N_2  and  C_3
REMARK    3  A    between atoms: N_2  and  C_4
REMARK    4  A    between atoms: C_7  and  C_11
REMARK    5  A    between atoms: C_8  and  N_10
REMARK    6  A    between atoms: C_11  and  C_12
REMARK    7  A    between atoms: C_15  and  N_19
REMARK    8  A    between atoms: C_17  and  N_18
REMARK    9  A    between atoms: N_19  and  C_20
REMARK   10  A    between atoms: N_19  and  C_21
REMARK                            x       y       z     vdW  Elec       q    Type
REMARK                         _______ _______ _______ _____ _____    ______ ____
ROOT
ATOM      1  C   UNL     1       2.486   1.046  -0.014  0.00  0.00    +0.074 C 
ENDROOT
BRANCH   1   5
ATOM      2  C   UNL     1      -1.268   3.099   0.040  0.00  0.00    +0.031 A 
ATOM      3  C   UNL     1      -1.230   1.710   0.021  0.00  0.00    +0.023 A 
ATOM      4  C   UNL     1      -0.016   1.051   0.009  0.00  0.00    +0.007 A 
ATOM      5  C   UNL     1       1.164   1.770   0.005  0.00  0.00    -0.022 A 
ATOM      6  C   UNL     1       1.133   3.159   0.018  0.00  0.00    +0.030 A 
ATOM      7  C   UNL     1      -0.085   3.824   0.035  0.00  0.00    +0.046 A 
BRANCH   2   9
ATOM      8  C   UNL     1      -2.535   5.230   0.071  0.00  0.00    +0.129 C 
ATOM      9  N   UNL     1      -2.496   3.765   0.057  0.00  0.00    -0.336 N 
ATOM     10  C   UNL     1      -3.744   2.999   0.061  0.00  0.00    +0.129 C 
ENDBRANCH   2   9
BRANCH   6  11
ATOM     11  N   UNL     1       2.326   3.885   0.014  0.00  0.00    -0.358 N 
ATOM     12  H   UNL     1       3.177   3.419   0.002  0.00  0.00    +0.142 HD
ATOM     13  H   UNL     1       2.304   4.854   0.023  0.00  0.00    +0.142 HD
ENDBRANCH   6  11
ENDBRANCH   1   5
BRANCH   1  14
ATOM     14  C   UNL     1       2.998   0.900   1.396  0.00  0.00    -0.022 A 
ATOM     15  C   UNL     1       3.887   1.827   1.906  0.00  0.00    +0.007 A 
ATOM     16  C   UNL     1       4.359   1.697   3.198  0.00  0.00    +0.023 A 
ATOM     17  C   UNL     1       3.941   0.633   3.988  0.00  0.00    +0.031 A 
ATOM     18  C   UNL     1       3.049  -0.300   3.479  0.00  0.00    +0.046 A 
ATOM     19  C   UNL     1       2.572  -0.163   2.182  0.00  0.00    +0.030 A 
BRANCH  19  20
ATOM     20  N   UNL     1       1.669  -1.096   1.668  0.00  0.00    -0.358 N 
ATOM     21  H   UNL     1       1.339  -1.002   0.760  0.00  0.00    +0.142 HD
ATOM     22  H   UNL     1       1.372  -1.838   2.217  0.00  0.00    +0.142 HD
ENDBRANCH  19  20
BRANCH  17  23
ATOM     23  N   UNL     1       4.418   0.503   5.295  0.00  0.00    -0.336 N 
ATOM     24  C   UNL     1       5.453   1.413   5.790  0.00  0.00    +0.129 C 
ATOM     25  C   UNL     1       3.884  -0.544   6.169  0.00  0.00    +0.129 C 
ENDBRANCH  17  23
ENDBRANCH   1  14
TORSDOF 6
