REMARK  Name = ZINC52584871
REMARK  11 active torsions:
REMARK  status: ('A' for Active; 'I' for Inactive)
REMARK    1  A    between atoms: C_4  and  C_7
REMARK    2  A    between atoms: C_7  and  C_8
REMARK    3  A    between atoms: C_8  and  N_9
REMARK    4  A    between atoms: C_10  and  C_12
REMARK    5  A    between atoms: C_12  and  C_14
REMARK    6  A    between atoms: C_12  and  N_24
REMARK    7  A    between atoms: C_14  and  C_15
REMARK    8  A    between atoms: C_25  and  C_27
REMARK    9  A    between atoms: C_27  and  N_28
REMARK   10  A    between atoms: N_28  and  C_29
REMARK   11  A    between atoms: C_29  and  C_30
REMARK                            x       y       z     vdW  Elec       q    Type
REMARK                         _______ _______ _______ _____ _____    ______ ____
ROOT
ATOM      1  C   UNL     1       7.476  -2.795   2.610  0.00  0.00    +0.163 C 
ENDROOT
BRANCH   1   3
ATOM      2  N   UNL     1       5.297  -2.360   1.523  0.00  0.00    -0.313 N 
ATOM      3  C   UNL     1       6.020  -2.409   2.659  0.00  0.00    +0.234 C 
ATOM      4  O   UNL     1       5.499  -2.141   3.721  0.00  0.00    -0.274 OA
ATOM      5  H   UNL     1       5.713  -2.574   0.673  0.00  0.00    +0.149 HD
BRANCH   2   6
ATOM      6  C   UNL     1       3.881  -1.984   1.571  0.00  0.00    +0.109 C 
BRANCH   6   7
ATOM      7  C   UNL     1       3.300  -2.007   0.156  0.00  0.00    +0.054 C 
BRANCH   7  11
ATOM      8  C   UNL     1      -0.827  -0.912   0.293  0.00  0.00    +0.000 A 
ATOM      9  C   UNL     1       0.141   0.061   0.130  0.00  0.00    +0.000 A 
ATOM     10  C   UNL     1       1.477  -0.293   0.086  0.00  0.00    +0.004 A 
ATOM     11  C   UNL     1       1.844  -1.621   0.205  0.00  0.00    -0.046 A 
ATOM     12  C   UNL     1       0.875  -2.593   0.370  0.00  0.00    +0.004 A 
ATOM     13  C   UNL     1      -0.460  -2.239   0.412  0.00  0.00    +0.000 A 
ENDBRANCH   7  11
ENDBRANCH   6   7
ENDBRANCH   2   6
ENDBRANCH   1   3
BRANCH   1  14
ATOM     14  N   UNL     1       8.033  -2.773   3.964  0.00  0.00    -0.303 N 
ATOM     15  C   UNL     1       9.073  -3.571   4.278  0.00  0.00    +0.228 C 
ATOM     16  O   UNL     1       9.547  -4.307   3.439  0.00  0.00    -0.274 OA
ATOM     17  H   UNL     1       7.653  -2.185   4.636  0.00  0.00    +0.149 HD
BRANCH  15  18
ATOM     18  C   UNL     1       9.646  -3.549   5.672  0.00  0.00    +0.177 C 
BRANCH  18  19
ATOM     19  N   UNL     1      10.762  -4.500   5.758  0.00  0.00    -0.304 NA
ATOM     20  H   UNL     1      10.469  -5.426   5.487  0.00  0.00    +0.123 HD
BRANCH  19  21
ATOM     21  C   UNL     1      11.347  -4.505   7.105  0.00  0.00    +0.118 C 
BRANCH  21  22
ATOM     22  C   UNL     1      12.486  -5.490   7.154  0.00  0.00    -0.015 A 
ATOM     23  C   UNL     1      12.256  -6.814   7.499  0.00  0.00    +0.008 A 
ATOM     24  C   UNL     1      13.334  -7.684   7.531  0.00  0.00    +0.020 A 
ATOM     25  C   UNL     1      14.594  -7.208   7.221  0.00  0.00    +0.111 A 
ATOM     26  N   UNL     1      14.776  -5.943   6.899  0.00  0.00    -0.263 NA
ATOM     27  C   UNL     1      13.773  -5.088   6.852  0.00  0.00    +0.115 A 
ENDBRANCH  21  22
ENDBRANCH  19  21
ENDBRANCH  18  19
ENDBRANCH  15  18
ENDBRANCH   1  14
BRANCH   1  28
ATOM     28  C   UNL     1       8.237  -1.803   1.729  0.00  0.00    +0.065 C 
BRANCH  28  29
ATOM     29  C   UNL     1       8.148  -0.425   2.332  0.00  0.00    -0.039 C 
ATOM     30  C   UNL     1       9.045   0.161   3.159  0.00  0.00    -0.001 A 
ATOM     31  C   UNL     1      10.321  -0.293   3.723  0.00  0.00    +0.010 A 
ATOM     32  C   UNL     1      11.009   0.536   4.540  0.00  0.00    +0.001 A 
ATOM     33  C   UNL     1      10.535   1.815   4.861  0.00  0.00    +0.002 A 
ATOM     34  C   UNL     1       9.371   2.303   4.381  0.00  0.00    +0.026 A 
ATOM     35  C   UNL     1       8.566   1.516   3.512  0.00  0.00    +0.043 A 
ATOM     36  N   UNL     1       7.418   1.759   2.927  0.00  0.00    -0.380 N 
ATOM     37  C   UNL     1       7.042   0.587   2.130  0.00  0.00    +0.144 C 
ATOM     38  H   UNL     1       6.906   2.579   3.005  0.00  0.00    +0.160 HD
ENDBRANCH  28  29
ENDBRANCH   1  28
TORSDOF 11
