REMARK  Name = ZINC13570058
REMARK  5 active torsions:
REMARK  status: ('A' for Active; 'I' for Inactive)
REMARK    1  A    between atoms: C_4  and  C_7
REMARK    2  A    between atoms: C_7  and  C_8
REMARK    3  A    between atoms: C_8  and  C_10
REMARK    4  A    between atoms: C_8  and  N_27
REMARK    5  A    between atoms: C_28  and  C_30
REMARK                            x       y       z     vdW  Elec       q    Type
REMARK                         _______ _______ _______ _____ _____    ______ ____
ROOT
ATOM      1  C   UNL     1       4.172  -0.963   1.405  0.00  0.00    +0.164 C 
ENDROOT
BRANCH   1   2
ATOM      2  C   UNL     1       5.487  -1.699   1.381  0.00  0.00    +0.236 C 
ATOM      3  O   UNL     1       5.506  -2.909   1.462  0.00  0.00    -0.274 OA
ATOM      4  N   UNL     1       6.641  -1.013   1.271  0.00  0.00    -0.300 N 
ATOM      5  C   UNL     1       6.643   0.457   1.283  0.00  0.00    +0.110 C 
ATOM      6  C   UNL     1       7.381   0.959   0.038  0.00  0.00    +0.047 C 
ATOM      7  C   UNL     1       8.773   0.327  -0.015  0.00  0.00    +0.064 C 
ATOM      8  C   UNL     1       8.648  -1.194  -0.106  0.00  0.00    +0.047 C 
ATOM      9  C   UNL     1       7.923  -1.720   1.143  0.00  0.00    +0.110 C 
ATOM     10  C   UNL     1       9.523   0.849  -1.210  0.00  0.00    +0.057 A 
ATOM     11  C   UNL     1      10.497   1.785  -1.134  0.00  0.00    +0.039 A 
ATOM     12  N   UNL     1      10.947   2.014  -2.368  0.00  0.00    -0.349 N 
ATOM     13  C   UNL     1      10.290   1.259  -3.211  0.00  0.00    +0.171 A 
ATOM     14  N   UNL     1       9.391   0.517  -2.522  0.00  0.00    -0.348 N 
ATOM     15  H   UNL     1       8.770  -0.128  -2.894  0.00  0.00    +0.166 HD
ATOM     16  C   UNL     1      10.935   2.412   0.167  0.00  0.00    +0.070 C 
ATOM     17  C   UNL     1       9.857   2.118   1.219  0.00  0.00    +0.088 C 
ATOM     18  N   UNL     1       9.522   0.687   1.200  0.00  0.00    -0.305 NA
ATOM     19  H   UNL     1       9.013   0.424   2.030  0.00  0.00    +0.123 HD
ATOM     20  H   UNL     1      11.649   2.640  -2.603  0.00  0.00    +0.166 HD
ENDBRANCH   1   2
BRANCH   1  21
ATOM     21  N   UNL     1       3.162  -1.788   2.074  0.00  0.00    -0.300 N 
ATOM     22  C   UNL     1       2.098  -1.206   2.662  0.00  0.00    +0.245 C 
ATOM     23  O   UNL     1       1.976   0.004   2.637  0.00  0.00    -0.270 OA
ATOM     24  H   UNL     1       3.260  -2.753   2.094  0.00  0.00    +0.150 HD
BRANCH  22  25
ATOM     25  C   UNL     1       1.081  -2.037   3.336  0.00  0.00    +0.040 A 
ATOM     26  C   UNL     1       1.223  -3.426   3.370  0.00  0.00    +0.017 A 
ATOM     27  C   UNL     1       0.274  -4.200   4.000  0.00  0.00    +0.050 A 
ATOM     28  C   UNL     1      -0.827  -3.604   4.602  0.00  0.00    +0.166 A 
ATOM     29  C   UNL     1      -0.974  -2.217   4.571  0.00  0.00    +0.167 A 
ATOM     30  C   UNL     1      -0.022  -1.436   3.946  0.00  0.00    +0.062 A 
ATOM     31  O   UNL     1      -2.126  -1.887   5.227  0.00  0.00    -0.453 OA
ATOM     32  C   UNL     1      -2.887  -3.107   5.302  0.00  0.00    +0.466 C 
ATOM     33  O   UNL     1      -1.884  -4.139   5.277  0.00  0.00    -0.453 OA
ENDBRANCH  22  25
ENDBRANCH   1  21
BRANCH   1  34
ATOM     34  C   UNL     1       3.724  -0.671  -0.028  0.00  0.00    +0.067 C 
BRANCH  34  38
ATOM     35  C   UNL     1       0.220   1.771   0.040  0.00  0.00    +0.000 A 
ATOM     36  C   UNL     1       1.472   2.358   0.016  0.00  0.00    +0.000 A 
ATOM     37  C   UNL     1       2.605   1.567  -0.006  0.00  0.00    +0.004 A 
ATOM     38  C   UNL     1       2.488   0.190  -0.003  0.00  0.00    -0.045 A 
ATOM     39  C   UNL     1       1.237  -0.397   0.022  0.00  0.00    +0.004 A 
ATOM     40  C   UNL     1       0.103   0.394   0.043  0.00  0.00    +0.000 A 
ENDBRANCH  34  38
ENDBRANCH   1  34
TORSDOF 5
