REMARK  Name = ZINC19146346
REMARK  11 active torsions:
REMARK  status: ('A' for Active; 'I' for Inactive)
REMARK    1  A    between atoms: C_1  and  O_2
REMARK    2  A    between atoms: O_2  and  C_3
REMARK    3  A    between atoms: C_3  and  C_5
REMARK    4  A    between atoms: C_10  and  S_11
REMARK    5  A    between atoms: S_11  and  N_14
REMARK    6  A    between atoms: N_14  and  C_15
REMARK    7  A    between atoms: N_14  and  C_30
REMARK    8  A    between atoms: C_15  and  C_16
REMARK    9  A    between atoms: C_19  and  O_22
REMARK   10  A    between atoms: O_22  and  C_23
REMARK   11  A    between atoms: C_23  and  C_24
REMARK                            x       y       z     vdW  Elec       q    Type
REMARK                         _______ _______ _______ _____ _____    ______ ____
ROOT
ATOM      1  N   UNL     1      -2.010   4.237  -0.472  0.00  0.00    -0.160 NA
ENDROOT
BRANCH   1   2
ATOM      2  C   UNL     1      -2.215   3.002   0.288  0.00  0.00    +0.166 C 
ATOM      3  C   UNL     1      -1.655   1.814  -0.499  0.00  0.00    +0.030 C 
ATOM      4  C   UNL     1      -2.344   0.525  -0.090  0.00  0.00    +0.004 C 
ATOM      5  C   UNL     1      -2.048   0.098   1.336  0.00  0.00    +0.019 C 
ATOM      6  C   UNL     1      -2.656   1.083   2.336  0.00  0.00    +0.104 C 
ATOM      7  N   UNL     1      -1.699   2.179   2.560  0.00  0.00    -0.314 N 
ATOM      8  C   UNL     1      -1.482   3.090   1.610  0.00  0.00    +0.232 C 
ATOM      9  O   UNL     1      -0.696   3.992   1.806  0.00  0.00    -0.274 OA
ATOM     10  H   UNL     1      -1.223   2.239   3.403  0.00  0.00    +0.149 HD
ENDBRANCH   1   2
BRANCH   1  11
ATOM     11  S   UNL     1      -3.306   5.186  -0.876  0.00  0.00    +0.063 S 
ATOM     12  O   UNL     1      -2.908   5.960  -1.998  0.00  0.00    -0.153 OA
ATOM     13  O   UNL     1      -4.441   4.331  -0.904  0.00  0.00    -0.153 OA
BRANCH  11  19
ATOM     14  C   UNL     1      -4.754   7.031   0.544  0.00  0.00    +0.085 A 
ATOM     15  C   UNL     1      -4.946   7.925   1.600  0.00  0.00    +0.017 A 
ATOM     16  C   UNL     1      -3.955   8.094   2.545  0.00  0.00    +0.001 A 
ATOM     17  C   UNL     1      -2.773   7.382   2.448  0.00  0.00    +0.002 A 
ATOM     18  C   UNL     1      -2.578   6.491   1.407  0.00  0.00    +0.029 A 
ATOM     19  C   UNL     1      -3.559   6.316   0.452  0.00  0.00    +0.119 A 
BRANCH  14  20
ATOM     20  C   UNL     1      -5.811   6.844  -0.471  0.00  0.00    +0.341 C 
ATOM     21  O   UNL     1      -5.592   6.170  -1.458  0.00  0.00    -0.245 OA
BRANCH  20  23
ATOM     22  C   UNL     1      -8.030   7.133  -1.301  0.00  0.00    +0.280 C 
ATOM     23  O   UNL     1      -7.017   7.420  -0.302  0.00  0.00    -0.464 OA
ENDBRANCH  20  23
ENDBRANCH  14  20
ENDBRANCH  11  19
ENDBRANCH   1  11
BRANCH   1  24
ATOM     24  C   UNL     1      -0.658   4.634  -0.874  0.00  0.00    +0.145 C 
BRANCH  24  25
ATOM     25  C   UNL     1      -0.305   3.963  -2.177  0.00  0.00    -0.031 A 
ATOM     26  C   UNL     1       0.453   2.807  -2.174  0.00  0.00    +0.008 A 
ATOM     27  C   UNL     1       0.773   2.187  -3.367  0.00  0.00    +0.046 A 
ATOM     28  C   UNL     1       0.344   2.733  -4.568  0.00  0.00    +0.121 A 
ATOM     29  C   UNL     1      -0.412   3.896  -4.568  0.00  0.00    +0.046 A 
ATOM     30  C   UNL     1      -0.735   4.508  -3.372  0.00  0.00    +0.008 A 
BRANCH  28  31
ATOM     31  O   UNL     1       0.663   2.129  -5.743  0.00  0.00    -0.486 OA
BRANCH  31  32
ATOM     32  C   UNL     1       1.444   0.934  -5.667  0.00  0.00    +0.284 C 
BRANCH  32  33
ATOM     33  C   UNL     1       1.698   0.411  -7.057  0.00  0.00    +0.078 A 
ATOM     34  C   UNL     1       1.183   1.088  -8.146  0.00  0.00    +0.027 A 
ATOM     35  C   UNL     1       1.427   0.601  -9.421  0.00  0.00    +0.003 A 
ATOM     36  C   UNL     1       2.173  -0.560  -9.553  0.00  0.00    +0.020 A 
ATOM     37  C   UNL     1       2.650  -1.186  -8.417  0.00  0.00    +0.111 A 
ATOM     38  N   UNL     1       2.403  -0.691  -7.220  0.00  0.00    -0.256 NA
ENDBRANCH  32  33
ENDBRANCH  31  32
ENDBRANCH  28  31
ENDBRANCH  24  25
ENDBRANCH   1  24
TORSDOF 10
