REMARK  Name = ZINC39656208
REMARK  8 active torsions:
REMARK  status: ('A' for Active; 'I' for Inactive)
REMARK    1  A    between atoms: C_1  and  C_2
REMARK    2  A    between atoms: C_8  and  C_11
REMARK    3  A    between atoms: C_11  and  C_12
REMARK    4  A    between atoms: C_12  and  N_13
REMARK    5  A    between atoms: C_14  and  C_16
REMARK    6  A    between atoms: C_27  and  C_29
REMARK    7  A    between atoms: C_30  and  C_36
REMARK    8  A    between atoms: C_33  and  C_35
REMARK                            x       y       z     vdW  Elec       q    Type
REMARK                         _______ _______ _______ _____ _____    ______ ____
ROOT
ATOM      1  C   UNL     1       4.731  -0.047  -7.537  0.00  0.00    +0.100 C 
ATOM      2  C   UNL     1       5.723   0.350  -6.421  0.00  0.00    +0.121 C 
ATOM      3  N   UNL     1       6.144  -0.937  -5.820  0.00  0.00    -0.296 N 
ATOM      4  C   UNL     1       6.282  -1.856  -6.975  0.00  0.00    +0.115 C 
ATOM      5  C   UNL     1       5.104  -1.494  -7.901  0.00  0.00    -0.004 C 
ATOM      6  C   UNL     1       5.535  -1.577  -9.362  0.00  0.00    -0.010 C 
ATOM      7  C   UNL     1       5.844  -3.034  -9.716  0.00  0.00    -0.082 C 
ATOM      8  N   UNL     1       4.651  -3.859  -9.489  0.00  0.00    +0.379 N 
ATOM      9  C   UNL     1       4.299  -3.848  -8.064  0.00  0.00    -0.082 C 
ATOM     10  C   UNL     1       3.924  -2.425  -7.641  0.00  0.00    -0.010 C 
ATOM     11  C   UNL     1       6.355  -1.211  -4.517  0.00  0.00    +0.247 C 
ATOM     12  O   UNL     1       6.771  -2.306  -4.185  0.00  0.00    -0.270 OA
ATOM     13  H   UNL     1       3.882  -3.490 -10.028  0.00  0.00    -0.086 HD
ATOM     14  H   UNL     1       4.839  -4.807  -9.780  0.00  0.00    -0.086 HD
ENDROOT
BRANCH  11  15
ATOM     15  C   UNL     1       6.094  -0.226  -3.536  0.00  0.00    +0.066 C 
ATOM     16  C   UNL     1       6.769   0.926  -3.359  0.00  0.00    +0.046 C 
ATOM     17  N   UNL     1       6.251   1.640  -2.324  0.00  0.00    -0.269 N 
ATOM     18  O   UNL     1       5.156   0.951  -1.748  0.00  0.00    -0.266 OA
ATOM     19  C   UNL     1       4.999  -0.265  -2.494  0.00  0.00    +0.182 C 
ATOM     20  C   UNL     1       3.626  -0.307  -3.165  0.00  0.00    +0.046 C 
ATOM     21  C   UNL     1       7.943   1.365  -4.196  0.00  0.00    +0.066 C 
ATOM     22  H   UNL     1       6.584   2.499  -2.023  0.00  0.00    +0.194 HD
ENDBRANCH  11  15
BRANCH   1  24
ATOM     23  N   UNL     1       2.308   0.322  -7.872  0.00  0.00    -0.315 N 
ATOM     24  C   UNL     1       3.314   0.018  -7.028  0.00  0.00    +0.218 C 
ATOM     25  O   UNL     1       3.079  -0.204  -5.859  0.00  0.00    -0.275 OA
ATOM     26  H   UNL     1       2.496   0.499  -8.806  0.00  0.00    +0.149 HD
BRANCH  23  27
ATOM     27  C   UNL     1       0.931   0.385  -7.376  0.00  0.00    +0.109 C 
BRANCH  27  28
ATOM     28  C   UNL     1      -0.009   0.746  -8.528  0.00  0.00    +0.056 C 
BRANCH  28  36
ATOM     29  C   UNL     1      -2.073   5.516  -6.118  0.00  0.00    +0.044 C 
ATOM     30  C   UNL     1      -2.524   4.120  -6.461  0.00  0.00    -0.050 A 
ATOM     31  C   UNL     1      -3.819   3.721  -6.159  0.00  0.00    +0.005 A 
ATOM     32  C   UNL     1      -4.251   2.449  -6.463  0.00  0.00    +0.026 A 
ATOM     33  C   UNL     1      -3.384   1.554  -7.081  0.00  0.00    +0.047 A 
ATOM     34  N   UNL     1      -3.511   0.249  -7.502  0.00  0.00    -0.360 N 
ATOM     35  C   UNL     1      -2.335  -0.176  -8.058  0.00  0.00    +0.087 A 
ATOM     36  C   UNL     1      -1.426   0.811  -8.018  0.00  0.00    -0.021 A 
ATOM     37  C   UNL     1      -2.073   1.963  -7.386  0.00  0.00    +0.003 A 
ATOM     38  C   UNL     1      -1.657   3.258  -7.072  0.00  0.00    +0.013 A 
ATOM     39  H   UNL     1      -4.313  -0.289  -7.417  0.00  0.00    +0.165 HD
ENDBRANCH  28  36
ENDBRANCH  27  28
ENDBRANCH  23  27
ENDBRANCH   1  24
TORSDOF 5
