REMARK  Name = ZINC49152800
REMARK  6 active torsions:
REMARK  status: ('A' for Active; 'I' for Inactive)
REMARK    1  A    between atoms: C_1  and  C_2
REMARK    2  A    between atoms: C_2  and  C_4
REMARK    3  A    between atoms: C_2  and  N_10
REMARK    4  A    between atoms: C_4  and  C_5
REMARK    5  A    between atoms: N_10  and  C_11
REMARK    6  A    between atoms: C_16  and  N_17
REMARK                            x       y       z     vdW  Elec       q    Type
REMARK                         _______ _______ _______ _____ _____    ______ ____
ROOT
ATOM      1  C   UNL     1       0.024  -0.639   2.403  0.00  0.00    +0.050 A 
ATOM      2  C   UNL     1      -1.327  -0.334   2.478  0.00  0.00    +0.051 A 
ATOM      3  C   UNL     1      -2.001  -0.483   3.679  0.00  0.00    +0.078 A 
ATOM      4  C   UNL     1      -1.326  -0.939   4.810  0.00  0.00    +0.144 A 
ATOM      5  C   UNL     1       0.022  -1.244   4.735  0.00  0.00    +0.072 A 
ATOM      6  C   UNL     1       0.698  -1.101   3.532  0.00  0.00    +0.049 A 
ATOM      7  O   UNL     1      -2.003  -1.079   5.982  0.00  0.00    -0.481 OA
ATOM      8  C   UNL     1      -3.063  -0.150   6.227  0.00  0.00    +0.325 C 
ATOM      9  C   UNL     1      -3.924  -0.028   4.996  0.00  0.00    +0.255 C 
ATOM     10  O   UNL     1      -5.109   0.205   5.103  0.00  0.00    -0.272 OA
ATOM     11  N   UNL     1      -3.369  -0.179   3.773  0.00  0.00    -0.280 N 
ATOM     12  H   UNL     1      -3.908  -0.080   2.973  0.00  0.00    +0.155 HD
ENDROOT
BRANCH   6  13
ATOM     13  N   UNL     1       2.063  -1.415   3.454  0.00  0.00    -0.356 N 
ATOM     14  H   UNL     1       2.537  -1.312   2.614  0.00  0.00    +0.142 HD
ATOM     15  H   UNL     1       2.532  -1.737   4.240  0.00  0.00    +0.142 HD
ENDBRANCH   6  13
BRANCH   1  16
ATOM     16  N   UNL     1       0.711  -0.489   1.189  0.00  0.00    -0.339 N 
ATOM     17  H   UNL     1       1.654  -0.707   1.135  0.00  0.00    +0.146 HD
BRANCH  16  19
ATOM     18  C   UNL     1      -0.019   1.526   0.010  0.00  0.00    +0.028 C 
ATOM     19  C   UNL     1       0.002  -0.004   0.002  0.00  0.00    +0.072 C 
BRANCH  19  20
ATOM     20  C   UNL     1       0.718  -0.497  -1.257  0.00  0.00    +0.057 C 
BRANCH  20  21
ATOM     21  C   UNL     1       0.632  -2.000  -1.327  0.00  0.00    -0.039 A 
ATOM     22  C   UNL     1       1.606  -2.787  -0.743  0.00  0.00    +0.011 A 
ATOM     23  C   UNL     1       1.498  -4.136  -0.825  0.00  0.00    +0.045 A 
ATOM     24  S   UNL     1      -0.016  -4.330  -1.750  0.00  0.00    -0.105 S 
ATOM     25  C   UNL     1      -0.406  -2.601  -1.961  0.00  0.00    +0.049 A 
ENDBRANCH  20  21
ENDBRANCH  19  20
ENDBRANCH  16  19
ENDBRANCH   1  16
TORSDOF 5
