REMARK  Name = ZINC38848335
REMARK  10 active torsions:
REMARK  status: ('A' for Active; 'I' for Inactive)
REMARK    1  A    between atoms: C_1  and  C_2
REMARK    2  A    between atoms: C_5  and  C_36
REMARK    3  A    between atoms: N_11  and  C_12
REMARK    4  A    between atoms: C_12  and  C_13
REMARK    5  A    between atoms: C_13  and  C_14
REMARK    6  A    between atoms: C_14  and  N_15
REMARK    7  A    between atoms: C_20  and  C_22
REMARK    8  A    between atoms: C_22  and  N_23
REMARK    9  A    between atoms: N_30  and  C_35
REMARK   10  A    between atoms: N_33  and  C_34
REMARK                            x       y       z     vdW  Elec       q    Type
REMARK                         _______ _______ _______ _____ _____    ______ ____
ROOT
ATOM      1  C   UNL     1      -0.018   1.503   0.010  0.00  0.00    +0.046 C 
ATOM      2  C   UNL     1       0.002  -0.004   0.002  0.00  0.00    -0.024 A 
ATOM      3  C   UNL     1       0.005  -0.675  -1.193  0.00  0.00    +0.006 A 
ATOM      4  C   UNL     1       0.024  -2.061  -1.246  0.00  0.00    +0.005 A 
ATOM      5  C   UNL     1       0.040  -2.784  -0.067  0.00  0.00    -0.035 A 
ATOM      6  C   UNL     1       0.036  -2.121   1.134  0.00  0.00    +0.044 A 
ATOM      7  C   UNL     1       0.023  -0.710   1.227  0.00  0.00    +0.083 A 
ATOM      8  N   UNL     1       0.027  -0.206   2.480  0.00  0.00    -0.224 NA
ATOM      9  C   UNL     1       0.047  -0.969   3.547  0.00  0.00    +0.168 A 
ATOM     10  S   UNL     1       0.051  -2.611   2.842  0.00  0.00    -0.052 S 
ATOM     11  N   UNL     1       0.054  -0.597   4.882  0.00  0.00    -0.249 N 
ATOM     12  C   UNL     1       0.040   0.708   5.217  0.00  0.00    +0.241 C 
ATOM     13  O   UNL     1       0.046   1.034   6.386  0.00  0.00    -0.273 OA
ATOM     14  C   UNL     1       0.059  -4.290  -0.101  0.00  0.00    +0.045 C 
ENDROOT
BRANCH  11  15
ATOM     15  C   UNL     1       0.077  -1.622   5.928  0.00  0.00    +0.117 C 
BRANCH  15  16
ATOM     16  C   UNL     1       1.527  -1.960   6.279  0.00  0.00    +0.041 C 
BRANCH  16  17
ATOM     17  C   UNL     1       1.551  -3.030   7.372  0.00  0.00    +0.124 C 
BRANCH  17  18
ATOM     18  N   UNL     1       2.940  -3.354   7.709  0.00  0.00    -0.338 N 
ATOM     19  C   UNL     1       3.715  -4.316   7.120  0.00  0.00    +0.104 A 
ATOM     20  C   UNL     1       4.916  -4.276   7.728  0.00  0.00    +0.101 A 
ATOM     21  N   UNL     1       4.875  -3.314   8.663  0.00  0.00    -0.352 N 
ATOM     22  C   UNL     1       3.696  -2.755   8.653  0.00  0.00    +0.173 A 
ATOM     23  H   UNL     1       5.607  -3.071   9.250  0.00  0.00    +0.166 HD
ENDBRANCH  17  18
ENDBRANCH  16  17
ENDBRANCH  15  16
ENDBRANCH  11  15
BRANCH  12  24
ATOM     24  C   UNL     1       0.017   1.763   4.141  0.00  0.00    +0.219 C 
BRANCH  24  25
ATOM     25  N   UNL     1       0.005   3.091   4.759  0.00  0.00    -0.316 N 
ATOM     26  C   UNL     1      -1.082   3.841   5.026  0.00  0.00    +0.202 A 
ATOM     27  N   UNL     1      -0.715   4.969   5.580  0.00  0.00    -0.218 NA
ATOM     28  C   UNL     1       0.615   5.004   5.696  0.00  0.00    +0.168 A 
ATOM     29  C   UNL     1       1.105   3.809   5.183  0.00  0.00    +0.152 A 
ATOM     30  C   UNL     1       2.497   3.579   5.188  0.00  0.00    +0.282 A 
ATOM     31  O   UNL     1       2.951   2.541   4.741  0.00  0.00    -0.265 OA
ATOM     32  N   UNL     1       3.320   4.521   5.694  0.00  0.00    -0.262 N 
ATOM     33  C   UNL     1       2.832   5.671   6.191  0.00  0.00    +0.333 A 
ATOM     34  O   UNL     1       3.603   6.498   6.638  0.00  0.00    -0.246 OA
ATOM     35  N   UNL     1       1.511   5.934   6.198  0.00  0.00    -0.280 N 
ATOM     36  C   UNL     1       1.020   7.199   6.750  0.00  0.00    +0.155 C 
ATOM     37  C   UNL     1       4.766   4.287   5.703  0.00  0.00    +0.157 C 
ENDBRANCH  24  25
ENDBRANCH  12  24
TORSDOF 6
