REMARK  Name = ZINC34294303
REMARK  8 active torsions:
REMARK  status: ('A' for Active; 'I' for Inactive)
REMARK    1  A    between atoms: C_1  and  C_2
REMARK    2  A    between atoms: C_2  and  C_4
REMARK    3  A    between atoms: C_10  and  O_34
REMARK    4  A    between atoms: C_22  and  O_32
REMARK    5  A    between atoms: C_23  and  O_30
REMARK    6  A    between atoms: C_27  and  O_29
REMARK    7  A    between atoms: O_30  and  C_31
REMARK    8  A    between atoms: O_32  and  C_33
REMARK                            x       y       z     vdW  Elec       q    Type
REMARK                         _______ _______ _______ _____ _____    ______ ____
ROOT
ATOM      1  C   UNL     1      -0.000  -0.750  -1.307  0.00  0.00    +0.203 C 
ATOM      2  C   UNL     1      -1.299  -0.460  -2.101  0.00  0.00    +0.091 C 
ATOM      3  C   UNL     1      -0.794  -0.415  -3.517  0.00  0.00    +0.041 A 
ATOM      4  C   UNL     1       0.603  -0.303  -3.455  0.00  0.00    +0.132 A 
ATOM      5  C   UNL     1       1.366  -0.247  -4.626  0.00  0.00    +0.092 A 
ATOM      6  C   UNL     1       0.694  -0.299  -5.839  0.00  0.00    +0.134 A 
ATOM      7  C   UNL     1      -0.703  -0.403  -5.895  0.00  0.00    +0.102 A 
ATOM      8  C   UNL     1      -1.475  -0.469  -4.713  0.00  0.00    +0.142 A 
ATOM      9  O   UNL     1      -2.824  -0.588  -4.751  0.00  0.00    -0.480 OA
ATOM     10  C   UNL     1      -3.390  -1.107  -5.950  0.00  0.00    +0.256 C 
ATOM     11  C   UNL     1      -2.896  -0.261  -7.135  0.00  0.00    +0.141 C 
ATOM     12  C   UNL     1      -1.393  -0.443  -7.195  0.00  0.00    +0.181 C 
ATOM     13  O   UNL     1      -0.800  -0.610  -8.241  0.00  0.00    -0.291 OA
ATOM     14  C   UNL     1      -3.581  -0.736  -8.384  0.00  0.00    +0.012 A 
ATOM     15  C   UNL     1      -2.994  -0.500  -9.615  0.00  0.00    +0.057 A 
ATOM     16  C   UNL     1      -3.614  -0.925 -10.777  0.00  0.00    +0.162 A 
ATOM     17  C   UNL     1      -4.834  -1.591 -10.706  0.00  0.00    +0.165 A 
ATOM     18  C   UNL     1      -5.418  -1.829  -9.475  0.00  0.00    +0.095 A 
ATOM     19  C   UNL     1      -4.793  -1.406  -8.306  0.00  0.00    +0.132 A 
ATOM     20  O   UNL     1      -5.396  -1.681  -7.119  0.00  0.00    -0.460 OA
ATOM     21  C   UNL     1      -4.915  -1.050  -5.952  0.00  0.00    +0.347 C 
ATOM     22  O   UNL     1       1.036  -0.255  -2.177  0.00  0.00    -0.484 OA
ENDROOT
BRANCH   1  24
ATOM     23  C   UNL     1      -0.018   1.503   0.010  0.00  0.00    +0.042 C 
ATOM     24  C   UNL     1       0.002  -0.004   0.002  0.00  0.00    -0.040 C 
ATOM     25  C   UNL     1       0.022  -0.665   1.133  0.00  0.00    +0.011 C 
ENDBRANCH   1  24
BRANCH  21  26
ATOM     26  O   UNL     1      -5.348   0.312  -5.950  0.00  0.00    -0.355 OA
ATOM     27  H   UNL     1      -6.309   0.419  -5.951  0.00  0.00    +0.214 HD
ENDBRANCH  21  26
BRANCH  17  28
ATOM     28  O   UNL     1      -5.451  -2.007 -11.844  0.00  0.00    -0.491 OA
ATOM     29  C   UNL     1      -6.700  -2.684 -11.695  0.00  0.00    +0.277 C 
ENDBRANCH  17  28
BRANCH  16  30
ATOM     30  O   UNL     1      -3.033  -0.692 -11.986  0.00  0.00    -0.491 OA
ATOM     31  C   UNL     1      -1.781  -0.003 -11.981  0.00  0.00    +0.277 C 
ENDBRANCH  16  30
BRANCH   6  32
ATOM     32  O   UNL     1       1.403  -0.247  -6.994  0.00  0.00    -0.506 OA
ATOM     33  H   UNL     1       1.675  -1.113  -7.327  0.00  0.00    +0.292 HD
ENDBRANCH   6  32
TORSDOF 5
