REMARK  Name = ZINC09156266
REMARK  2 active torsions:
REMARK  status: ('A' for Active; 'I' for Inactive)
REMARK    1  A    between atoms: C_3  and  O_28
REMARK    2  A    between atoms: C_4  and  C_8
REMARK                            x       y       z     vdW  Elec       q    Type
REMARK                         _______ _______ _______ _____ _____    ______ ____
ROOT
ATOM      1  C   UNL     1       1.253   1.720   0.000  0.00  0.00    +0.212 C 
ATOM      2  N   UNL     1      -0.079   1.088  -0.010  0.00  0.00    -0.293 N 
ATOM      3  C   UNL     1      -1.205   1.867  -0.049  0.00  0.00    +0.183 C 
ATOM      4  N   UNL     1      -1.207   3.055  -0.621  0.00  0.00    -0.183 NA
ATOM      5  C   UNL     1      -0.041   3.528  -1.124  0.00  0.00    +0.236 A 
ATOM      6  N   UNL     1       1.163   2.903  -0.864  0.00  0.00    -0.285 N 
ATOM      7  C   UNL     1       2.146   3.590  -1.537  0.00  0.00    +0.076 A 
ATOM      8  C   UNL     1       3.520   3.436  -1.667  0.00  0.00    +0.077 A 
ATOM      9  C   UNL     1       4.240   4.322  -2.445  0.00  0.00    +0.164 A 
ATOM     10  C   UNL     1       3.600   5.371  -3.098  0.00  0.00    +0.164 A 
ATOM     11  C   UNL     1       2.236   5.542  -2.974  0.00  0.00    +0.079 A 
ATOM     12  C   UNL     1       1.494   4.650  -2.195  0.00  0.00    +0.095 A 
ATOM     13  N   UNL     1       0.168   4.561  -1.898  0.00  0.00    -0.210 NA
ATOM     14  O   UNL     1       4.329   6.232  -3.867  0.00  0.00    -0.488 OA
ATOM     15  C   UNL     1       5.236   7.085  -3.164  0.00  0.00    +0.232 C 
ATOM     16  C   UNL     1       6.555   6.374  -2.908  0.00  0.00    +0.082 C 
ATOM     17  C   UNL     1       6.399   5.181  -1.978  0.00  0.00    +0.232 C 
ATOM     18  O   UNL     1       5.591   4.170  -2.582  0.00  0.00    -0.488 OA
ATOM     19  N   UNL     1      -2.359   1.403   0.522  0.00  0.00    -0.331 N 
ATOM     20  H   UNL     1      -0.158   0.122   0.008  0.00  0.00    +0.151 HD
ATOM     21  H   UNL     1      -2.372   0.532   0.950  0.00  0.00    +0.145 HD
ATOM     22  H   UNL     1      -3.163   1.944   0.501  0.00  0.00    +0.145 HD
ENDROOT
BRANCH   1  26
ATOM     23  C   UNL     1       2.292   2.884   3.981  0.00  0.00    +0.023 A 
ATOM     24  C   UNL     1       2.366   1.554   3.612  0.00  0.00    +0.047 A 
ATOM     25  C   UNL     1       2.029   1.174   2.321  0.00  0.00    +0.124 A 
ATOM     26  C   UNL     1       1.619   2.130   1.403  0.00  0.00    +0.036 A 
ATOM     27  C   UNL     1       1.553   3.459   1.774  0.00  0.00    +0.031 A 
ATOM     28  C   UNL     1       1.883   3.836   3.064  0.00  0.00    +0.042 A 
ATOM     29 CL   UNL     1       1.792   5.505   3.530  0.00  0.00    -0.084 Cl
BRANCH  25  30
ATOM     30  O   UNL     1       2.101  -0.133   1.956  0.00  0.00    -0.506 OA
ATOM     31  H   UNL     1       2.981  -0.414   1.670  0.00  0.00    +0.292 HD
ENDBRANCH  25  30
ENDBRANCH   1  26
TORSDOF 2
