REMARK  Name = ZINC64954216
REMARK  9 active torsions:
REMARK  status: ('A' for Active; 'I' for Inactive)
REMARK    1  A    between atoms: C_1  and  C_2
REMARK    2  A    between atoms: C_2  and  C_27
REMARK    3  A    between atoms: C_7  and  C_15
REMARK    4  A    between atoms: N_11  and  C_12
REMARK    5  A    between atoms: N_17  and  C_18
REMARK    6  A    between atoms: C_18  and  C_19
REMARK    7  A    between atoms: C_19  and  C_20
REMARK    8  A    between atoms: N_29  and  C_30
REMARK    9  A    between atoms: C_30  and  C_31
REMARK                            x       y       z     vdW  Elec       q    Type
REMARK                         _______ _______ _______ _____ _____    ______ ____
ROOT
ATOM      1  C   UNL     1       0.480   1.573  -0.105  0.00  0.00    +0.043 C 
ATOM      2  C   UNL     1       0.249   0.061  -0.089  0.00  0.00    +0.129 C 
ATOM      3  C   UNL     1       0.971  -0.562  -1.283  0.00  0.00    +0.158 C 
ATOM      4  N   UNL     1       1.013  -2.016  -1.119  0.00  0.00    -0.323 N 
ATOM      5  C   UNL     1       1.044  -2.999  -2.020  0.00  0.00    +0.200 A 
ATOM      6  N   UNL     1       1.098  -4.155  -1.406  0.00  0.00    -0.230 NA
ATOM      7  C   UNL     1       1.096  -3.958  -0.071  0.00  0.00    +0.155 A 
ATOM      8  C   UNL     1       1.034  -2.604   0.131  0.00  0.00    +0.137 A 
ATOM      9  C   UNL     1       0.980  -1.789   1.356  0.00  0.00    +0.267 C 
ATOM     10  O   UNL     1       1.166  -2.272   2.457  0.00  0.00    -0.268 OA
ATOM     11  N   UNL     1       0.710  -0.472   1.188  0.00  0.00    -0.277 N 
ENDROOT
BRANCH   7  12
ATOM     12  C   UNL     1       1.150  -5.002   0.974  0.00  0.00    +0.265 C 
ATOM     13  O   UNL     1       1.141  -4.689   2.148  0.00  0.00    -0.268 OA
ATOM     14  N   UNL     1       1.208  -6.303   0.625  0.00  0.00    -0.310 N 
ATOM     15  H   UNL     1       1.215  -6.553  -0.313  0.00  0.00    +0.149 HD
BRANCH  14  16
ATOM     16  C   UNL     1       1.261  -7.338   1.660  0.00  0.00    +0.109 C 
BRANCH  16  17
ATOM     17  C   UNL     1       1.322  -8.717   1.000  0.00  0.00    +0.055 C 
BRANCH  17  18
ATOM     18  C   UNL     1       1.377  -9.782   2.065  0.00  0.00    -0.028 A 
ATOM     19  C   UNL     1       2.596 -10.284   2.478  0.00  0.00    +0.005 A 
ATOM     20  C   UNL     1       2.647 -11.261   3.454  0.00  0.00    +0.000 A 
ATOM     21  C   UNL     1       1.477 -11.736   4.019  0.00  0.00    +0.001 A 
ATOM     22  C   UNL     1       0.257 -11.234   3.607  0.00  0.00    +0.020 A 
ATOM     23  C   UNL     1       0.207 -10.252   2.633  0.00  0.00    +0.044 A 
ATOM     24 CL   UNL     1      -1.325  -9.617   2.120  0.00  0.00    -0.083 Cl
ENDBRANCH  17  18
ENDBRANCH  16  17
ENDBRANCH  14  16
ENDBRANCH   7  12
BRANCH   2  25
ATOM     25  C   UNL     1      -1.228  -0.206  -0.223  0.00  0.00    +0.238 C 
ATOM     26  O   UNL     1      -1.946   0.612  -0.758  0.00  0.00    -0.273 OA
ATOM     27  N   UNL     1      -1.751  -1.354   0.252  0.00  0.00    -0.309 N 
ATOM     28  H   UNL     1      -1.177  -2.008   0.681  0.00  0.00    +0.149 HD
BRANCH  27  29
ATOM     29  C   UNL     1      -3.187  -1.613   0.122  0.00  0.00    +0.139 C 
BRANCH  29  30
ATOM     30  C   UNL     1      -3.512  -2.954   0.729  0.00  0.00    -0.030 A 
ATOM     31  C   UNL     1      -3.465  -4.095  -0.051  0.00  0.00    +0.008 A 
ATOM     32  C   UNL     1      -3.762  -5.324   0.505  0.00  0.00    +0.038 A 
ATOM     33  C   UNL     1      -4.108  -5.414   1.843  0.00  0.00    +0.123 A 
ATOM     34  C   UNL     1      -4.155  -4.271   2.622  0.00  0.00    +0.038 A 
ATOM     35  C   UNL     1      -3.852  -3.043   2.066  0.00  0.00    +0.008 A 
ATOM     36  F   UNL     1      -4.400  -6.616   2.386  0.00  0.00    -0.205 F 
ENDBRANCH  29  30
ENDBRANCH  27  29
ENDBRANCH   2  25
BRANCH  11  37
ATOM     37  C   UNL     1       0.886   0.442   2.320  0.00  0.00    +0.078 C 
ATOM     38  C   UNL     1       1.707  -0.059   3.510  0.00  0.00    +0.024 C 
ATOM     39  C   UNL     1       0.188   0.082   3.633  0.00  0.00    +0.024 C 
ENDBRANCH  11  37
TORSDOF 8
