REMARK  Name = ZINC54464823
REMARK  5 active torsions:
REMARK  status: ('A' for Active; 'I' for Inactive)
REMARK    1  A    between atoms: C_4  and  C_7
REMARK    2  A    between atoms: C_7  and  N_8
REMARK    3  A    between atoms: N_8  and  C_9
REMARK    4  A    between atoms: C_9  and  C_11
REMARK    5  A    between atoms: C_9  and  C_20
REMARK                            x       y       z     vdW  Elec       q    Type
REMARK                         _______ _______ _______ _____ _____    ______ ____
ROOT
ATOM      1  C   UNL     1       5.435  -1.670   1.325  0.00  0.00    +0.048 C 
ENDROOT
BRANCH   1   2
ATOM      2  C   UNL     1       5.949  -1.814   2.734  0.00  0.00    -0.038 A 
ATOM      3  C   UNL     1       5.097  -1.803   3.770  0.00  0.00    +0.048 A 
ATOM      4  S   UNL     1       6.161  -2.001   5.186  0.00  0.00    -0.096 S 
ATOM      5  C   UNL     1       7.722  -2.094   4.348  0.00  0.00    +0.020 A 
ATOM      6  C   UNL     1       7.374  -1.974   2.985  0.00  0.00    -0.009 A 
ATOM      7  C   UNL     1       8.437  -2.018   2.053  0.00  0.00    +0.009 A 
ATOM      8  C   UNL     1       9.722  -2.175   2.471  0.00  0.00    +0.001 A 
ATOM      9  C   UNL     1      10.037  -2.296   3.817  0.00  0.00    +0.001 A 
ATOM     10  C   UNL     1       9.028  -2.247   4.759  0.00  0.00    +0.015 A 
ENDBRANCH   1   2
BRANCH   1  11
ATOM     11  C   UNL     1       5.238  -3.036   0.719  0.00  0.00    +0.201 C 
ATOM     12  O   UNL     1       4.139  -3.379   0.340  0.00  0.00    -0.277 OA
ATOM     13  N   UNL     1       6.285  -3.877   0.600  0.00  0.00    -0.330 N 
ATOM     14  H   UNL     1       7.164  -3.603   0.904  0.00  0.00    +0.145 HD
ATOM     15  H   UNL     1       6.158  -4.757   0.210  0.00  0.00    +0.145 HD
ENDBRANCH   1  11
BRANCH   1  16
ATOM     16  N   UNL     1       4.153  -0.953   1.342  0.00  0.00    +0.392 N 
ATOM     17  H   UNL     1       4.267  -0.072   1.821  0.00  0.00    -0.084 HD
ATOM     18  H   UNL     1       3.462  -1.510   1.822  0.00  0.00    -0.084 HD
BRANCH  16  19
ATOM     19  C   UNL     1       3.711  -0.707  -0.038  0.00  0.00    -0.045 C 
BRANCH  19  23
ATOM     20  C   UNL     1      -0.017   1.378   0.010  0.00  0.00    +0.000 A 
ATOM     21  C   UNL     1       1.171   2.086   0.002  0.00  0.00    +0.000 A 
ATOM     22  C   UNL     1       2.377   1.411  -0.013  0.00  0.00    +0.002 A 
ATOM     23  C   UNL     1       2.396   0.029  -0.020  0.00  0.00    -0.064 A 
ATOM     24  C   UNL     1       1.208  -0.679  -0.012  0.00  0.00    +0.002 A 
ATOM     25  C   UNL     1       0.002  -0.004   0.002  0.00  0.00    +0.000 A 
ENDBRANCH  19  23
ENDBRANCH  16  19
ENDBRANCH   1  16
TORSDOF 5
