REMARK  Name = ZINC39584768
REMARK  6 active torsions:
REMARK  status: ('A' for Active; 'I' for Inactive)
REMARK    1  A    between atoms: C_1  and  C_2
REMARK    2  A    between atoms: C_2  and  O_3
REMARK    3  A    between atoms: O_3  and  C_4
REMARK    4  A    between atoms: C_8  and  C_10
REMARK    5  A    between atoms: N_15  and  N_16
REMARK    6  A    between atoms: C_17  and  C_18
REMARK                            x       y       z     vdW  Elec       q    Type
REMARK                         _______ _______ _______ _____ _____    ______ ____
ROOT
ATOM      1  C   UNL     1       2.271  -4.379   3.967  0.00  0.00    +0.214 C 
ATOM      2  N   UNL     1       3.379  -3.457   4.285  0.00  0.00    -0.215 NA
ATOM      3  N   UNL     1       4.526  -4.100   3.917  0.00  0.00    -0.259 N 
ATOM      4  C   UNL     1       4.258  -5.310   3.410  0.00  0.00    +0.168 C 
ATOM      5  N   UNL     1       2.934  -5.566   3.402  0.00  0.00    -0.180 N 
ATOM      6  S   UNL     1       5.450  -6.401   2.845  0.00  0.00    -0.016 S 
ATOM      7  H   UNL     1       3.278  -2.585   3.787  0.00  0.00    +0.147 HD
ATOM      8  H   UNL     1       5.417  -3.729   4.011  0.00  0.00    +0.168 HD
ENDROOT
BRANCH   1  13
ATOM      9  C   UNL     1       0.281  -1.826   2.019  0.00  0.00    +0.121 A 
ATOM     10  C   UNL     1      -0.361  -2.630   1.088  0.00  0.00    +0.045 A 
ATOM     11  C   UNL     1      -0.149  -3.995   1.094  0.00  0.00    +0.004 A 
ATOM     12  C   UNL     1       0.702  -4.560   2.025  0.00  0.00    +0.007 A 
ATOM     13  C   UNL     1       1.344  -3.760   2.953  0.00  0.00    -0.006 A 
ATOM     14  C   UNL     1       1.139  -2.394   2.948  0.00  0.00    +0.052 A 
BRANCH   9  15
ATOM     15  O   UNL     1       0.074  -0.482   2.015  0.00  0.00    -0.492 OA
BRANCH  15  17
ATOM     16  C   UNL     1      -0.927   1.552   1.180  0.00  0.00    +0.048 C 
ATOM     17  C   UNL     1      -0.822   0.033   1.029  0.00  0.00    +0.225 C 
ENDBRANCH  15  17
ENDBRANCH   9  15
ENDBRANCH   1  13
BRANCH   5  18
ATOM     18  N   UNL     1       2.308  -6.732   2.944  0.00  0.00    -0.184 NA
ATOM     19  C   UNL     1       3.031  -7.761   2.574  0.00  0.00    +0.136 C 
BRANCH  19  20
ATOM     20  C   UNL     1       2.413  -8.888   2.018  0.00  0.00    +0.000 C 
ATOM     21  C   UNL     1       3.030 -10.059   1.582  0.00  0.00    +0.004 A 
ATOM     22  C   UNL     1       4.380 -10.473   1.554  0.00  0.00    +0.010 A 
ATOM     23  C   UNL     1       4.699 -11.697   1.061  0.00  0.00    +0.001 A 
ATOM     24  C   UNL     1       3.720 -12.568   0.575  0.00  0.00    +0.002 A 
ATOM     25  C   UNL     1       2.406 -12.237   0.571  0.00  0.00    +0.026 A 
ATOM     26  C   UNL     1       1.995 -10.974   1.071  0.00  0.00    +0.043 A 
ATOM     27  N   UNL     1       0.802 -10.424   1.174  0.00  0.00    -0.380 N 
ATOM     28  C   UNL     1       0.934  -9.091   1.772  0.00  0.00    +0.150 C 
ATOM     29  H   UNL     1      -0.032 -10.837   0.902  0.00  0.00    +0.160 HD
ENDBRANCH  19  20
ENDBRANCH   5  18
TORSDOF 5
