REMARK  Name = ZINC05343750
REMARK  5 active torsions:
REMARK  status: ('A' for Active; 'I' for Inactive)
REMARK    1  A    between atoms: C_1  and  C_2
REMARK    2  A    between atoms: C_2  and  C_3
REMARK    3  A    between atoms: C_3  and  O_4
REMARK    4  A    between atoms: O_4  and  C_5
REMARK    5  A    between atoms: C_8  and  C_11
REMARK                            x       y       z     vdW  Elec       q    Type
REMARK                         _______ _______ _______ _____ _____    ______ ____
ROOT
ATOM      1  C   UNL     1      -6.397  -4.588   0.038  0.00  0.00    +0.093 C 
ATOM      2  C   UNL     1      -6.502  -5.452   1.268  0.00  0.00    +0.069 A 
ATOM      3  C   UNL     1      -6.703  -4.829   2.522  0.00  0.00    +0.280 A 
ATOM      4  O   UNL     1      -6.793  -3.612   2.594  0.00  0.00    -0.265 OA
ATOM      5  N   UNL     1      -6.795  -5.577   3.632  0.00  0.00    -0.177 NA
ATOM      6  C   UNL     1      -6.700  -6.888   3.572  0.00  0.00    +0.195 A 
ATOM      7  N   UNL     1      -6.508  -7.525   2.386  0.00  0.00    -0.316 N 
ATOM      8  C   UNL     1      -6.410  -6.806   1.220  0.00  0.00    +0.112 A 
ATOM      9  N   UNL     1      -6.228  -7.491   0.033  0.00  0.00    -0.300 N 
ATOM     10  C   UNL     1      -6.431  -6.817  -1.150  0.00  0.00    +0.048 C 
ATOM     11  C   UNL     1      -6.519  -5.449  -1.192  0.00  0.00    +0.034 C 
ATOM     12  C   UNL     1      -6.734  -5.028  -2.524  0.00  0.00    +0.193 C 
ATOM     13  O   UNL     1      -6.860  -3.880  -2.904  0.00  0.00    -0.287 OA
ATOM     14  C   UNL     1      -6.777  -6.240  -3.371  0.00  0.00    +0.031 A 
ATOM     15  C   UNL     1      -6.586  -7.348  -2.508  0.00  0.00    +0.007 A 
ATOM     16  C   UNL     1      -6.574  -8.643  -3.003  0.00  0.00    +0.010 A 
ATOM     17  C   UNL     1      -6.757  -8.796  -4.380  0.00  0.00    +0.001 A 
ATOM     18  C   UNL     1      -6.942  -7.719  -5.214  0.00  0.00    +0.001 A 
ATOM     19  C   UNL     1      -6.958  -6.407  -4.730  0.00  0.00    +0.012 A 
ATOM     20  N   UNL     1      -6.796  -7.623   4.723  0.00  0.00    -0.329 N 
ATOM     21  H   UNL     1      -5.964  -8.424   0.034  0.00  0.00    +0.154 HD
ATOM     22  H   UNL     1      -6.934  -7.176   5.574  0.00  0.00    +0.145 HD
ATOM     23  H   UNL     1      -6.728  -8.590   4.689  0.00  0.00    +0.145 HD
ATOM     24  H   UNL     1      -6.440  -8.492   2.364  0.00  0.00    +0.170 HD
ENDROOT
BRANCH   1  28
ATOM     25  C   UNL     1      -2.616  -2.596   0.013  0.00  0.00    +0.121 A 
ATOM     26  C   UNL     1      -3.791  -1.857   0.022  0.00  0.00    +0.046 A 
ATOM     27  C   UNL     1      -5.012  -2.504   0.030  0.00  0.00    +0.008 A 
ATOM     28  C   UNL     1      -5.064  -3.885   0.029  0.00  0.00    -0.035 A 
ATOM     29  C   UNL     1      -3.895  -4.624   0.020  0.00  0.00    +0.008 A 
ATOM     30  C   UNL     1      -2.671  -3.982   0.006  0.00  0.00    +0.046 A 
BRANCH  25  31
ATOM     31  O   UNL     1      -1.414  -1.962   0.005  0.00  0.00    -0.492 OA
BRANCH  31  32
ATOM     32  C   UNL     1      -1.433  -0.534   0.013  0.00  0.00    +0.229 C 
BRANCH  32  34
ATOM     33  C   UNL     1      -0.019   1.526   0.010  0.00  0.00    +0.007 C 
ATOM     34  C   UNL     1       0.002  -0.004   0.002  0.00  0.00    +0.038 C 
ENDBRANCH  32  34
ENDBRANCH  31  32
ENDBRANCH  25  31
ENDBRANCH   1  28
TORSDOF 4
