REMARK  Name = ZINC21250027
REMARK  10 active torsions:
REMARK  status: ('A' for Active; 'I' for Inactive)
REMARK    1  A    between atoms: C_1  and  C_2
REMARK    2  A    between atoms: C_2  and  C_3
REMARK    3  A    between atoms: C_6  and  C_9
REMARK    4  A    between atoms: C_14  and  C_24
REMARK    5  A    between atoms: C_26  and  O_34
REMARK    6  A    between atoms: C_27  and  O_32
REMARK    7  A    between atoms: C_29  and  O_30
REMARK    8  A    between atoms: O_30  and  C_31
REMARK    9  A    between atoms: O_32  and  C_33
REMARK   10  A    between atoms: O_34  and  C_35
REMARK                            x       y       z     vdW  Elec       q    Type
REMARK                         _______ _______ _______ _____ _____    ______ ____
ROOT
ATOM      1  C   UNL     1      -5.228  -4.221   2.884  0.00  0.00    +0.032 C 
ATOM      2  C   UNL     1      -6.471  -3.524   3.434  0.00  0.00    +0.059 C 
ATOM      3  C   UNL     1      -6.507  -2.079   2.966  0.00  0.00    +0.017 C 
ATOM      4  C   UNL     1      -5.990  -1.734   1.774  0.00  0.00    +0.037 C 
ATOM      5  C   UNL     1      -5.966  -0.343   1.187  0.00  0.00    +0.140 C 
ATOM      6  N   UNL     1      -6.789   0.619   1.888  0.00  0.00    -0.331 N 
ATOM      7  C   UNL     1      -6.502   0.989   3.201  0.00  0.00    +0.049 A 
ATOM      8  C   UNL     1      -6.066   2.267   3.512  0.00  0.00    +0.025 A 
ATOM      9  C   UNL     1      -5.683   2.557   4.810  0.00  0.00    +0.002 A 
ATOM     10  C   UNL     1      -5.735   1.582   5.790  0.00  0.00    +0.002 A 
ATOM     11  C   UNL     1      -6.191   0.310   5.486  0.00  0.00    +0.025 A 
ATOM     12  C   UNL     1      -6.591   0.024   4.192  0.00  0.00    +0.052 A 
ATOM     13  N   UNL     1      -7.102  -1.216   3.828  0.00  0.00    -0.316 N 
ATOM     14  C   UNL     1      -5.396  -2.715   0.945  0.00  0.00    +0.163 C 
ATOM     15  O   UNL     1      -4.954  -2.380  -0.137  0.00  0.00    -0.292 OA
ATOM     16  C   UNL     1      -5.293  -4.154   1.354  0.00  0.00    +0.088 C 
ATOM     17  H   UNL     1      -7.657   1.071   1.384  0.00  0.00    +0.147 HD
ATOM     18  H   UNL     1      -8.062  -1.480   4.296  0.00  0.00    +0.152 HD
ENDROOT
BRANCH   1  22
ATOM     19  C   UNL     1      -5.174  -8.299   4.154  0.00  0.00    -0.048 A 
ATOM     20  C   UNL     1      -4.122  -7.462   4.475  0.00  0.00    +0.004 A 
ATOM     21  C   UNL     1      -4.139  -6.142   4.064  0.00  0.00    +0.004 A 
ATOM     22  C   UNL     1      -5.209  -5.660   3.332  0.00  0.00    -0.043 A 
ATOM     23  C   UNL     1      -6.263  -6.496   3.016  0.00  0.00    +0.004 A 
ATOM     24  C   UNL     1      -6.244  -7.817   3.423  0.00  0.00    +0.004 A 
BRANCH  19  26
ATOM     25  C   UNL     1      -5.817  -9.854   5.976  0.00  0.00    +0.009 C 
ATOM     26  C   UNL     1      -5.155  -9.738   4.601  0.00  0.00    +0.032 C 
ENDBRANCH  19  26
ENDBRANCH   1  22
BRANCH   5  27
ATOM     27  C   UNL     1      -4.543   0.153   1.192  0.00  0.00    +0.023 A 
ATOM     28  C   UNL     1      -3.598  -0.469   1.987  0.00  0.00    +0.058 A 
ATOM     29  C   UNL     1      -2.288  -0.018   1.989  0.00  0.00    +0.162 A 
ATOM     30  C   UNL     1      -1.926   1.068   1.198  0.00  0.00    +0.165 A 
ATOM     31  C   UNL     1      -2.874   1.689   0.402  0.00  0.00    +0.095 A 
ATOM     32  C   UNL     1      -4.183   1.232   0.399  0.00  0.00    +0.129 A 
BRANCH  32  33
ATOM     33  O   UNL     1      -5.115   1.841  -0.382  0.00  0.00    -0.495 OA
ATOM     34  C   UNL     1      -4.674   2.947  -1.174  0.00  0.00    +0.277 C 
ENDBRANCH  32  33
BRANCH  30  35
ATOM     35  O   UNL     1      -0.642   1.515   1.202  0.00  0.00    -0.491 OA
ATOM     36  C   UNL     1      -0.340   2.630   0.361  0.00  0.00    +0.277 C 
ENDBRANCH  30  35
BRANCH  29  37
ATOM     37  O   UNL     1      -1.357  -0.634   2.767  0.00  0.00    -0.491 OA
ATOM     38  C   UNL     1      -1.773  -1.807   3.470  0.00  0.00    +0.277 C 
ENDBRANCH  29  37
ENDBRANCH   5  27
TORSDOF 6
