REMARK  Name = ZINC09282263
REMARK  11 active torsions:
REMARK  status: ('A' for Active; 'I' for Inactive)
REMARK    1  A    between atoms: C_1  and  C_2
REMARK    2  A    between atoms: C_2  and  O_3
REMARK    3  A    between atoms: O_3  and  C_4
REMARK    4  A    between atoms: C_7  and  C_10
REMARK    5  A    between atoms: C_17  and  N_34
REMARK    6  A    between atoms: C_18  and  C_32
REMARK    7  A    between atoms: C_19  and  C_21
REMARK    8  A    between atoms: C_23  and  O_29
REMARK    9  A    between atoms: C_24  and  O_28
REMARK   10  A    between atoms: O_29  and  C_30
REMARK   11  A    between atoms: C_30  and  C_31
REMARK                            x       y       z     vdW  Elec       q    Type
REMARK                         _______ _______ _______ _____ _____    ______ ____
ROOT
ATOM      1  C   UNL     1      -1.998  -6.069  -0.011  0.00  0.00    +0.074 A 
ATOM      2  C   UNL     1      -2.859  -6.773  -0.786  0.00  0.00    +0.054 A 
ATOM      3  C   UNL     1      -2.705  -8.139  -0.478  0.00  0.00    +0.245 A 
ATOM      4  N   UNL     1      -1.790  -8.252   0.441  0.00  0.00    -0.135 NA
ATOM      5  N   UNL     1      -1.316  -6.969   0.758  0.00  0.00    -0.273 N 
ATOM      6  H   UNL     1      -0.629  -6.759   1.409  0.00  0.00    +0.189 HD
ATOM      7  O   UNL     1      -3.441  -9.103  -1.095  0.00  0.00    -0.421 OA
ATOM      8  C   UNL     1      -4.511  -8.705  -1.812  0.00  0.00    +0.201 C 
ATOM      9  C   UNL     1      -4.756  -7.428  -2.176  0.00  0.00    +0.098 C 
ATOM     10  C   UNL     1      -3.842  -6.284  -1.818  0.00  0.00    +0.102 C 
ENDROOT
BRANCH  10  11
ATOM     11  C   UNL     1      -3.101  -5.821  -3.046  0.00  0.00    -0.030 A 
ATOM     12  C   UNL     1      -3.219  -4.510  -3.470  0.00  0.00    +0.054 A 
ATOM     13  C   UNL     1      -2.539  -4.082  -4.599  0.00  0.00    +0.163 A 
ATOM     14  C   UNL     1      -1.738  -4.975  -5.305  0.00  0.00    +0.173 A 
ATOM     15  C   UNL     1      -1.624  -6.288  -4.875  0.00  0.00    +0.063 A 
ATOM     16  C   UNL     1      -2.302  -6.707  -3.744  0.00  0.00    +0.023 A 
ATOM     17 BR   UNL     1      -0.537  -7.504  -5.831  0.00  0.00    -0.046 Br
BRANCH  14  18
ATOM     18  O   UNL     1      -1.069  -4.560  -6.414  0.00  0.00    -0.503 OA
ATOM     19  H   UNL     1      -0.184  -4.215  -6.233  0.00  0.00    +0.292 HD
ENDBRANCH  14  18
BRANCH  13  20
ATOM     20  O   UNL     1      -2.655  -2.793  -5.016  0.00  0.00    -0.489 OA
BRANCH  20  21
ATOM     21  C   UNL     1      -3.494  -1.933  -4.243  0.00  0.00    +0.226 C 
ATOM     22  C   UNL     1      -3.500  -0.534  -4.862  0.00  0.00    +0.048 C 
ENDBRANCH  20  21
ENDBRANCH  13  20
ENDBRANCH  10  11
BRANCH   1  26
ATOM     23  C   UNL     1      -1.498  -1.848   0.006  0.00  0.00    +0.121 A 
ATOM     24  C   UNL     1      -0.385  -2.677  -0.003  0.00  0.00    +0.046 A 
ATOM     25  C   UNL     1      -0.543  -4.047  -0.009  0.00  0.00    +0.013 A 
ATOM     26  C   UNL     1      -1.824  -4.599  -0.005  0.00  0.00    +0.000 A 
ATOM     27  C   UNL     1      -2.941  -3.763   0.005  0.00  0.00    +0.013 A 
ATOM     28  C   UNL     1      -2.775  -2.394   0.016  0.00  0.00    +0.046 A 
BRANCH  23  29
ATOM     29  O   UNL     1      -1.339  -0.499   0.012  0.00  0.00    -0.492 OA
BRANCH  29  31
ATOM     30  C   UNL     1      -0.019   1.526   0.010  0.00  0.00    +0.048 C 
ATOM     31  C   UNL     1       0.002  -0.004   0.002  0.00  0.00    +0.225 C 
ENDBRANCH  29  31
ENDBRANCH  23  29
ENDBRANCH   1  26
BRANCH   8  32
ATOM     32  N   UNL     1      -5.413  -9.664  -2.200  0.00  0.00    -0.328 N 
ATOM     33  H   UNL     1      -5.269 -10.592  -1.956  0.00  0.00    +0.145 HD
ATOM     34  H   UNL     1      -6.195  -9.413  -2.716  0.00  0.00    +0.145 HD
ENDBRANCH   8  32
BRANCH   9  35
ATOM     35  C   UNL     1      -5.937  -7.149  -2.935  0.00  0.00    +0.101 C 
ATOM     36  N   UNL     1      -6.874  -6.926  -3.538  0.00  0.00    -0.191 NA
ENDBRANCH   9  35
TORSDOF 9
