REMARK  Name = ZINC36684894
REMARK  9 active torsions:
REMARK  status: ('A' for Active; 'I' for Inactive)
REMARK    1  A    between atoms: C_1  and  C_2
REMARK    2  A    between atoms: C_5  and  C_35
REMARK    3  A    between atoms: N_8  and  S_10
REMARK    4  A    between atoms: S_10  and  C_13
REMARK    5  A    between atoms: C_17  and  C_19
REMARK    6  A    between atoms: N_21  and  C_22
REMARK    7  A    between atoms: C_22  and  C_23
REMARK    8  A    between atoms: C_23  and  C_25
REMARK    9  A    between atoms: C_23  and  N_30
REMARK                            x       y       z     vdW  Elec       q    Type
REMARK                         _______ _______ _______ _____ _____    ______ ____
ROOT
ATOM      1  C   UNL     1       2.505  -3.369  -0.273  0.00  0.00    +0.106 A 
ATOM      2  C   UNL     1       1.911  -4.375  -1.015  0.00  0.00    +0.028 A 
ATOM      3  C   UNL     1       2.287  -4.587  -2.330  0.00  0.00    +0.003 A 
ATOM      4  C   UNL     1       3.257  -3.795  -2.909  0.00  0.00    +0.013 A 
ATOM      5  C   UNL     1       3.860  -2.779  -2.166  0.00  0.00    +0.039 A 
ATOM      6  C   UNL     1       3.472  -2.567  -0.841  0.00  0.00    +0.041 A 
ENDROOT
BRANCH   5   7
ATOM      7  C   UNL     1       4.901  -1.927  -2.780  0.00  0.00    +0.244 C 
ATOM      8  O   UNL     1       5.424  -1.043  -2.130  0.00  0.00    -0.270 OA
ATOM      9  N   UNL     1       5.269  -2.131  -4.060  0.00  0.00    -0.313 N 
ATOM     10  H   UNL     1       4.852  -2.836  -4.578  0.00  0.00    +0.149 HD
BRANCH   9  11
ATOM     11  C   UNL     1       6.301  -1.287  -4.668  0.00  0.00    +0.094 C 
BRANCH  11  12
ATOM     12  C   UNL     1       6.605  -1.791  -6.080  0.00  0.00    -0.013 C 
BRANCH  12  13
ATOM     13  N   UNL     1       7.729  -1.030  -6.641  0.00  0.00    +0.386 N 
ATOM     14  C   UNL     1       8.953  -1.250  -5.829  0.00  0.00    -0.078 C 
ATOM     15  C   UNL     1      10.098  -0.888  -6.807  0.00  0.00    -0.020 C 
ATOM     16  C   UNL     1       9.581  -1.429  -8.160  0.00  0.00    -0.020 C 
ATOM     17  C   UNL     1       8.052  -1.521  -7.998  0.00  0.00    -0.078 C 
ATOM     18  H   UNL     1       7.503  -0.047  -6.671  0.00  0.00    -0.081 HD
ENDBRANCH  12  13
BRANCH  12  19
ATOM     19  C   UNL     1       5.390  -1.608  -6.952  0.00  0.00    -0.022 A 
ATOM     20  C   UNL     1       4.456  -2.520  -7.317  0.00  0.00    +0.009 A 
ATOM     21  C   UNL     1       3.414  -2.122  -8.133  0.00  0.00    +0.008 A 
ATOM     22  C   UNL     1       3.357  -0.832  -8.545  0.00  0.00    +0.045 A 
ATOM     23  S   UNL     1       4.802  -0.132  -7.766  0.00  0.00    -0.103 S 
ENDBRANCH  12  19
ENDBRANCH  11  12
ENDBRANCH   9  11
ENDBRANCH   5   7
BRANCH   1  24
ATOM     24  S   UNL     1       2.019  -3.108   1.401  0.00  0.00    +0.061 S 
ATOM     25  O   UNL     1       3.107  -2.457   2.043  0.00  0.00    -0.153 OA
ATOM     26  O   UNL     1       1.487  -4.341   1.866  0.00  0.00    -0.153 OA
BRANCH  24  32
ATOM     27  C   UNL     1       0.462   1.625   0.433  0.00  0.00    +0.009 C 
ATOM     28  C   UNL     1       0.322   0.108   0.290  0.00  0.00    +0.002 C 
ATOM     29  C   UNL     1      -1.162  -0.269   0.288  0.00  0.00    +0.009 C 
ATOM     30  C   UNL     1      -1.304  -1.783   0.112  0.00  0.00    +0.002 C 
ATOM     31  C   UNL     1      -0.625  -2.496   1.286  0.00  0.00    +0.112 C 
ATOM     32  N   UNL     1       0.764  -2.028   1.383  0.00  0.00    -0.176 NA
ATOM     33  C   UNL     1       1.020  -0.583   1.465  0.00  0.00    +0.112 C 
ATOM     34  C   UNL     1      -2.788  -2.155   0.077  0.00  0.00    +0.009 C 
ENDBRANCH  24  32
ENDBRANCH   1  24
TORSDOF 7
