REMARK  Name = ZINC09147054
REMARK  7 active torsions:
REMARK  status: ('A' for Active; 'I' for Inactive)
REMARK    1  A    between atoms: C_1  and  C_2
REMARK    2  A    between atoms: C_8  and  C_10
REMARK    3  A    between atoms: C_10  and  C_12
REMARK    4  A    between atoms: C_10  and  S_13
REMARK    5  A    between atoms: S_13  and  C_14
REMARK    6  A    between atoms: C_17  and  C_25
REMARK    7  A    between atoms: N_18  and  C_19
REMARK                            x       y       z     vdW  Elec       q    Type
REMARK                         _______ _______ _______ _____ _____    ______ ____
ROOT
ATOM      1  C   UNL     1       2.651   4.351  -0.742  0.00  0.00    +0.197 A 
ATOM      2  N   UNL     1       3.759   3.719  -0.420  0.00  0.00    -0.122 NA
ATOM      3  N   UNL     1       4.751   4.535  -0.428  0.00  0.00    -0.128 NA
ATOM      4  C   UNL     1       4.339   5.740  -0.746  0.00  0.00    +0.169 A 
ATOM      5  N   UNL     1       2.980   5.660  -0.958  0.00  0.00    -0.270 N 
ENDROOT
BRANCH   5   6
ATOM      6  C   UNL     1       2.115   6.703  -1.317  0.00  0.00    +0.051 A 
ATOM      7  C   UNL     1       2.216   7.288  -2.572  0.00  0.00    +0.026 A 
ATOM      8  C   UNL     1       1.359   8.312  -2.926  0.00  0.00    +0.002 A 
ATOM      9  C   UNL     1       0.409   8.762  -2.028  0.00  0.00    +0.000 A 
ATOM     10  C   UNL     1       0.309   8.184  -0.775  0.00  0.00    +0.002 A 
ATOM     11  C   UNL     1       1.160   7.157  -0.418  0.00  0.00    +0.026 A 
ENDBRANCH   5   6
BRANCH   4  12
ATOM     12  C   UNL     1       5.175   6.954  -0.856  0.00  0.00    +0.022 A 
ATOM     13  C   UNL     1       6.568   6.860  -0.972  0.00  0.00    +0.031 A 
ATOM     14  C   UNL     1       7.309   8.018  -1.078  0.00  0.00    +0.111 A 
ATOM     15  N   UNL     1       6.724   9.201  -1.060  0.00  0.00    -0.263 NA
ATOM     16  C   UNL     1       5.415   9.335  -0.947  0.00  0.00    +0.111 A 
ATOM     17  C   UNL     1       4.598   8.229  -0.842  0.00  0.00    +0.031 A 
ENDBRANCH   4  12
BRANCH   1  18
ATOM     18  S   UNL     1       1.042   3.643  -0.866  0.00  0.00    -0.073 S 
BRANCH  18  19
ATOM     19  C   UNL     1       1.421   1.924  -0.447  0.00  0.00    +0.137 C 
ATOM     20  C   UNL     1       1.904   1.847   1.003  0.00  0.00    +0.029 C 
BRANCH  19  28
ATOM     21  C   UNL     1      -2.233  -4.415  -1.351  0.00  0.00    +0.066 C 
ATOM     22  C   UNL     1      -2.130  -2.921  -1.180  0.00  0.00    +0.047 A 
ATOM     23  C   UNL     1      -3.242  -2.148  -1.157  0.00  0.00    +0.071 A 
ATOM     24  S   UNL     1      -2.517  -0.530  -0.938  0.00  0.00    -0.060 S 
ATOM     25  C   UNL     1      -0.854  -1.031  -0.901  0.00  0.00    +0.165 A 
ATOM     26  N   UNL     1      -0.954  -2.336  -1.056  0.00  0.00    -0.230 NA
ATOM     27  N   UNL     1       0.289  -0.254  -0.751  0.00  0.00    -0.264 N 
ATOM     28  C   UNL     1       0.182   1.082  -0.609  0.00  0.00    +0.232 C 
ATOM     29  O   UNL     1      -0.911   1.607  -0.617  0.00  0.00    -0.274 OA
ATOM     30  H   UNL     1       1.163  -0.674  -0.749  0.00  0.00    +0.157 HD
ENDBRANCH  19  28
ENDBRANCH  18  19
ENDBRANCH   1  18
TORSDOF 5
