REMARK  Name = ZINC39359547
REMARK  14 active torsions:
REMARK  status: ('A' for Active; 'I' for Inactive)
REMARK    1  A    between atoms: C_1  and  C_2
REMARK    2  A    between atoms: C_8  and  C_16
REMARK    3  A    between atoms: C_10  and  C_14
REMARK    4  A    between atoms: C_11  and  N_13
REMARK    5  A    between atoms: C_18  and  O_26
REMARK    6  A    between atoms: C_19  and  O_24
REMARK    7  A    between atoms: C_20  and  O_22
REMARK    8  A    between atoms: O_22  and  C_23
REMARK    9  A    between atoms: O_24  and  C_25
REMARK   10  A    between atoms: O_26  and  C_27
REMARK   11  A    between atoms: N_30  and  C_31
REMARK   12  A    between atoms: C_31  and  C_32
REMARK   13  A    between atoms: C_32  and  C_33
REMARK   14  A    between atoms: C_41  and  C_43
REMARK                            x       y       z     vdW  Elec       q    Type
REMARK                         _______ _______ _______ _____ _____    ______ ____
ROOT
ATOM      1  C   UNL     1      -0.019   1.526   0.010  0.00  0.00    +0.032 C 
ATOM      2  C   UNL     1       0.002  -0.004   0.002  0.00  0.00    +0.099 C 
ATOM      3  C   UNL     1       0.673  -0.472  -1.248  0.00  0.00    +0.037 C 
ATOM      4  C   UNL     1       1.754  -1.194  -1.285  0.00  0.00    +0.118 C 
ATOM      5  C   UNL     1       2.485  -1.651  -0.049  0.00  0.00    +0.153 C 
ATOM      6  C   UNL     1       2.567  -3.182  -0.092  0.00  0.00    +0.084 C 
ATOM      7  C   UNL     1       2.926  -3.624  -1.484  0.00  0.00    +0.095 C 
ATOM      8  C   UNL     1       2.761  -2.834  -2.568  0.00  0.00    +0.198 C 
ATOM      9  O   UNL     1       2.282  -1.575  -2.487  0.00  0.00    -0.445 OA
ATOM     10  C   UNL     1       1.776  -1.223   1.196  0.00  0.00    +0.227 C 
ATOM     11  O   UNL     1       2.243  -1.560   2.263  0.00  0.00    -0.275 OA
ATOM     12  N   UNL     1       0.677  -0.472   1.200  0.00  0.00    -0.294 N 
ENDROOT
BRANCH   6  13
ATOM     13  C   UNL     1       3.623  -3.656   0.874  0.00  0.00    -0.031 A 
ATOM     14  C   UNL     1       4.933  -3.240   0.721  0.00  0.00    +0.054 A 
ATOM     15  C   UNL     1       5.907  -3.674   1.607  0.00  0.00    +0.165 A 
ATOM     16  C   UNL     1       5.566  -4.527   2.650  0.00  0.00    +0.204 A 
ATOM     17  C   UNL     1       4.248  -4.942   2.800  0.00  0.00    +0.165 A 
ATOM     18  C   UNL     1       3.279  -4.500   1.913  0.00  0.00    +0.054 A 
BRANCH  17  19
ATOM     19  O   UNL     1       3.909  -5.777   3.819  0.00  0.00    -0.491 OA
ATOM     20  C   UNL     1       2.536  -6.162   3.912  0.00  0.00    +0.277 C 
ENDBRANCH  17  19
BRANCH  16  21
ATOM     21  O   UNL     1       6.520  -4.955   3.521  0.00  0.00    -0.488 OA
ATOM     22  C   UNL     1       6.744  -4.155   4.683  0.00  0.00    +0.277 C 
ENDBRANCH  16  21
BRANCH  15  23
ATOM     23  O   UNL     1       7.196  -3.266   1.456  0.00  0.00    -0.491 OA
ATOM     24  C   UNL     1       7.474  -2.390   0.361  0.00  0.00    +0.277 C 
ENDBRANCH  15  23
ENDBRANCH   6  13
BRANCH   8  25
ATOM     25  N   UNL     1       3.096  -3.333  -3.802  0.00  0.00    -0.328 N 
ATOM     26  H   UNL     1       3.443  -4.235  -3.883  0.00  0.00    +0.145 HD
ATOM     27  H   UNL     1       2.986  -2.783  -4.593  0.00  0.00    +0.145 HD
ENDBRANCH   8  25
BRANCH   7  28
ATOM     28  C   UNL     1       3.465  -4.938  -1.670  0.00  0.00    +0.100 C 
ATOM     29  N   UNL     1       3.893  -5.980  -1.817  0.00  0.00    -0.191 NA
ENDBRANCH   7  28
BRANCH  12  30
ATOM     30  C   UNL     1       0.103  -0.107   2.498  0.00  0.00    +0.113 C 
BRANCH  30  31
ATOM     31  C   UNL     1      -0.897  -1.181   2.932  0.00  0.00    +0.056 C 
BRANCH  31  32
ATOM     32  C   UNL     1      -1.488  -0.806   4.267  0.00  0.00    -0.018 A 
ATOM     33  C   UNL     1      -2.693  -0.005   4.493  0.00  0.00    +0.003 A 
ATOM     34  C   UNL     1      -3.614   0.620   3.651  0.00  0.00    +0.010 A 
ATOM     35  C   UNL     1      -4.663   1.312   4.187  0.00  0.00    +0.001 A 
ATOM     36  C   UNL     1      -4.821   1.398   5.564  0.00  0.00    +0.002 A 
ATOM     37  C   UNL     1      -3.924   0.788   6.413  0.00  0.00    +0.026 A 
ATOM     38  C   UNL     1      -2.849   0.078   5.888  0.00  0.00    +0.047 A 
ATOM     39  N   UNL     1      -1.809  -0.624   6.456  0.00  0.00    -0.358 N 
ATOM     40  C   UNL     1      -1.012  -1.148   5.475  0.00  0.00    +0.017 A 
ATOM     41  H   UNL     1      -1.665  -0.734   7.409  0.00  0.00    +0.166 HD
ATOM     42  C   UNL     1       0.220  -1.982   5.715  0.00  0.00    +0.063 C 
ENDBRANCH  31  32
ENDBRANCH  30  31
ENDBRANCH  12  30
TORSDOF 9
