REMARK  Name = ZINC15082504
REMARK  7 active torsions:
REMARK  status: ('A' for Active; 'I' for Inactive)
REMARK    1  A    between atoms: C_1  and  C_2
REMARK    2  A    between atoms: C_2  and  N_3
REMARK    3  A    between atoms: C_15  and  C_23
REMARK    4  A    between atoms: C_17  and  C_21
REMARK    5  A    between atoms: C_18  and  N_20
REMARK    6  A    between atoms: C_26  and  O_29
REMARK    7  A    between atoms: O_29  and  C_30
REMARK                            x       y       z     vdW  Elec       q    Type
REMARK                         _______ _______ _______ _____ _____    ______ ____
ROOT
ATOM      1  N   UNL     1       5.982   1.861  -0.039  0.00  0.00    -0.324 N 
ATOM      2  C   UNL     1       4.685   1.395  -0.031  0.00  0.00    +0.161 A 
ATOM      3  N   UNL     1       3.563   2.087  -0.018  0.00  0.00    -0.207 NA
ATOM      4  C   UNL     1       2.365   1.506  -0.011  0.00  0.00    +0.154 A 
ATOM      5  C   UNL     1       2.385   0.107  -0.019  0.00  0.00    +0.100 A 
ATOM      6  S   UNL     1       4.124  -0.248  -0.035  0.00  0.00    -0.047 S 
ATOM      7  C   UNL     1       1.224  -0.658  -0.013  0.00  0.00    +0.157 A 
ATOM      8  C   UNL     1       0.002  -0.004   0.002  0.00  0.00    +0.073 A 
ATOM      9  C   UNL     1      -0.017   1.392   0.010  0.00  0.00    +0.258 A 
ATOM     10  O   UNL     1      -1.092   1.972   0.018  0.00  0.00    -0.267 OA
ATOM     11  N   UNL     1       1.113   2.113   0.003  0.00  0.00    -0.306 N 
ATOM     12  H   UNL     1       1.056   3.082   0.008  0.00  0.00    +0.170 HD
ATOM     13  C   UNL     1      -1.285  -0.780   0.011  0.00  0.00    +0.103 C 
ATOM     14  C   UNL     1      -1.029  -2.208   0.401  0.00  0.00    +0.098 C 
ATOM     15  C   UNL     1       0.219  -2.732   0.363  0.00  0.00    +0.199 C 
ATOM     16  O   UNL     1       1.283  -2.008  -0.023  0.00  0.00    -0.440 OA
ATOM     17  H   UNL     1       6.722   1.234  -0.048  0.00  0.00    +0.148 HD
ENDROOT
BRANCH  13  18
ATOM     18  C   UNL     1      -1.900  -0.742  -1.365  0.00  0.00    -0.034 A 
ATOM     19  C   UNL     1      -1.204  -1.249  -2.446  0.00  0.00    +0.008 A 
ATOM     20  C   UNL     1      -1.767  -1.220  -3.707  0.00  0.00    +0.046 A 
ATOM     21  C   UNL     1      -3.029  -0.672  -3.890  0.00  0.00    +0.120 A 
ATOM     22  C   UNL     1      -3.723  -0.159  -2.804  0.00  0.00    +0.046 A 
ATOM     23  C   UNL     1      -3.158  -0.195  -1.544  0.00  0.00    +0.008 A 
BRANCH  21  24
ATOM     24  O   UNL     1      -3.583  -0.637  -5.130  0.00  0.00    -0.495 OA
ATOM     25  C   UNL     1      -2.810  -1.183  -6.201  0.00  0.00    +0.277 C 
ENDBRANCH  21  24
ENDBRANCH  13  18
BRANCH  15  26
ATOM     26  N   UNL     1       0.403  -4.042   0.730  0.00  0.00    -0.328 N 
ATOM     27  H   UNL     1       1.290  -4.432   0.708  0.00  0.00    +0.145 HD
ATOM     28  H   UNL     1      -0.356  -4.578   1.011  0.00  0.00    +0.145 HD
ENDBRANCH  15  26
BRANCH   1  30
ATOM     29  C   UNL     1       7.753   3.548  -0.043  0.00  0.00    +0.024 C 
ATOM     30  C   UNL     1       6.243   3.303  -0.033  0.00  0.00    +0.100 C 
ENDBRANCH   1  30
BRANCH  14  31
ATOM     31  C   UNL     1      -2.124  -3.030   0.822  0.00  0.00    +0.101 C 
ATOM     32  N   UNL     1      -2.993  -3.681   1.155  0.00  0.00    -0.191 NA
ENDBRANCH  14  31
TORSDOF 5
