REMARK  Name = ZINC41513778
REMARK  15 active torsions:
REMARK  status: ('A' for Active; 'I' for Inactive)
REMARK    1  A    between atoms: C_1  and  C_2
REMARK    2  A    between atoms: C_6  and  O_31
REMARK    3  A    between atoms: C_7  and  C_21
REMARK    4  A    between atoms: C_12  and  C_13
REMARK    5  A    between atoms: C_16  and  O_19
REMARK    6  A    between atoms: O_19  and  C_20
REMARK    7  A    between atoms: C_21  and  N_22
REMARK    8  A    between atoms: N_22  and  C_23
REMARK    9  A    between atoms: N_22  and  C_27
REMARK   10  A    between atoms: C_23  and  C_24
REMARK   11  A    between atoms: C_24  and  C_25
REMARK   12  A    between atoms: C_24  and  C_26
REMARK   13  A    between atoms: C_27  and  C_28
REMARK   14  A    between atoms: C_28  and  C_29
REMARK   15  A    between atoms: C_28  and  C_30
REMARK                            x       y       z     vdW  Elec       q    Type
REMARK                         _______ _______ _______ _____ _____    ______ ____
ROOT
ATOM      1  C   UNL     1       0.194   1.545  -0.303  0.00  0.00    +0.045 C 
ATOM      2  C   UNL     1       0.187   0.043  -0.179  0.00  0.00    -0.025 A 
ATOM      3  C   UNL     1      -1.019  -0.693  -0.314  0.00  0.00    +0.022 A 
ATOM      4  C   UNL     1      -2.190  -0.064  -0.761  0.00  0.00    +0.015 A 
ATOM      5  C   UNL     1      -3.332  -0.792  -0.924  0.00  0.00    +0.046 A 
ATOM      6  C   UNL     1      -3.348  -2.157  -0.643  0.00  0.00    +0.122 A 
ATOM      7  C   UNL     1      -2.206  -2.792  -0.182  0.00  0.00    +0.020 A 
ATOM      8  C   UNL     1      -1.039  -2.066  -0.004  0.00  0.00    +0.144 A 
ATOM      9  O   UNL     1       0.075  -2.665   0.484  0.00  0.00    -0.421 OA
ATOM     10  C   UNL     1       1.262  -2.117   0.138  0.00  0.00    +0.345 A 
ATOM     11  O   UNL     1       2.229  -2.815  -0.107  0.00  0.00    -0.244 OA
ATOM     12  C   UNL     1       1.348  -0.650   0.061  0.00  0.00    +0.070 A 
ENDROOT
BRANCH  12  13
ATOM     13  C   UNL     1       2.639   0.055   0.241  0.00  0.00    -0.011 A 
ATOM     14  C   UNL     1       3.195   0.776  -0.816  0.00  0.00    +0.012 A 
ATOM     15  C   UNL     1       4.396   1.430  -0.645  0.00  0.00    +0.046 A 
ATOM     16  C   UNL     1       5.053   1.373   0.577  0.00  0.00    +0.120 A 
ATOM     17  C   UNL     1       4.502   0.656   1.631  0.00  0.00    +0.046 A 
ATOM     18  C   UNL     1       3.298   0.003   1.469  0.00  0.00    +0.012 A 
BRANCH  16  19
ATOM     19  O   UNL     1       6.237   2.018   0.742  0.00  0.00    -0.495 OA
ATOM     20  C   UNL     1       6.858   1.917   2.025  0.00  0.00    +0.277 C 
ENDBRANCH  16  19
ENDBRANCH  12  13
BRANCH   6  21
ATOM     21  O   UNL     1      -4.490  -2.869  -0.821  0.00  0.00    -0.506 OA
ATOM     22  H   UNL     1      -4.620  -3.184  -1.726  0.00  0.00    +0.292 HD
ENDBRANCH   6  21
BRANCH   7  23
ATOM     23  C   UNL     1      -2.233  -4.267   0.125  0.00  0.00    -0.036 C 
BRANCH  23  24
ATOM     24  N   UNL     1      -2.033  -5.029  -1.115  0.00  0.00    +0.383 N 
ATOM     25  H   UNL     1      -2.720  -4.746  -1.798  0.00  0.00    -0.081 HD
BRANCH  24  26
ATOM     26  C   UNL     1      -0.685  -4.769  -1.638  0.00  0.00    -0.075 C 
BRANCH  26  27
ATOM     27  C   UNL     1      -0.521  -5.463  -2.992  0.00  0.00    -0.034 C 
ATOM     28  C   UNL     1      -1.478  -4.833  -4.006  0.00  0.00    +0.005 C 
ATOM     29  C   UNL     1       0.920  -5.298  -3.478  0.00  0.00    +0.005 C 
ENDBRANCH  26  27
ENDBRANCH  24  26
BRANCH  24  30
ATOM     30  C   UNL     1      -2.183  -6.464  -0.837  0.00  0.00    -0.075 C 
BRANCH  30  31
ATOM     31  C   UNL     1      -3.630  -6.758  -0.435  0.00  0.00    -0.034 C 
ATOM     32  C   UNL     1      -4.559  -6.436  -1.607  0.00  0.00    +0.005 C 
ATOM     33  C   UNL     1      -3.766  -8.237  -0.067  0.00  0.00    +0.005 C 
ENDBRANCH  30  31
ENDBRANCH  24  30
ENDBRANCH  23  24
ENDBRANCH   7  23
TORSDOF 9
