REMARK  Name = ZINC66643277
REMARK  5 active torsions:
REMARK  status: ('A' for Active; 'I' for Inactive)
REMARK    1  A    between atoms: C_1  and  C_2
REMARK    2  A    between atoms: C_7  and  C_8
REMARK    3  A    between atoms: C_10  and  C_13
REMARK    4  A    between atoms: C_20  and  C_22
REMARK    5  A    between atoms: C_22  and  C_23
REMARK                            x       y       z     vdW  Elec       q    Type
REMARK                         _______ _______ _______ _____ _____    ______ ____
ROOT
ATOM      1  C   UNL     1       0.927   0.262   5.946  0.00  0.00    +0.266 C 
ATOM      2  O   UNL     1       0.931   1.113   6.815  0.00  0.00    -0.268 OA
ATOM      3  N   UNL     1       1.071  -1.037   6.275  0.00  0.00    -0.293 N 
ATOM      4  C   UNL     1       1.082  -2.076   5.236  0.00  0.00    +0.108 C 
ATOM      5  C   UNL     1       2.348  -2.923   5.399  0.00  0.00    +0.019 C 
ATOM      6  C   UNL     1       2.415  -3.464   6.829  0.00  0.00    +0.003 C 
ATOM      7  C   UNL     1       2.485  -2.296   7.815  0.00  0.00    +0.023 C 
ATOM      8  C   UNL     1       1.227  -1.441   7.679  0.00  0.00    +0.085 C 
ENDROOT
BRANCH   1  11
ATOM      9  C   UNL     1       0.281   0.141   2.372  0.00  0.00    +0.109 A 
ATOM     10  N   UNL     1       0.417  -0.250   3.626  0.00  0.00    -0.234 NA
ATOM     11  C   UNL     1       0.763   0.650   4.535  0.00  0.00    +0.133 A 
ATOM     12  C   UNL     1       0.967   1.947   4.144  0.00  0.00    +0.080 A 
ATOM     13  S   UNL     1       0.672   1.878   2.488  0.00  0.00    -0.075 S 
BRANCH   9  20
ATOM     14  C   UNL     1      -1.655   1.194   0.497  0.00  0.00    +0.044 C 
ATOM     15  C   UNL     1      -1.024  -0.155   0.271  0.00  0.00    -0.041 A 
ATOM     16  C   UNL     1      -1.364  -0.899  -0.841  0.00  0.00    +0.004 A 
ATOM     17  C   UNL     1      -0.786  -2.139  -1.050  0.00  0.00    +0.000 A 
ATOM     18  C   UNL     1       0.135  -2.641  -0.147  0.00  0.00    +0.001 A 
ATOM     19  C   UNL     1       0.483  -1.907   0.967  0.00  0.00    +0.011 A 
ATOM     20  C   UNL     1      -0.092  -0.653   1.181  0.00  0.00    +0.010 A 
ENDBRANCH   9  20
ENDBRANCH   1  11
BRANCH   8  21
ATOM     21  C   UNL     1       1.357  -0.196   8.560  0.00  0.00    +0.118 C 
BRANCH  21  22
ATOM     22  C   UNL     1      -0.002   0.424   8.757  0.00  0.00    +0.212 C 
ATOM     23  O   UNL     1      -0.979  -0.080   8.245  0.00  0.00    -0.276 OA
ATOM     24  N   UNL     1      -0.133   1.538   9.504  0.00  0.00    -0.329 N 
ATOM     25  H   UNL     1       0.649   1.941   9.914  0.00  0.00    +0.145 HD
ATOM     26  H   UNL     1      -1.007   1.937   9.631  0.00  0.00    +0.145 HD
ENDBRANCH  21  22
ENDBRANCH   8  21
TORSDOF 4
