REMARK  Name = ZINC59516370
REMARK  14 active torsions:
REMARK  status: ('A' for Active; 'I' for Inactive)
REMARK    1  A    between atoms: C_1  and  C_2
REMARK    2  A    between atoms: C_2  and  C_3
REMARK    3  A    between atoms: C_3  and  O_4
REMARK    4  A    between atoms: O_4  and  C_5
REMARK    5  A    between atoms: C_8  and  N_11
REMARK    6  A    between atoms: C_15  and  S_19
REMARK    7  A    between atoms: S_19  and  C_20
REMARK    8  A    between atoms: N_22  and  N_23
REMARK    9  A    between atoms: C_24  and  C_25
REMARK   10  A    between atoms: C_24  and  C_26
REMARK   11  A    between atoms: C_27  and  C_28
REMARK   12  A    between atoms: C_31  and  N_34
REMARK   13  A    between atoms: N_34  and  C_35
REMARK   14  A    between atoms: N_34  and  C_36
REMARK                            x       y       z     vdW  Elec       q    Type
REMARK                         _______ _______ _______ _____ _____    ______ ____
ROOT
ATOM      1  C   UNL     1       5.200  -8.458  -6.037  0.00  0.00    +0.146 C 
ATOM      2  N   UNL     1       3.939  -8.762  -5.900  0.00  0.00    -0.380 N 
ATOM      3  N   UNL     1       6.170  -9.362  -5.667  0.00  0.00    -0.217 N 
ATOM      4  H   UNL     1       3.684  -9.625  -5.537  0.00  0.00    +0.158 HD
ATOM      5  H   UNL     1       7.108  -9.136  -5.769  0.00  0.00    +0.176 HD
ATOM      6  H   UNL     1       3.255  -8.125  -6.161  0.00  0.00    +0.158 HD
ENDROOT
BRANCH   3   7
ATOM      7  N   UNL     1       5.803 -10.608  -5.143  0.00  0.00    -0.186 NA
ATOM      8  C   UNL     1       6.717 -11.423  -4.698  0.00  0.00    +0.056 C 
ATOM      9  C   UNL     1       6.335 -12.809  -4.246  0.00  0.00    +0.067 C 
BRANCH   8  10
ATOM     10  C   UNL     1       8.071 -11.006  -4.640  0.00  0.00    +0.025 C 
ATOM     11  C   UNL     1       9.002 -11.813  -4.093  0.00  0.00    +0.010 C 
BRANCH  11  12
ATOM     12  C   UNL     1      10.384 -11.335  -3.926  0.00  0.00    -0.025 A 
ATOM     13  C   UNL     1      10.732 -10.042  -4.330  0.00  0.00    +0.010 A 
ATOM     14  C   UNL     1      12.026  -9.598  -4.172  0.00  0.00    +0.023 A 
ATOM     15  C   UNL     1      12.987 -10.435  -3.613  0.00  0.00    +0.029 A 
ATOM     16  C   UNL     1      12.645 -11.722  -3.211  0.00  0.00    +0.023 A 
ATOM     17  C   UNL     1      11.352 -12.171  -3.358  0.00  0.00    +0.010 A 
BRANCH  15  18
ATOM     18  N   UNL     1      14.297  -9.982  -3.456  0.00  0.00    -0.336 N 
ATOM     19  C   UNL     1      14.632  -8.589  -3.763  0.00  0.00    +0.129 C 
ATOM     20  C   UNL     1      15.337 -10.899  -2.984  0.00  0.00    +0.129 C 
ENDBRANCH  15  18
ENDBRANCH  11  12
ENDBRANCH   8  10
ENDBRANCH   3   7
BRANCH   1  21
ATOM     21  S   UNL     1       5.662  -6.891  -6.696  0.00  0.00    -0.078 S 
BRANCH  21  26
ATOM     22  N   UNL     1       3.247  -4.356  -5.690  0.00  0.00    -0.209 N 
ATOM     23  C   UNL     1       3.725  -3.710  -6.762  0.00  0.00    +0.228 C 
ATOM     24  O   UNL     1       3.696  -2.510  -6.928  0.00  0.00    -0.275 OA
ATOM     25  C   UNL     1       4.305  -4.717  -7.731  0.00  0.00    +0.120 C 
ATOM     26  C   UNL     1       4.079  -6.070  -7.027  0.00  0.00    +0.149 C 
ATOM     27  C   UNL     1       3.399  -5.686  -5.731  0.00  0.00    +0.240 C 
ATOM     28  O   UNL     1       3.045  -6.459  -4.868  0.00  0.00    -0.274 OA
BRANCH  22  32
ATOM     29  C   UNL     1       1.453  -2.384  -2.481  0.00  0.00    +0.121 A 
ATOM     30  C   UNL     1       2.545  -3.212  -2.264  0.00  0.00    +0.047 A 
ATOM     31  C   UNL     1       3.139  -3.865  -3.326  0.00  0.00    +0.027 A 
ATOM     32  C   UNL     1       2.644  -3.693  -4.611  0.00  0.00    +0.044 A 
ATOM     33  C   UNL     1       1.551  -2.865  -4.828  0.00  0.00    +0.027 A 
ATOM     34  C   UNL     1       0.954  -2.216  -3.765  0.00  0.00    +0.047 A 
BRANCH  29  35
ATOM     35  O   UNL     1       0.868  -1.742  -1.436  0.00  0.00    -0.492 OA
BRANCH  35  36
ATOM     36  C   UNL     1       1.434  -1.961  -0.142  0.00  0.00    +0.229 C 
BRANCH  36  38
ATOM     37  C   UNL     1       1.254  -1.395   2.285  0.00  0.00    +0.007 C 
ATOM     38  C   UNL     1       0.648  -1.161   0.900  0.00  0.00    +0.038 C 
ENDBRANCH  36  38
ENDBRANCH  35  36
ENDBRANCH  29  35
ENDBRANCH  22  32
ENDBRANCH  21  26
ENDBRANCH   1  21
TORSDOF 10
