REMARK  Name = ZINC38999887
REMARK  10 active torsions:
REMARK  status: ('A' for Active; 'I' for Inactive)
REMARK    1  A    between atoms: C_1  and  C_2
REMARK    2  A    between atoms: C_2  and  C_3
REMARK    3  A    between atoms: C_3  and  C_5
REMARK    4  A    between atoms: C_3  and  C_6
REMARK    5  A    between atoms: C_9  and  N_12
REMARK    6  A    between atoms: C_13  and  C_15
REMARK    7  A    between atoms: C_15  and  S_16
REMARK    8  A    between atoms: S_16  and  C_17
REMARK    9  A    between atoms: C_20  and  C_24
REMARK   10  A    between atoms: N_22  and  N_23
REMARK                            x       y       z     vdW  Elec       q    Type
REMARK                         _______ _______ _______ _____ _____    ______ ____
ROOT
ATOM      1  C   UNL     1      -2.308 -10.526   3.319  0.00  0.00    +0.189 C 
ATOM      2  N   UNL     1      -1.706 -11.204   2.401  0.00  0.00    -0.161 NA
ATOM      3  N   UNL     1      -1.680 -12.570   2.706  0.00  0.00    -0.243 N 
ATOM      4  C   UNL     1      -2.371 -12.715   3.999  0.00  0.00    +0.222 C 
ATOM      5  N   UNL     1      -2.755 -11.338   4.351  0.00  0.00    -0.223 N 
ATOM      6  H   UNL     1      -1.286 -13.279   2.173  0.00  0.00    +0.170 HD
ENDROOT
BRANCH   4   7
ATOM      7  C   UNL     1      -1.424 -13.293   5.053  0.00  0.00    +0.197 C 
ATOM      8  C   UNL     1      -0.899 -14.646   4.617  0.00  0.00    -0.017 C 
ATOM      9  C   UNL     1      -1.333 -15.494   5.548  0.00  0.00    +0.065 C 
ATOM     10  C   UNL     1      -0.865 -16.901   5.221  0.00  0.00    +0.057 C 
ATOM     11  C   UNL     1      -0.449 -16.851   3.735  0.00  0.00    +0.011 C 
ATOM     12  C   UNL     1      -0.097 -15.356   3.558  0.00  0.00    +0.035 C 
ATOM     13  N   UNL     1      -2.054 -14.822   6.487  0.00  0.00    -0.158 NA
ATOM     14  N   UNL     1      -2.153 -13.606   6.294  0.00  0.00    -0.176 NA
ENDBRANCH   4   7
BRANCH   5  15
ATOM     15  N   UNL     1      -3.422 -10.937   5.474  0.00  0.00    -0.250 NA
ATOM     16  H   UNL     1      -3.564  -9.938   5.474  0.00  0.00    +0.141 HD
ATOM     17  H   UNL     1      -4.300 -11.427   5.567  0.00  0.00    +0.141 HD
ENDBRANCH   5  15
BRANCH   1  18
ATOM     18  S   UNL     1      -2.529  -8.779   3.271  0.00  0.00    -0.078 S 
BRANCH  18  19
ATOM     19  C   UNL     1      -1.750  -8.281   1.710  0.00  0.00    +0.173 C 
BRANCH  19  21
ATOM     20  N   UNL     1      -1.359  -6.190   0.448  0.00  0.00    -0.285 N 
ATOM     21  C   UNL     1      -1.870  -6.788   1.542  0.00  0.00    +0.227 C 
ATOM     22  O   UNL     1      -2.426  -6.125   2.392  0.00  0.00    -0.275 OA
ATOM     23  H   UNL     1      -0.983  -6.726  -0.267  0.00  0.00    +0.155 HD
BRANCH  20  27
ATOM     24  C   UNL     1      -1.395  -2.035   0.137  0.00  0.00    -0.044 A 
ATOM     25  C   UNL     1      -1.244  -2.633   1.374  0.00  0.00    +0.006 A 
ATOM     26  C   UNL     1      -1.232  -4.010   1.481  0.00  0.00    +0.023 A 
ATOM     27  C   UNL     1      -1.372  -4.794   0.344  0.00  0.00    +0.033 A 
ATOM     28  C   UNL     1      -1.524  -4.191  -0.898  0.00  0.00    +0.023 A 
ATOM     29  C   UNL     1      -1.541  -2.813  -0.997  0.00  0.00    +0.006 A 
BRANCH  24  30
ATOM     30  C   UNL     1      -1.409  -0.532   0.024  0.00  0.00    +0.016 C 
ATOM     31  C   UNL     1      -0.083   0.029   0.541  0.00  0.00    +0.012 C 
BRANCH  30  33
ATOM     32  C   UNL     1      -2.652   1.544   0.645  0.00  0.00    +0.004 C 
ATOM     33  C   UNL     1      -2.562   0.031   0.857  0.00  0.00    +0.004 C 
ENDBRANCH  30  33
ENDBRANCH  24  30
ENDBRANCH  20  27
ENDBRANCH  19  21
ENDBRANCH  18  19
ENDBRANCH   1  18
TORSDOF 8
