REMARK  Name = ZINC06919625
REMARK  9 active torsions:
REMARK  status: ('A' for Active; 'I' for Inactive)
REMARK    1  A    between atoms: C_1  and  O_2
REMARK    2  A    between atoms: O_2  and  C_3
REMARK    3  A    between atoms: C_8  and  N_9
REMARK    4  A    between atoms: N_9  and  S_10
REMARK    5  A    between atoms: S_10  and  C_13
REMARK    6  A    between atoms: C_17  and  C_19
REMARK    7  A    between atoms: N_21  and  N_22
REMARK    8  A    between atoms: N_22  and  C_23
REMARK    9  A    between atoms: C_27  and  O_28
REMARK                            x       y       z     vdW  Elec       q    Type
REMARK                         _______ _______ _______ _____ _____    ______ ____
ROOT
ATOM      1  C   UNL     1      -1.948  -4.049   1.417  0.00  0.00    +0.109 A 
ATOM      2  C   UNL     1      -1.840  -3.995   2.796  0.00  0.00    +0.029 A 
ATOM      3  C   UNL     1      -2.966  -3.814   3.578  0.00  0.00    +0.003 A 
ATOM      4  C   UNL     1      -4.207  -3.685   2.987  0.00  0.00    +0.013 A 
ATOM      5  C   UNL     1      -4.322  -3.739   1.597  0.00  0.00    +0.040 A 
ATOM      6  C   UNL     1      -3.181  -3.916   0.814  0.00  0.00    +0.042 A 
ENDROOT
BRANCH   5   7
ATOM      7  C   UNL     1      -5.648  -3.602   0.957  0.00  0.00    +0.260 C 
ATOM      8  O   UNL     1      -5.746  -3.649  -0.254  0.00  0.00    -0.269 OA
ATOM      9  N   UNL     1      -6.748  -3.425   1.716  0.00  0.00    -0.232 N 
ATOM     10  H   UNL     1      -6.670  -3.388   2.682  0.00  0.00    +0.173 HD
BRANCH   9  11
ATOM     11  N   UNL     1      -8.004  -3.296   1.109  0.00  0.00    -0.264 N 
ATOM     12  H   UNL     1      -8.082  -3.333   0.143  0.00  0.00    +0.170 HD
BRANCH  11  13
ATOM     13  C   UNL     1      -9.143  -3.113   1.895  0.00  0.00    +0.044 C 
ATOM     14  C   UNL     1      -9.039  -3.055   3.228  0.00  0.00    -0.002 C 
ATOM     15  C   UNL     1     -10.269  -2.861   4.075  0.00  0.00    +0.037 C 
ATOM     16  C   UNL     1     -11.259  -1.948   3.353  0.00  0.00    +0.077 C 
ATOM     17  C   UNL     1     -11.475  -2.433   1.945  0.00  0.00    +0.096 C 
ATOM     18  C   UNL     1     -10.466  -2.977   1.262  0.00  0.00    +0.065 C 
BRANCH  17  19
ATOM     19  O   UNL     1     -12.694  -2.312   1.368  0.00  0.00    -0.511 OA
ATOM     20  H   UNL     1     -12.737  -2.651   0.464  0.00  0.00    +0.292 HD
ENDBRANCH  17  19
ENDBRANCH  11  13
ENDBRANCH   9  11
ENDBRANCH   5   7
BRANCH   1  21
ATOM     21  S   UNL     1      -0.506  -4.281   0.431  0.00  0.00    +0.072 S 
ATOM     22  O   UNL     1      -0.943  -4.836  -0.802  0.00  0.00    -0.150 OA
ATOM     23  O   UNL     1       0.453  -4.924   1.259  0.00  0.00    -0.150 OA
BRANCH  21  24
ATOM     24  N   UNL     1       0.098  -2.778   0.086  0.00  0.00    -0.213 N 
ATOM     25  H   UNL     1       0.172  -2.485  -0.836  0.00  0.00    +0.174 HD
BRANCH  24  31
ATOM     26  C   UNL     1       0.310  -0.555   1.017  0.00  0.00    +0.142 A 
ATOM     27  C   UNL     1       0.705   0.279   2.050  0.00  0.00    +0.047 A 
ATOM     28  C   UNL     1       1.292  -0.255   3.183  0.00  0.00    +0.004 A 
ATOM     29  C   UNL     1       1.487  -1.619   3.288  0.00  0.00    +0.002 A 
ATOM     30  C   UNL     1       1.095  -2.458   2.262  0.00  0.00    +0.028 A 
ATOM     31  C   UNL     1       0.501  -1.930   1.125  0.00  0.00    +0.090 A 
BRANCH  26  33
ATOM     32  C   UNL     1      -0.430   1.388  -0.139  0.00  0.00    +0.277 C 
ATOM     33  O   UNL     1      -0.267  -0.031  -0.098  0.00  0.00    -0.493 OA
ENDBRANCH  26  33
ENDBRANCH  24  31
ENDBRANCH  21  24
ENDBRANCH   1  21
TORSDOF 8
