REMARK  Name = ZINC16062967
REMARK  10 active torsions:
REMARK  status: ('A' for Active; 'I' for Inactive)
REMARK    1  A    between atoms: C_1  and  C_2
REMARK    2  A    between atoms: C_2  and  C_3
REMARK    3  A    between atoms: C_3  and  N_4
REMARK    4  A    between atoms: N_4  and  C_5
REMARK    5  A    between atoms: C_5  and  N_7
REMARK    6  A    between atoms: N_7  and  N_8
REMARK    7  A    between atoms: C_9  and  C_11
REMARK    8  A    between atoms: C_11  and  C_12
REMARK    9  A    between atoms: C_12  and  C_13
REMARK   10  A    between atoms: C_22  and  C_23
REMARK                            x       y       z     vdW  Elec       q    Type
REMARK                         _______ _______ _______ _____ _____    ______ ____
ROOT
ATOM      1  C   UNL     1      -0.497  -8.931  -0.863  0.00  0.00    -0.014 A 
ATOM      2  C   UNL     1       0.069  -9.518  -2.077  0.00  0.00    +0.003 A 
ATOM      3  C   UNL     1       1.317  -9.434  -2.702  0.00  0.00    +0.010 A 
ATOM      4  C   UNL     1       1.542 -10.121  -3.861  0.00  0.00    +0.001 A 
ATOM      5  C   UNL     1       0.541 -10.902  -4.424  0.00  0.00    +0.002 A 
ATOM      6  C   UNL     1      -0.696 -10.999  -3.825  0.00  0.00    +0.026 A 
ATOM      7  C   UNL     1      -0.948 -10.309  -2.644  0.00  0.00    +0.047 A 
ATOM      8  N   UNL     1      -2.053 -10.207  -1.828  0.00  0.00    -0.354 N 
ATOM      9  H   UNL     1      -2.902 -10.651  -1.980  0.00  0.00    +0.166 HD
ATOM     10  C   UNL     1      -1.771  -9.384  -0.762  0.00  0.00    +0.051 A 
ENDROOT
BRANCH  10  11
ATOM     11  C   UNL     1      -2.714  -9.043   0.325  0.00  0.00    -0.001 A 
ATOM     12  C   UNL     1      -2.305  -9.125   1.657  0.00  0.00    +0.013 A 
ATOM     13  C   UNL     1      -3.188  -8.806   2.668  0.00  0.00    +0.039 A 
ATOM     14  C   UNL     1      -4.479  -8.404   2.362  0.00  0.00    +0.123 A 
ATOM     15  C   UNL     1      -4.889  -8.321   1.041  0.00  0.00    +0.039 A 
ATOM     16  C   UNL     1      -4.013  -8.632   0.023  0.00  0.00    +0.013 A 
ATOM     17  F   UNL     1      -5.340  -8.093   3.356  0.00  0.00    -0.205 F 
ENDBRANCH  10  11
BRANCH   1  18
ATOM     18  C   UNL     1       0.205  -8.004   0.096  0.00  0.00    +0.047 C 
BRANCH  18  19
ATOM     19  C   UNL     1      -0.084  -6.553  -0.293  0.00  0.00    +0.102 C 
BRANCH  19  21
ATOM     20  N   UNL     1       0.464  -4.292   0.547  0.00  0.00    -0.235 N 
ATOM     21  C   UNL     1       0.583  -5.627   0.691  0.00  0.00    +0.229 C 
ATOM     22  O   UNL     1       1.226  -6.082   1.613  0.00  0.00    -0.274 OA
ATOM     23  H   UNL     1      -0.050  -3.928  -0.190  0.00  0.00    +0.173 HD
BRANCH  20  24
ATOM     24  N   UNL     1       1.084  -3.431   1.462  0.00  0.00    -0.246 N 
ATOM     25  H   UNL     1       1.599  -3.795   2.199  0.00  0.00    +0.172 HD
BRANCH  24  26
ATOM     26  C   UNL     1       0.966  -2.096   1.317  0.00  0.00    +0.147 C 
ATOM     27  S   UNL     1       1.724  -1.044   2.435  0.00  0.00    -0.017 S 
BRANCH  26  28
ATOM     28  N   UNL     1       0.251  -1.590   0.293  0.00  0.00    -0.325 N 
ATOM     29  H   UNL     1      -0.178  -2.186  -0.340  0.00  0.00    +0.148 HD
BRANCH  28  30
ATOM     30  C   UNL     1       0.123  -0.139   0.136  0.00  0.00    +0.103 C 
BRANCH  30  32
ATOM     31  C   UNL     1      -0.867   1.683  -1.259  0.00  0.00    +0.005 C 
ATOM     32  C   UNL     1      -0.732   0.167  -1.095  0.00  0.00    +0.015 C 
ENDBRANCH  30  32
ENDBRANCH  28  30
ENDBRANCH  26  28
ENDBRANCH  24  26
ENDBRANCH  20  24
ENDBRANCH  19  21
ENDBRANCH  18  19
ENDBRANCH   1  18
TORSDOF 9
