REMARK  Name = ZINC32038847
REMARK  7 active torsions:
REMARK  status: ('A' for Active; 'I' for Inactive)
REMARK    1  A    between atoms: C_1  and  C_2
REMARK    2  A    between atoms: C_2  and  C_4
REMARK    3  A    between atoms: C_2  and  O_25
REMARK    4  A    between atoms: N_6  and  N_7
REMARK    5  A    between atoms: C_8  and  C_10
REMARK    6  A    between atoms: N_13  and  C_15
REMARK    7  A    between atoms: O_25  and  C_26
REMARK                            x       y       z     vdW  Elec       q    Type
REMARK                         _______ _______ _______ _____ _____    ______ ____
ROOT
ATOM      1  N   UNL     1      -3.434  -2.783  -0.510  0.00  0.00    -0.229 N 
ATOM      2  C   UNL     1      -4.271  -1.727  -0.539  0.00  0.00    +0.281 C 
ATOM      3  O   UNL     1      -5.463  -1.892  -0.365  0.00  0.00    -0.267 OA
ATOM      4  H   UNL     1      -2.356  -2.634  -0.668  0.00  0.00    +0.173 HD
ENDROOT
BRANCH   2   5
ATOM      5  C   UNL     1      -3.740  -0.371  -0.781  0.00  0.00    +0.152 A 
ATOM      6  C   UNL     1      -4.489   0.827  -0.839  0.00  0.00    +0.006 A 
ATOM      7  C   UNL     1      -3.594   1.810  -1.080  0.00  0.00    +0.049 A 
ATOM      8  N   UNL     1      -2.370   1.221  -1.161  0.00  0.00    -0.233 N 
ATOM      9  N   UNL     1      -2.479  -0.048  -0.990  0.00  0.00    -0.161 NA
ATOM     10  C   UNL     1      -4.296   3.146  -1.163  0.00  0.00    +0.056 C 
ATOM     11  C   UNL     1      -5.680   2.913  -0.517  0.00  0.00    +0.011 C 
ATOM     12  C   UNL     1      -5.883   1.397  -0.734  0.00  0.00    +0.040 C 
BRANCH   8  13
ATOM     13  C   UNL     1      -1.167   1.899  -1.402  0.00  0.00    +0.101 A 
ATOM     14  C   UNL     1      -1.168   3.277  -1.574  0.00  0.00    +0.031 A 
ATOM     15  C   UNL     1       0.018   3.942  -1.816  0.00  0.00    +0.002 A 
ATOM     16  C   UNL     1       1.207   3.238  -1.883  0.00  0.00    +0.003 A 
ATOM     17  C   UNL     1       1.214   1.867  -1.707  0.00  0.00    +0.040 A 
ATOM     18  C   UNL     1       0.029   1.194  -1.464  0.00  0.00    +0.149 A 
ATOM     19  F   UNL     1       0.035  -0.146  -1.293  0.00  0.00    -0.203 F 
ENDBRANCH   8  13
ENDBRANCH   2   5
BRANCH   1  22
ATOM     20  C   UNL     1      -3.100  -5.126  -0.252  0.00  0.00    +0.270 C 
ATOM     21  O   UNL     1      -1.911  -4.962  -0.425  0.00  0.00    -0.270 OA
ATOM     22  N   UNL     1      -3.938  -4.070  -0.281  0.00  0.00    -0.231 N 
ATOM     23  H   UNL     1      -5.016  -4.219  -0.123  0.00  0.00    +0.173 HD
BRANCH  20  25
ATOM     24  C   UNL     1      -4.554  -6.916  -1.165  0.00  0.00    +0.062 C 
ATOM     25  C   UNL     1      -3.642  -6.511  -0.005  0.00  0.00    +0.257 C 
BRANCH  25  26
ATOM     26  O   UNL     1      -2.558  -7.436   0.094  0.00  0.00    -0.477 OA
BRANCH  26  27
ATOM     27  C   UNL     1      -2.780  -8.574   0.804  0.00  0.00    +0.157 A 
ATOM     28  C   UNL     1      -4.047  -8.849   1.296  0.00  0.00    +0.048 A 
ATOM     29  C   UNL     1      -4.271 -10.007   2.017  0.00  0.00    +0.004 A 
ATOM     30  C   UNL     1      -3.234 -10.892   2.247  0.00  0.00    +0.003 A 
ATOM     31  C   UNL     1      -1.970 -10.622   1.757  0.00  0.00    +0.042 A 
ATOM     32  C   UNL     1      -1.740  -9.466   1.032  0.00  0.00    +0.165 A 
ATOM     33  F   UNL     1      -0.506  -9.204   0.549  0.00  0.00    -0.202 F 
ENDBRANCH  26  27
ENDBRANCH  25  26
ENDBRANCH  20  25
ENDBRANCH   1  22
TORSDOF 6
