REMARK  Name = ZINC36599966
REMARK  18 active torsions:
REMARK  status: ('A' for Active; 'I' for Inactive)
REMARK    1  A    between atoms: C_1  and  C_2
REMARK    2  A    between atoms: C_5  and  C_7
REMARK    3  A    between atoms: C_7  and  N_8
REMARK    4  A    between atoms: N_8  and  C_9
REMARK    5  A    between atoms: C_9  and  C_11
REMARK    6  A    between atoms: C_9  and  C_20
REMARK    7  A    between atoms: C_12  and  O_19
REMARK    8  A    between atoms: C_14  and  O_18
REMARK    9  A    between atoms: C_16  and  O_17
REMARK   10  A    between atoms: N_22  and  C_23
REMARK   11  A    between atoms: C_23  and  C_24
REMARK   12  A    between atoms: C_23  and  C_25
REMARK   13  A    between atoms: C_23  and  C_26
REMARK   14  A    between atoms: C_26  and  C_27
REMARK   15  A    between atoms: C_27  and  C_28
REMARK   16  A    between atoms: C_27  and  C_29
REMARK   17  A    between atoms: C_27  and  C_30
REMARK   18  A    between atoms: C_31  and  C_33
REMARK                            x       y       z     vdW  Elec       q    Type
REMARK                         _______ _______ _______ _____ _____    ______ ____
ROOT
ATOM      1  C   UNL     1       4.976  -4.710  -3.201  0.00  0.00    +0.200 C 
ENDROOT
BRANCH   1   2
ATOM      2  C   UNL     1       5.569  -5.618  -4.247  0.00  0.00    +0.065 A 
ATOM      3  C   UNL     1       6.426  -5.103  -5.208  0.00  0.00    +0.129 A 
ATOM      4  C   UNL     1       6.971  -5.939  -6.170  0.00  0.00    +0.091 A 
ATOM      5  C   UNL     1       6.661  -7.291  -6.171  0.00  0.00    +0.124 A 
ATOM      6  C   UNL     1       5.805  -7.806  -5.209  0.00  0.00    +0.091 A 
ATOM      7  C   UNL     1       5.263  -6.971  -4.244  0.00  0.00    +0.129 A 
BRANCH   7   8
ATOM      8  O   UNL     1       4.428  -7.477  -3.299  0.00  0.00    -0.506 OA
ATOM      9  H   UNL     1       3.519  -7.601  -3.603  0.00  0.00    +0.292 HD
ENDBRANCH   7   8
BRANCH   5  10
ATOM     10  O   UNL     1       7.195  -8.110  -7.114  0.00  0.00    -0.507 OA
ATOM     11  H   UNL     1       8.040  -8.506  -6.859  0.00  0.00    +0.292 HD
ENDBRANCH   5  10
BRANCH   3  12
ATOM     12  O   UNL     1       6.730  -3.779  -5.207  0.00  0.00    -0.506 OA
ATOM     13  H   UNL     1       7.550  -3.564  -4.742  0.00  0.00    +0.292 HD
ENDBRANCH   3  12
ENDBRANCH   1   2
BRANCH   1  14
ATOM     14  C   UNL     1       4.104  -3.677  -3.869  0.00  0.00    +0.239 C 
ATOM     15  O   UNL     1       2.897  -3.797  -3.846  0.00  0.00    -0.273 OA
ATOM     16  N   UNL     1       4.665  -2.622  -4.490  0.00  0.00    -0.308 N 
ATOM     17  H   UNL     1       5.631  -2.557  -4.560  0.00  0.00    +0.149 HD
BRANCH  16  18
ATOM     18  C   UNL     1       3.818  -1.572  -5.062  0.00  0.00    +0.030 C 
ATOM     19  C   UNL     1       3.044  -2.135  -6.256  0.00  0.00    +0.031 C 
ATOM     20  C   UNL     1       2.831  -1.080  -4.001  0.00  0.00    +0.031 C 
BRANCH  18  21
ATOM     21  C   UNL     1       4.692  -0.406  -5.525  0.00  0.00    +0.031 C 
BRANCH  21  22
ATOM     22  C   UNL     1       5.295   0.296  -4.306  0.00  0.00    -0.036 C 
ATOM     23  C   UNL     1       5.651  -0.746  -3.243  0.00  0.00    +0.010 C 
ATOM     24  C   UNL     1       6.558   1.051  -4.724  0.00  0.00    +0.010 C 
ATOM     25  C   UNL     1       4.277   1.283  -3.731  0.00  0.00    +0.010 C 
ENDBRANCH  21  22
ENDBRANCH  18  21
ENDBRANCH  16  18
ENDBRANCH   1  14
BRANCH   1  26
ATOM     26  N   UNL     1       4.170  -5.500  -2.268  0.00  0.00    -0.277 N 
ATOM     27  C   UNL     1       2.962  -5.963  -2.646  0.00  0.00    +0.231 C 
ATOM     28  O   UNL     1       2.613  -5.873  -3.804  0.00  0.00    -0.274 OA
BRANCH  27  29
ATOM     29  C   UNL     1       2.044  -6.592  -1.629  0.00  0.00    +0.204 C 
ATOM     30 CL   UNL     1       0.516  -7.108  -2.436  0.00  0.00    -0.116 Cl
ENDBRANCH  27  29
BRANCH  26  31
ATOM     31  C   UNL     1       4.676  -5.787  -0.923  0.00  0.00    +0.183 C 
BRANCH  31  36
ATOM     32  C   UNL     1       4.673  -1.497   1.730  0.00  0.00    +0.086 C 
ATOM     33  C   UNL     1       4.241  -2.830   1.175  0.00  0.00    +0.102 A 
ATOM     34  C   UNL     1       3.104  -3.479   1.482  0.00  0.00    +0.045 A 
ATOM     35  C   UNL     1       3.105  -4.682   0.738  0.00  0.00    +0.046 A 
ATOM     36  C   UNL     1       4.243  -4.695   0.021  0.00  0.00    +0.122 A 
ATOM     37  O   UNL     1       4.924  -3.569   0.285  0.00  0.00    -0.463 OA
ENDBRANCH  31  36
ENDBRANCH  26  31
ENDBRANCH   1  26
TORSDOF 12
