REMARK  Name = ZINC34677831
REMARK  13 active torsions:
REMARK  status: ('A' for Active; 'I' for Inactive)
REMARK    1  A    between atoms: C_1  and  C_2
REMARK    2  A    between atoms: C_2  and  C_3
REMARK    3  A    between atoms: C_3  and  C_4
REMARK    4  A    between atoms: C_4  and  O_6
REMARK    5  A    between atoms: O_6  and  C_7
REMARK    6  A    between atoms: C_7  and  C_8
REMARK    7  A    between atoms: C_8  and  C_10
REMARK    8  A    between atoms: C_8  and  O_36
REMARK    9  A    between atoms: C_10  and  N_11
REMARK   10  A    between atoms: N_14  and  C_17
REMARK   11  A    between atoms: C_17  and  C_18
REMARK   12  A    between atoms: C_20  and  C_23
REMARK   13  A    between atoms: N_28  and  C_31
REMARK                            x       y       z     vdW  Elec       q    Type
REMARK                         _______ _______ _______ _____ _____    ______ ____
ROOT
ATOM      1  C   UNL     1      -8.128  -9.600  -0.702  0.00  0.00    +0.019 C 
ENDROOT
BRANCH   1   5
ATOM      2  N   UNL     1      -4.858  -7.067   0.081  0.00  0.00    -0.303 NA
ATOM      3  C   UNL     1      -5.516  -6.957  -1.229  0.00  0.00    +0.066 C 
ATOM      4  C   UNL     1      -6.910  -7.583  -1.150  0.00  0.00    -0.063 C 
ATOM      5  N   UNL     1      -6.791  -8.994  -0.760  0.00  0.00    +0.387 N 
ATOM      6  C   UNL     1      -6.155  -9.087   0.561  0.00  0.00    -0.063 C 
ATOM      7  C   UNL     1      -4.755  -8.473   0.497  0.00  0.00    +0.066 C 
ATOM      8  H   UNL     1      -6.229  -9.485  -1.439  0.00  0.00    -0.081 HD
BRANCH   2   9
ATOM      9  C   UNL     1      -3.537  -6.425   0.062  0.00  0.00    +0.119 C 
BRANCH   9  10
ATOM     10  C   UNL     1      -3.100  -6.115   1.495  0.00  0.00    +0.166 C 
BRANCH  10  11
ATOM     11  O   UNL     1      -4.015  -5.187   2.082  0.00  0.00    -0.387 OA
ATOM     12  H   UNL     1      -4.075  -4.343   1.613  0.00  0.00    +0.210 HD
ENDBRANCH  10  11
BRANCH  10  13
ATOM     13  C   UNL     1      -1.696  -5.506   1.480  0.00  0.00    +0.264 C 
BRANCH  13  14
ATOM     14  O   UNL     1      -1.242  -5.324   2.822  0.00  0.00    -0.462 OA
BRANCH  14  15
ATOM     15  C   UNL     1      -0.018  -4.795   2.985  0.00  0.00    +0.307 C 
ATOM     16  O   UNL     1       0.644  -4.497   2.019  0.00  0.00    -0.251 OA
BRANCH  15  17
ATOM     17  C   UNL     1       0.528  -4.574   4.371  0.00  0.00    +0.120 C 
BRANCH  17  19
ATOM     18  C   UNL     1       2.484  -3.741   5.684  0.00  0.00    +0.004 C 
ATOM     19  C   UNL     1       1.929  -3.966   4.276  0.00  0.00    +0.008 C 
ENDBRANCH  17  19
ENDBRANCH  15  17
ENDBRANCH  14  15
ENDBRANCH  13  14
ENDBRANCH  10  13
ENDBRANCH   9  10
ENDBRANCH   2   9
ENDBRANCH   1   5
BRANCH   1  20
ATOM     20  C   UNL     1      -8.000 -11.075  -0.422  0.00  0.00    +0.179 A 
ATOM     21  N   UNL     1      -7.984 -11.618   0.758  0.00  0.00    -0.210 NA
ATOM     22  C   UNL     1      -7.855 -12.965   0.612  0.00  0.00    +0.164 A 
ATOM     23  C   UNL     1      -7.793 -13.218  -0.724  0.00  0.00    +0.230 A 
ATOM     24  O   UNL     1      -7.890 -12.035  -1.351  0.00  0.00    -0.449 OA
BRANCH  22  25
ATOM     25  C   UNL     1      -7.794 -13.962   1.696  0.00  0.00    +0.268 C 
ATOM     26  O   UNL     1      -7.554 -15.126   1.439  0.00  0.00    -0.268 OA
ATOM     27  N   UNL     1      -8.004 -13.584   2.972  0.00  0.00    -0.300 N 
ATOM     28  C   UNL     1      -8.210 -12.168   3.317  0.00  0.00    +0.089 C 
ATOM     29  C   UNL     1      -9.472 -12.057   4.179  0.00  0.00    -0.059 C 
ATOM     30  N   UNL     1      -9.354 -12.952   5.337  0.00  0.00    +0.384 N 
ATOM     31  C   UNL     1      -9.305 -14.349   4.886  0.00  0.00    -0.059 C 
ATOM     32  C   UNL     1      -8.040 -14.575   4.059  0.00  0.00    +0.089 C 
ATOM     33  H   UNL     1      -8.509 -12.734   5.844  0.00  0.00    -0.081 HD
BRANCH  30  34
ATOM     34  C   UNL     1     -10.513 -12.764   6.219  0.00  0.00    -0.068 C 
ATOM     35  C   UNL     1     -10.533 -11.322   6.767  0.00  0.00    -0.015 C 
ATOM     36  C   UNL     1     -11.040 -11.476   8.222  0.00  0.00    -0.002 C 
ATOM     37  C   UNL     1     -10.361 -12.789   8.685  0.00  0.00    -0.002 C 
ATOM     38  C   UNL     1     -10.404 -13.697   7.438  0.00  0.00    -0.015 C 
ENDBRANCH  30  34
ENDBRANCH  22  25
ENDBRANCH   1  20
TORSDOF 12
