REMARK  Name = ZINC38805044
REMARK  6 active torsions:
REMARK  status: ('A' for Active; 'I' for Inactive)
REMARK    1  A    between atoms: C_1  and  C_2
REMARK    2  A    between atoms: C_2  and  O_3
REMARK    3  A    between atoms: O_3  and  C_4
REMARK    4  A    between atoms: C_12  and  N_17
REMARK    5  A    between atoms: C_13  and  C_14
REMARK    6  A    between atoms: C_18  and  C_20
REMARK                            x       y       z     vdW  Elec       q    Type
REMARK                         _______ _______ _______ _____ _____    ______ ____
ROOT
ATOM      1  C   UNL     1       0.776  -1.798  -1.335  0.00  0.00    +0.403 C 
ATOM      2  O   UNL     1       0.312  -2.549  -0.500  0.00  0.00    -0.226 OA
ATOM      3  N   UNL     1       1.395  -2.298  -2.422  0.00  0.00    -0.262 N 
ATOM      4  C   UNL     1       1.519  -3.749  -2.627  0.00  0.00    +0.116 C 
ATOM      5  C   UNL     1       0.736  -4.160  -3.877  0.00  0.00    +0.056 C 
ATOM      6  C   UNL     1       1.081  -3.211  -5.015  0.00  0.00    -0.020 A 
ATOM      7  C   UNL     1       1.626  -1.997  -4.785  0.00  0.00    +0.013 A 
ATOM      8  S   UNL     1       1.833  -1.282  -6.389  0.00  0.00    -0.076 S 
ATOM      9  C   UNL     1       1.230  -2.530  -7.337  0.00  0.00    +0.085 A 
ATOM     10  C   UNL     1       0.864  -3.504  -6.422  0.00  0.00    +0.068 A 
ATOM     11  C   UNL     1       1.968  -1.410  -3.453  0.00  0.00    +0.153 C 
ENDROOT
BRANCH  10  12
ATOM     12  C   UNL     1       0.283  -4.779  -6.854  0.00  0.00    +0.244 C 
ATOM     13  O   UNL     1      -0.924  -4.888  -6.973  0.00  0.00    -0.270 OA
ATOM     14  N   UNL     1       1.084  -5.829  -7.121  0.00  0.00    -0.325 N 
ATOM     15  H   UNL     1       2.046  -5.742  -7.026  0.00  0.00    +0.145 HD
ATOM     16  H   UNL     1       0.700  -6.672  -7.407  0.00  0.00    +0.145 HD
ENDBRANCH  10  12
BRANCH   9  17
ATOM     17  N   UNL     1       1.123  -2.575  -8.718  0.00  0.00    -0.275 N 
ATOM     18  C   UNL     1       1.534  -1.528  -9.460  0.00  0.00    +0.250 C 
ATOM     19  O   UNL     1       1.997  -0.543  -8.918  0.00  0.00    -0.270 OA
ATOM     20  H   UNL     1       0.754  -3.361  -9.150  0.00  0.00    +0.156 HD
BRANCH  18  21
ATOM     21  C   UNL     1       1.420  -1.577 -10.932  0.00  0.00    +0.056 A 
ATOM     22  C   UNL     1       0.883  -2.704 -11.557  0.00  0.00    +0.029 A 
ATOM     23  C   UNL     1       0.779  -2.742 -12.933  0.00  0.00    +0.019 A 
ATOM     24  C   UNL     1       1.207  -1.667 -13.694  0.00  0.00    +0.017 A 
ATOM     25  C   UNL     1       1.740  -0.547 -13.081  0.00  0.00    +0.022 A 
ATOM     26  C   UNL     1       1.844  -0.492 -11.705  0.00  0.00    +0.053 A 
ATOM     27 CL   UNL     1       2.507   0.917 -10.938  0.00  0.00    -0.083 Cl
ATOM     28 BR   UNL     1       0.052  -4.268 -13.782  0.00  0.00    -0.050 Br
ENDBRANCH  18  21
ENDBRANCH   9  17
BRANCH   1  29
ATOM     29  O   UNL     1       0.671  -0.465  -1.174  0.00  0.00    -0.451 OA
BRANCH  29  31
ATOM     30  C   UNL     1      -0.019   1.526   0.010  0.00  0.00    +0.048 C 
ATOM     31  C   UNL     1       0.002  -0.004   0.002  0.00  0.00    +0.230 C 
ENDBRANCH  29  31
ENDBRANCH   1  29
TORSDOF 5
