REMARK  Name = ZINC17195674
REMARK  6 active torsions:
REMARK  status: ('A' for Active; 'I' for Inactive)
REMARK    1  A    between atoms: C_1  and  C_2
REMARK    2  A    between atoms: C_8  and  C_31
REMARK    3  A    between atoms: C_12  and  C_13
REMARK    4  A    between atoms: N_15  and  N_16
REMARK    5  A    between atoms: C_17  and  C_19
REMARK    6  A    between atoms: C_31  and  C_32
REMARK                            x       y       z     vdW  Elec       q    Type
REMARK                         _______ _______ _______ _____ _____    ______ ____
ROOT
ATOM      1  C   UNL     1       0.002  -0.004   0.002  0.00  0.00    +0.267 C 
ATOM      2  O   UNL     1      -1.044  -0.627   0.009  0.00  0.00    -0.268 OA
ATOM      3  N   UNL     1      -0.016   1.344   0.009  0.00  0.00    -0.230 N 
ATOM      4  H   UNL     1       0.817   1.840   0.004  0.00  0.00    +0.173 HD
ENDROOT
BRANCH   1  16
ATOM      5  C   UNL     1       0.341  -3.024  -0.005  0.00  0.00    +0.046 C 
ATOM      6  C   UNL     1       1.504  -2.066  -0.018  0.00  0.00    -0.017 A 
ATOM      7  C   UNL     1       2.813  -2.554  -0.037  0.00  0.00    +0.076 A 
ATOM      8  C   UNL     1       3.289  -3.956  -0.049  0.00  0.00    +0.260 A 
ATOM      9  O   UNL     1       2.499  -4.884  -0.047  0.00  0.00    -0.267 OA
ATOM     10  N   UNL     1       4.617  -4.179  -0.062  0.00  0.00    -0.310 N 
ATOM     11  H   UNL     1       4.946  -5.092  -0.070  0.00  0.00    +0.170 HD
ATOM     12  C   UNL     1       5.505  -3.154  -0.065  0.00  0.00    +0.115 A 
ATOM     13  N   UNL     1       5.119  -1.907  -0.055  0.00  0.00    -0.226 NA
ATOM     14  C   UNL     1       3.834  -1.577  -0.042  0.00  0.00    +0.116 A 
ATOM     15  S   UNL     1       2.935  -0.046  -0.026  0.00  0.00    -0.064 S 
ATOM     16  C   UNL     1       1.282  -0.720  -0.014  0.00  0.00    +0.081 A 
BRANCH  12  17
ATOM     17  C   UNL     1       6.980  -3.464  -0.080  0.00  0.00    +0.109 C 
BRANCH  17  18
ATOM     18  C   UNL     1       7.763  -2.176  -0.081  0.00  0.00    -0.040 A 
ATOM     19  C   UNL     1       8.117  -1.583  -1.278  0.00  0.00    +0.004 A 
ATOM     20  C   UNL     1       8.831  -0.399  -1.278  0.00  0.00    +0.000 A 
ATOM     21  C   UNL     1       9.201   0.185  -0.081  0.00  0.00    +0.000 A 
ATOM     22  C   UNL     1       8.853  -0.411   1.116  0.00  0.00    +0.000 A 
ATOM     23  C   UNL     1       8.134  -1.592   1.116  0.00  0.00    +0.004 A 
ENDBRANCH  17  18
ENDBRANCH  12  17
ENDBRANCH   1  16
BRANCH   3  24
ATOM     24  N   UNL     1      -1.239   2.027   0.019  0.00  0.00    -0.229 N 
ATOM     25  C   UNL     1      -1.257   3.375   0.026  0.00  0.00    +0.281 C 
ATOM     26  O   UNL     1      -0.213   3.997   0.025  0.00  0.00    -0.267 OA
ATOM     27  H   UNL     1      -2.072   1.531   0.020  0.00  0.00    +0.173 HD
BRANCH  25  28
ATOM     28  C   UNL     1      -2.546   4.096   0.036  0.00  0.00    +0.155 A 
ATOM     29  C   UNL     1      -2.576   5.567   0.051  0.00  0.00    +0.020 A 
ATOM     30  C   UNL     1      -1.422   6.344   0.044  0.00  0.00    +0.011 A 
ATOM     31  C   UNL     1      -1.532   7.719   0.051  0.00  0.00    +0.001 A 
ATOM     32  C   UNL     1      -2.778   8.332   0.059  0.00  0.00    +0.001 A 
ATOM     33  C   UNL     1      -3.934   7.581   0.061  0.00  0.00    +0.014 A 
ATOM     34  C   UNL     1      -3.844   6.192   0.053  0.00  0.00    +0.050 A 
ATOM     35  C   UNL     1      -5.024   5.316   0.054  0.00  0.00    +0.272 A 
ATOM     36  O   UNL     1      -6.148   5.784   0.062  0.00  0.00    -0.266 OA
ATOM     37  N   UNL     1      -4.832   3.981   0.047  0.00  0.00    -0.242 N 
ATOM     38  H   UNL     1      -5.613   3.405   0.047  0.00  0.00    +0.192 HD
ATOM     39  N   UNL     1      -3.676   3.433   0.038  0.00  0.00    -0.166 NA
ENDBRANCH  25  28
ENDBRANCH   3  24
TORSDOF 5
