REMARK  Name = ZINC50828966
REMARK  3 active torsions:
REMARK  status: ('A' for Active; 'I' for Inactive)
REMARK    1  A    between atoms: C_1  and  N_2
REMARK    2  A    between atoms: C_4  and  C_13
REMARK    3  A    between atoms: C_13  and  N_14
REMARK                            x       y       z     vdW  Elec       q    Type
REMARK                         _______ _______ _______ _____ _____    ______ ____
ROOT
ATOM      1  C   UNL     1      -0.222   1.291  -0.957  0.00  0.00    +0.127 C 
ATOM      2  N   UNL     1       0.006  -0.102  -0.563  0.00  0.00    -0.333 N 
ATOM      3  C   UNL     1       0.658  -0.969  -1.427  0.00  0.00    +0.101 A 
ATOM      4  C   UNL     1       0.756  -2.327  -1.089  0.00  0.00    +0.011 A 
ATOM      5  C   UNL     1       1.393  -3.190  -1.928  0.00  0.00    +0.018 A 
ATOM      6  C   UNL     1       1.938  -2.680  -3.124  0.00  0.00    -0.001 A 
ATOM      7  C   UNL     1       2.607  -3.514  -4.033  0.00  0.00    +0.010 A 
ATOM      8  C   UNL     1       3.120  -2.987  -5.179  0.00  0.00    +0.001 A 
ATOM      9  C   UNL     1       2.991  -1.629  -5.461  0.00  0.00    +0.002 A 
ATOM     10  C   UNL     1       2.349  -0.791  -4.601  0.00  0.00    +0.026 A 
ATOM     11  C   UNL     1       1.806  -1.299  -3.408  0.00  0.00    +0.048 A 
ATOM     12  N   UNL     1       1.165  -0.499  -2.548  0.00  0.00    -0.343 N 
ATOM     13  H   UNL     1      -0.299  -0.417   0.302  0.00  0.00    +0.147 HD
ATOM     14  H   UNL     1       1.075   0.445  -2.752  0.00  0.00    +0.167 HD
ENDROOT
BRANCH   4  15
ATOM     15  C   UNL     1       0.159  -2.829   0.201  0.00  0.00    +0.163 C 
BRANCH  15  16
ATOM     16  N   UNL     1      -1.272  -3.079   0.011  0.00  0.00    -0.310 N 
ATOM     17  C   UNL     1      -2.172  -2.122   0.356  0.00  0.00    +0.104 A 
ATOM     18  C   UNL     1      -3.499  -2.330   0.190  0.00  0.00    +0.034 A 
ATOM     19  C   UNL     1      -3.956  -3.544  -0.343  0.00  0.00    +0.022 A 
ATOM     20  C   UNL     1      -3.050  -4.503  -0.689  0.00  0.00    +0.071 A 
ATOM     21  C   UNL     1      -1.680  -4.252  -0.508  0.00  0.00    +0.252 A 
ATOM     22  O   UNL     1      -0.858  -5.101  -0.818  0.00  0.00    -0.268 OA
ATOM     23 BR   UNL     1      -4.736  -0.985   0.677  0.00  0.00    -0.049 Br
ENDBRANCH  15  16
ENDBRANCH   4  15
TORSDOF 2
