REMARK  Name = ZINC41020453
REMARK  14 active torsions:
REMARK  status: ('A' for Active; 'I' for Inactive)
REMARK    1  A    between atoms: C_1  and  C_2
REMARK    2  A    between atoms: C_2  and  C_3
REMARK    3  A    between atoms: C_3  and  C_4
REMARK    4  A    between atoms: C_4  and  S_5
REMARK    5  A    between atoms: S_5  and  C_6
REMARK    6  A    between atoms: C_11  and  C_28
REMARK    7  A    between atoms: C_13  and  C_17
REMARK    8  A    between atoms: C_14  and  C_16
REMARK    9  A    between atoms: N_19  and  C_20
REMARK   10  A    between atoms: C_24  and  C_27
REMARK   11  A    between atoms: C_25  and  C_26
REMARK   12  A    between atoms: C_31  and  O_36
REMARK   13  A    between atoms: C_32  and  O_34
REMARK   14  A    between atoms: O_34  and  C_35
REMARK                            x       y       z     vdW  Elec       q    Type
REMARK                         _______ _______ _______ _____ _____    ______ ____
ROOT
ATOM      1  C   UNL     1       0.819  -4.783  -3.799  0.00  0.00    +0.210 A 
ATOM      2  N   UNL     1       0.851  -5.330  -2.575  0.00  0.00    -0.187 NA
ATOM      3  C   UNL     1       1.177  -6.591  -2.670  0.00  0.00    +0.219 A 
ATOM      4  N   UNL     1       1.358  -6.882  -3.982  0.00  0.00    -0.220 N 
ATOM      5  N   UNL     1       1.120  -5.704  -4.689  0.00  0.00    -0.141 NA
ATOM      6  C   UNL     1       1.722  -8.208  -4.473  0.00  0.00    +0.177 C 
ATOM      7  C   UNL     1       2.144  -9.073  -3.315  0.00  0.00    +0.060 C 
ATOM      8  C   UNL     1       1.942  -8.730  -2.034  0.00  0.00    +0.018 C 
ATOM      9  N   UNL     1       1.339  -7.549  -1.679  0.00  0.00    -0.287 N 
ATOM     10  C   UNL     1       2.391  -9.674  -0.948  0.00  0.00    +0.061 C 
ATOM     11  H   UNL     1       1.039  -7.389  -0.770  0.00  0.00    +0.155 HD
ENDROOT
BRANCH   6  12
ATOM     12  C   UNL     1       0.536  -8.833  -5.160  0.00  0.00    -0.015 A 
ATOM     13  C   UNL     1      -0.625  -9.076  -4.449  0.00  0.00    +0.010 A 
ATOM     14  C   UNL     1      -1.716  -9.649  -5.075  0.00  0.00    +0.049 A 
ATOM     15  C   UNL     1      -1.648  -9.981  -6.418  0.00  0.00    +0.158 A 
ATOM     16  C   UNL     1      -0.480  -9.737  -7.134  0.00  0.00    +0.162 A 
ATOM     17  C   UNL     1       0.608  -9.158  -6.502  0.00  0.00    +0.055 A 
BRANCH  16  18
ATOM     18  O   UNL     1      -0.409 -10.061  -8.453  0.00  0.00    -0.491 OA
ATOM     19  C   UNL     1       0.847  -9.861  -9.103  0.00  0.00    +0.277 C 
ENDBRANCH  16  18
BRANCH  15  20
ATOM     20  O   UNL     1      -2.721 -10.545  -7.035  0.00  0.00    -0.503 OA
ATOM     21  H   UNL     1      -3.330  -9.905  -7.428  0.00  0.00    +0.292 HD
ENDBRANCH  15  20
ENDBRANCH   6  12
BRANCH   7  22
ATOM     22  C   UNL     1       2.784 -10.304  -3.590  0.00  0.00    +0.248 C 
ATOM     23  O   UNL     1       3.958 -10.322  -3.911  0.00  0.00    -0.270 OA
ATOM     24  N   UNL     1       2.093 -11.458  -3.498  0.00  0.00    -0.281 N 
ATOM     25  H   UNL     1       1.180 -11.451  -3.169  0.00  0.00    +0.155 HD
BRANCH  24  26
ATOM     26  C   UNL     1       2.691 -12.664  -3.877  0.00  0.00    +0.037 A 
ATOM     27  C   UNL     1       4.002 -12.936  -3.507  0.00  0.00    +0.023 A 
ATOM     28  C   UNL     1       4.590 -14.128  -3.882  0.00  0.00    +0.002 A 
ATOM     29  C   UNL     1       3.875 -15.050  -4.625  0.00  0.00    +0.004 A 
ATOM     30  C   UNL     1       2.570 -14.781  -4.995  0.00  0.00    -0.046 A 
ATOM     31  C   UNL     1       1.974 -13.594  -4.618  0.00  0.00    -0.026 A 
ATOM     32  C   UNL     1       0.550 -13.305  -5.015  0.00  0.00    +0.046 C 
ATOM     33  C   UNL     1       1.795 -15.789  -5.804  0.00  0.00    +0.044 C 
ENDBRANCH  24  26
ENDBRANCH   7  22
BRANCH   1  34
ATOM     34  S   UNL     1       0.428  -3.103  -4.159  0.00  0.00    -0.084 S 
BRANCH  34  35
ATOM     35  C   UNL     1       0.114  -2.367  -2.530  0.00  0.00    +0.077 C 
BRANCH  35  36
ATOM     36  C   UNL     1      -0.242  -0.889  -2.698  0.00  0.00    +0.011 C 
BRANCH  36  38
ATOM     37  C   UNL     1      -0.862   1.210  -1.493  0.00  0.00    +0.004 C 
ATOM     38  C   UNL     1      -0.506  -0.269  -1.325  0.00  0.00    -0.003 C 
ENDBRANCH  36  38
ENDBRANCH  35  36
ENDBRANCH  34  35
ENDBRANCH   1  34
TORSDOF 9
