REMARK  Name = ZINC13065089
REMARK  15 active torsions:
REMARK  status: ('A' for Active; 'I' for Inactive)
REMARK    1  A    between atoms: C_1  and  C_2
REMARK    2  A    between atoms: C_2  and  C_3
REMARK    3  A    between atoms: C_3  and  C_5
REMARK    4  A    between atoms: C_3  and  N_65
REMARK    5  A    between atoms: N_9  and  C_10
REMARK    6  A    between atoms: C_10  and  C_11
REMARK    7  A    between atoms: C_11  and  O_13
REMARK    8  A    between atoms: O_13  and  C_14
REMARK    9  A    between atoms: C_14  and  C_15
REMARK   10  A    between atoms: C_16  and  C_17
REMARK   11  A    between atoms: C_16  and  N_65
REMARK   12  A    between atoms: C_22  and  C_23
REMARK   13  A    between atoms: C_22  and  N_65
REMARK   14  A    between atoms: C_28  and  C_36
REMARK   15  A    between atoms: C_29  and  C_35
REMARK                            x       y       z     vdW  Elec       q    Type
REMARK                         _______ _______ _______ _____ _____    ______ ____
ROOT
ATOM      1  N   UNL     1      -3.083   1.531   0.291  0.00  0.00    +0.394 N 
ATOM      2  H   UNL     1      -3.104   2.471  -0.122  0.00  0.00    -0.080 HD
ENDROOT
BRANCH   1   3
ATOM      3  C   UNL     1      -2.672   1.637   1.707  0.00  0.00    +0.003 C 
BRANCH   3   4
ATOM      4  C   UNL     1      -3.790   2.265   2.499  0.00  0.00    +0.139 A 
ATOM      5  N   UNL     1      -4.509   3.304   2.151  0.00  0.00    -0.115 NA
ATOM      6  N   UNL     1      -5.359   3.533   3.091  0.00  0.00    -0.023 NA
ATOM      7  N   UNL     1      -5.202   2.666   4.030  0.00  0.00    -0.043 NA
ATOM      8  N   UNL     1      -4.247   1.864   3.700  0.00  0.00    -0.220 N 
BRANCH   8   9
ATOM      9  C   UNL     1      -3.751   0.732   4.487  0.00  0.00    +0.267 C 
BRANCH   9  10
ATOM     10  C   UNL     1      -2.645   1.199   5.398  0.00  0.00    +0.329 C 
ATOM     11  O   UNL     1      -2.307   2.359   5.391  0.00  0.00    -0.249 OA
BRANCH  10  12
ATOM     12  O   UNL     1      -2.037   0.327   6.217  0.00  0.00    -0.464 OA
BRANCH  12  13
ATOM     13  C   UNL     1      -0.981   0.847   7.067  0.00  0.00    +0.229 C 
ATOM     14  C   UNL     1      -0.411  -0.286   7.923  0.00  0.00    +0.048 C 
ENDBRANCH  12  13
ENDBRANCH  10  12
ENDBRANCH   9  10
ENDBRANCH   8   9
ENDBRANCH   3   4
BRANCH   3  16
ATOM     15  C   UNL     1      -1.744   3.907   1.228  0.00  0.00    +0.002 C 
ATOM     16  C   UNL     1      -1.427   2.521   1.793  0.00  0.00    -0.011 C 
ENDBRANCH   3  16
ENDBRANCH   1   3
BRANCH   1  17
ATOM     17  C   UNL     1      -4.434   0.937   0.200  0.00  0.00    -0.002 C 
BRANCH  17  18
ATOM     18  C   UNL     1      -4.988   1.206  -1.175  0.00  0.00    +0.089 A 
ATOM     19  C   UNL     1      -4.948   0.357  -2.219  0.00  0.00    +0.042 A 
ATOM     20  C   UNL     1      -5.579   1.011  -3.302  0.00  0.00    +0.041 A 
ATOM     21  C   UNL     1      -5.967   2.219  -2.856  0.00  0.00    +0.195 A 
ATOM     22  O   UNL     1      -5.611   2.329  -1.566  0.00  0.00    -0.470 OA
ENDBRANCH  17  18
ENDBRANCH   1  17
BRANCH   1  23
ATOM     23  C   UNL     1      -2.115   0.700  -0.455  0.00  0.00    -0.036 C 
BRANCH  23  24
ATOM     24  C   UNL     1      -2.037  -0.683   0.139  0.00  0.00    +0.001 A 
ATOM     25  C   UNL     1      -2.808  -1.678  -0.363  0.00  0.00    +0.017 A 
ATOM     26  C   UNL     1      -2.706  -3.011   0.234  0.00  0.00    -0.001 A 
ATOM     27  C   UNL     1      -3.471  -4.080  -0.245  0.00  0.00    +0.010 A 
ATOM     28  C   UNL     1      -3.356  -5.310   0.337  0.00  0.00    +0.004 A 
ATOM     29  C   UNL     1      -2.485  -5.510   1.400  0.00  0.00    -0.046 A 
ATOM     30  C   UNL     1      -1.720  -4.472   1.887  0.00  0.00    -0.024 A 
ATOM     31  C   UNL     1      -1.821  -3.210   1.311  0.00  0.00    +0.052 A 
ATOM     32  N   UNL     1      -1.068  -2.155   1.778  0.00  0.00    -0.322 N 
ATOM     33  H   UNL     1      -0.459  -2.293   2.520  0.00  0.00    +0.169 HD
ATOM     34  C   UNL     1      -1.166  -0.935   1.220  0.00  0.00    +0.251 A 
ATOM     35  O   UNL     1      -0.484  -0.025   1.660  0.00  0.00    -0.268 OA
ATOM     36  C   UNL     1      -0.778  -4.704   3.041  0.00  0.00    +0.046 C 
ATOM     37  C   UNL     1      -2.374  -6.876   2.026  0.00  0.00    +0.044 C 
ENDBRANCH  23  24
ENDBRANCH   1  23
TORSDOF 11
