REMARK  Name = ZINC61596257
REMARK  6 active torsions:
REMARK  status: ('A' for Active; 'I' for Inactive)
REMARK    1  A    between atoms: C_1  and  C_2
REMARK    2  A    between atoms: C_2  and  N_3
REMARK    3  A    between atoms: C_9  and  S_10
REMARK    4  A    between atoms: S_10  and  C_11
REMARK    5  A    between atoms: C_13  and  C_19
REMARK    6  A    between atoms: C_14  and  N_18
REMARK                            x       y       z     vdW  Elec       q    Type
REMARK                         _______ _______ _______ _____ _____    ______ ____
ROOT
ATOM      1  C   UNL     1      -1.984  -1.058   4.481  0.00  0.00    +0.052 A 
ATOM      2  C   UNL     1      -0.788  -1.319   5.124  0.00  0.00    +0.033 A 
ATOM      3  C   UNL     1      -0.788  -1.665   6.479  0.00  0.00    +0.058 A 
ATOM      4  C   UNL     1      -2.003  -1.747   7.176  0.00  0.00    +0.040 A 
ATOM      5  C   UNL     1      -3.196  -1.483   6.517  0.00  0.00    +0.063 A 
ATOM      6  C   UNL     1      -3.188  -1.136   5.180  0.00  0.00    +0.139 A 
ATOM      7  F   UNL     1      -4.352  -0.875   4.546  0.00  0.00    -0.204 F 
ENDROOT
BRANCH   3   8
ATOM      8  C   UNL     1       0.482  -1.945   7.171  0.00  0.00    +0.243 C 
ATOM      9  O   UNL     1       0.474  -2.353   8.316  0.00  0.00    -0.270 OA
ATOM     10  N   UNL     1       1.654  -1.748   6.534  0.00  0.00    -0.325 N 
ATOM     11  H   UNL     1       1.661  -1.422   5.620  0.00  0.00    +0.145 HD
ATOM     12  H   UNL     1       2.490  -1.931   6.990  0.00  0.00    +0.145 HD
ENDBRANCH   3   8
BRANCH   4  13
ATOM     13  N   UNL     1      -2.013  -2.092   8.524  0.00  0.00    -0.357 N 
ATOM     14  H   UNL     1      -1.189  -2.360   8.961  0.00  0.00    +0.142 HD
ATOM     15  H   UNL     1      -2.842  -2.065   9.026  0.00  0.00    +0.142 HD
ENDBRANCH   4  13
BRANCH   1  16
ATOM     16  S   UNL     1      -1.986  -0.620   2.774  0.00  0.00    -0.047 S 
BRANCH  16  23
ATOM     17  N   UNL     1      -2.791  -2.204   0.612  0.00  0.00    -0.271 N 
ATOM     18  C   UNL     1      -3.180  -3.471   0.366  0.00  0.00    +0.345 A 
ATOM     19  O   UNL     1      -3.484  -3.933  -0.719  0.00  0.00    -0.245 OA
ATOM     20  N   UNL     1      -3.173  -4.134   1.541  0.00  0.00    -0.226 N 
ATOM     21  H   UNL     1      -3.408  -5.066   1.676  0.00  0.00    +0.194 HD
ATOM     22  N   UNL     1      -2.763  -3.231   2.531  0.00  0.00    -0.144 NA
ATOM     23  C   UNL     1      -2.533  -2.084   1.959  0.00  0.00    +0.197 A 
BRANCH  17  25
ATOM     24  C   UNL     1      -1.240  -1.153  -0.961  0.00  0.00    +0.027 C 
ATOM     25  C   UNL     1      -2.658  -1.139  -0.385  0.00  0.00    +0.125 C 
ENDBRANCH  17  25
ENDBRANCH  16  23
ENDBRANCH   1  16
TORSDOF 5
