REMARK  Name = ZINC08681746
REMARK  18 active torsions:
REMARK  status: ('A' for Active; 'I' for Inactive)
REMARK    1  A    between atoms: C_1  and  C_2
REMARK    2  A    between atoms: C_2  and  C_3
REMARK    3  A    between atoms: C_3  and  C_4
REMARK    4  A    between atoms: C_3  and  C_5
REMARK    5  A    between atoms: C_3  and  N_6
REMARK    6  A    between atoms: C_7  and  C_11
REMARK    7  A    between atoms: C_11  and  C_13
REMARK    8  A    between atoms: C_11  and  N_68
REMARK    9  A    between atoms: C_13  and  C_14
REMARK   10  A    between atoms: C_13  and  C_15
REMARK   11  A    between atoms: C_16  and  C_17
REMARK   12  A    between atoms: C_16  and  N_68
REMARK   13  A    between atoms: C_17  and  C_18
REMARK   14  A    between atoms: C_18  and  O_19
REMARK   15  A    between atoms: C_20  and  C_21
REMARK   16  A    between atoms: C_20  and  N_68
REMARK   17  A    between atoms: C_25  and  C_32
REMARK   18  A    between atoms: C_30  and  O_31
REMARK                            x       y       z     vdW  Elec       q    Type
REMARK                         _______ _______ _______ _____ _____    ______ ____
ROOT
ATOM      1  N   UNL     1       4.297   0.029  -1.234  0.00  0.00    +0.389 N 
ATOM      2  H   UNL     1       4.389   0.035  -2.257  0.00  0.00    -0.080 HD
ENDROOT
BRANCH   1   3
ATOM      3  C   UNL     1       3.088   0.792  -0.858  0.00  0.00    +0.006 C 
BRANCH   3   5
ATOM      4  N   UNL     1       1.915   2.315  -2.534  0.00  0.00    -0.225 N 
ATOM      5  C   UNL     1       2.971   1.989  -1.766  0.00  0.00    +0.139 A 
ATOM      6  N   UNL     1       3.880   2.913  -1.964  0.00  0.00    -0.115 NA
ATOM      7  N   UNL     1       3.403   3.767  -2.803  0.00  0.00    -0.023 NA
ATOM      8  N   UNL     1       2.216   3.409  -3.149  0.00  0.00    -0.043 NA
BRANCH   4   9
ATOM      9  C   UNL     1       0.657   1.572  -2.644  0.00  0.00    +0.061 C 
ATOM     10  C   UNL     1       0.053   1.382  -1.252  0.00  0.00    +0.036 C 
ATOM     11  C   UNL     1       0.927   0.204  -3.275  0.00  0.00    +0.036 C 
BRANCH   9  13
ATOM     12  C   UNL     1      -1.635   1.578  -3.639  0.00  0.00    +0.006 C 
ATOM     13  C   UNL     1      -0.322   2.354  -3.523  0.00  0.00    +0.026 C 
ENDBRANCH   9  13
ENDBRANCH   4   9
ENDBRANCH   3   5
BRANCH   3  14
ATOM     14  C   UNL     1       3.183   1.261   0.595  0.00  0.00    -0.024 C 
ATOM     15  C   UNL     1       1.990   2.164   0.918  0.00  0.00    +0.006 C 
ATOM     16  C   UNL     1       3.170   0.046   1.525  0.00  0.00    +0.006 C 
ENDBRANCH   3  14
ENDBRANCH   1   3
BRANCH   1  17
ATOM     17  C   UNL     1       4.177  -1.369  -0.770  0.00  0.00    -0.075 C 
BRANCH  17  18
ATOM     18  C   UNL     1       3.263  -2.128  -1.734  0.00  0.00    +0.009 C 
BRANCH  18  19
ATOM     19  C   UNL     1       3.139  -3.584  -1.280  0.00  0.00    +0.154 C 
BRANCH  19  20
ATOM     20  O   UNL     1       2.285  -4.293  -2.179  0.00  0.00    -0.395 OA
ATOM     21  H   UNL     1       2.161  -5.225  -1.952  0.00  0.00    +0.209 HD
ENDBRANCH  19  20
ENDBRANCH  18  19
ENDBRANCH  17  18
ENDBRANCH   1  17
BRANCH   1  22
ATOM     22  C   UNL     1       5.496   0.658  -0.640  0.00  0.00    -0.037 C 
BRANCH  22  23
ATOM     23  C   UNL     1       6.721   0.098  -1.317  0.00  0.00    -0.002 A 
ATOM     24  C   UNL     1       7.479  -0.842  -0.686  0.00  0.00    +0.017 A 
ATOM     25  C   UNL     1       8.614  -1.343  -1.355  0.00  0.00    +0.001 A 
ATOM     26  C   UNL     1       9.437  -2.316  -0.767  0.00  0.00    +0.013 A 
ATOM     27  C   UNL     1      10.529  -2.772  -1.442  0.00  0.00    -0.050 A 
ATOM     28  C   UNL     1      10.839  -2.286  -2.710  0.00  0.00    +0.005 A 
ATOM     29  C   UNL     1      10.062  -1.343  -3.310  0.00  0.00    +0.029 A 
ATOM     30  C   UNL     1       8.928  -0.848  -2.644  0.00  0.00    +0.075 A 
ATOM     31  N   UNL     1       8.147   0.080  -3.210  0.00  0.00    -0.213 NA
ATOM     32  C   UNL     1       7.085   0.548  -2.592  0.00  0.00    +0.214 A 
ATOM     33  C   UNL     1      11.412  -3.817  -0.809  0.00  0.00    +0.044 C 
BRANCH  32  34
ATOM     34  O   UNL     1       6.323   1.487  -3.204  0.00  0.00    -0.492 OA
ATOM     35  H   UNL     1       6.546   2.396  -2.959  0.00  0.00    +0.294 HD
ENDBRANCH  32  34
ENDBRANCH  22  23
ENDBRANCH   1  22
TORSDOF 12
