REMARK  Name = ZINC39691323
REMARK  9 active torsions:
REMARK  status: ('A' for Active; 'I' for Inactive)
REMARK    1  A    between atoms: C_1  and  O_2
REMARK    2  A    between atoms: O_2  and  C_3
REMARK    3  A    between atoms: C_8  and  C_9
REMARK    4  A    between atoms: C_13  and  C_22
REMARK    5  A    between atoms: N_24  and  C_25
REMARK    6  A    between atoms: C_25  and  C_26
REMARK    7  A    between atoms: C_26  and  N_27
REMARK    8  A    between atoms: C_28  and  C_30
REMARK    9  A    between atoms: C_30  and  C_31
REMARK                            x       y       z     vdW  Elec       q    Type
REMARK                         _______ _______ _______ _____ _____    ______ ____
ROOT
ATOM      1  C   UNL     1       0.276  -2.897  -0.115  0.00  0.00    +0.250 C 
ATOM      2  O   UNL     1       1.393  -2.433  -0.237  0.00  0.00    -0.270 OA
ATOM      3  N   UNL     1       0.109  -4.228   0.017  0.00  0.00    -0.296 N 
ATOM      4  C   UNL     1      -1.165  -4.983   0.070  0.00  0.00    +0.121 C 
ATOM      5  C   UNL     1      -0.892  -6.266  -0.747  0.00  0.00    +0.100 C 
ATOM      6  C   UNL     1       0.634  -6.448  -0.694  0.00  0.00    -0.004 C 
ATOM      7  C   UNL     1       1.160  -5.268   0.136  0.00  0.00    +0.115 C 
ATOM      8  C   UNL     1       1.222  -6.398  -2.101  0.00  0.00    -0.010 C 
ATOM      9  C   UNL     1       2.732  -6.638  -2.027  0.00  0.00    -0.082 C 
ATOM     10  N   UNL     1       2.993  -7.946  -1.413  0.00  0.00    +0.379 N 
ATOM     11  C   UNL     1       2.507  -7.954  -0.028  0.00  0.00    -0.082 C 
ATOM     12  C   UNL     1       0.987  -7.769  -0.017  0.00  0.00    -0.010 C 
ATOM     13  H   UNL     1       2.517  -8.663  -1.939  0.00  0.00    -0.086 HD
ATOM     14  H   UNL     1       3.985  -8.128  -1.421  0.00  0.00    -0.086 HD
ENDROOT
BRANCH   1  20
ATOM     15  C   UNL     1      -0.901  -0.840  -0.893  0.00  0.00    +0.132 A 
ATOM     16  C   UNL     1      -2.012  -0.010  -0.886  0.00  0.00    +0.046 A 
ATOM     17  C   UNL     1      -3.106  -0.325  -0.106  0.00  0.00    +0.004 A 
ATOM     18  C   UNL     1      -3.105  -1.470   0.674  0.00  0.00    +0.001 A 
ATOM     19  C   UNL     1      -2.010  -2.307   0.679  0.00  0.00    +0.017 A 
ATOM     20  C   UNL     1      -0.898  -2.003  -0.110  0.00  0.00    +0.078 A 
BRANCH  15  22
ATOM     21  C   UNL     1       0.100   0.669  -2.430  0.00  0.00    +0.277 C 
ATOM     22  O   UNL     1       0.176  -0.531  -1.659  0.00  0.00    -0.494 OA
ENDBRANCH  15  22
ENDBRANCH   1  20
BRANCH   5  23
ATOM     23  C   UNL     1      -1.352  -6.090  -2.171  0.00  0.00    +0.218 C 
ATOM     24  O   UNL     1      -1.338  -4.989  -2.681  0.00  0.00    -0.275 OA
ATOM     25  N   UNL     1      -1.780  -7.154  -2.878  0.00  0.00    -0.314 N 
ATOM     26  H   UNL     1      -1.791  -8.034  -2.470  0.00  0.00    +0.149 HD
BRANCH  25  27
ATOM     27  C   UNL     1      -2.227  -6.983  -4.262  0.00  0.00    +0.123 C 
BRANCH  27  28
ATOM     28  C   UNL     1      -2.657  -8.337  -4.831  0.00  0.00    +0.123 C 
BRANCH  28  29
ATOM     29  N   UNL     1      -3.105  -8.165  -6.215  0.00  0.00    -0.314 N 
ATOM     30  C   UNL     1      -3.532  -9.230  -6.922  0.00  0.00    +0.217 C 
ATOM     31  O   UNL     1      -3.546 -10.330  -6.412  0.00  0.00    -0.275 OA
ATOM     32  H   UNL     1      -3.093  -7.285  -6.623  0.00  0.00    +0.149 HD
BRANCH  30  33
ATOM     33  C   UNL     1      -3.993  -9.053  -8.346  0.00  0.00    +0.131 C 
BRANCH  33  34
ATOM     34  C   UNL     1      -4.416 -10.387  -8.906  0.00  0.00    -0.031 A 
ATOM     35  C   UNL     1      -3.535 -11.139  -9.622  0.00  0.00    +0.005 A 
ATOM     36  C   UNL     1      -3.909 -12.374 -10.148  0.00  0.00    +0.001 A 
ATOM     37  C   UNL     1      -5.165 -12.864  -9.961  0.00  0.00    +0.008 A 
ATOM     38  C   UNL     1      -6.101 -12.117  -9.227  0.00  0.00    -0.018 A 
ATOM     39  C   UNL     1      -5.719 -10.863  -8.687  0.00  0.00    -0.014 A 
ATOM     40  C   UNL     1      -6.654 -10.118  -7.948  0.00  0.00    +0.009 A 
ATOM     41  C   UNL     1      -7.908 -10.611  -7.756  0.00  0.00    +0.001 A 
ATOM     42  C   UNL     1      -8.281 -11.847  -8.282  0.00  0.00    +0.001 A 
ATOM     43  C   UNL     1      -7.407 -12.590  -9.014  0.00  0.00    +0.008 A 
ENDBRANCH  33  34
ENDBRANCH  30  33
ENDBRANCH  28  29
ENDBRANCH  27  28
ENDBRANCH  25  27
ENDBRANCH   5  23
TORSDOF 8
