REMARK  Name = ZINC05924056
REMARK  8 active torsions:
REMARK  status: ('A' for Active; 'I' for Inactive)
REMARK    1  A    between atoms: C_1  and  C_2
REMARK    2  A    between atoms: C_2  and  C_3
REMARK    3  A    between atoms: C_3  and  O_4
REMARK    4  A    between atoms: O_4  and  C_5
REMARK    5  A    between atoms: C_8  and  C_11
REMARK    6  A    between atoms: C_18  and  N_33
REMARK    7  A    between atoms: C_19  and  C_31
REMARK    8  A    between atoms: C_20  and  C_22
REMARK                            x       y       z     vdW  Elec       q    Type
REMARK                         _______ _______ _______ _____ _____    ______ ____
ROOT
ATOM      1  C   UNL     1      -6.679  -4.826   0.185  0.00  0.00    +0.100 A 
ATOM      2  C   UNL     1      -6.847  -5.912  -0.680  0.00  0.00    +0.054 A 
ATOM      3  C   UNL     1      -8.129  -6.361  -0.550  0.00  0.00    +0.223 A 
ATOM      4  N   UNL     1      -8.745  -5.585   0.366  0.00  0.00    -0.246 N 
ATOM      5  H   UNL     1      -9.664  -5.673   0.663  0.00  0.00    +0.192 HD
ATOM      6  N   UNL     1      -7.820  -4.632   0.819  0.00  0.00    -0.171 NA
ATOM      7  O   UNL     1      -8.613  -7.410  -1.261  0.00  0.00    -0.423 OA
ATOM      8  C   UNL     1      -7.885  -7.842  -2.311  0.00  0.00    +0.200 C 
ATOM      9  C   UNL     1      -6.604  -7.478  -2.538  0.00  0.00    +0.098 C 
ATOM     10  C   UNL     1      -5.854  -6.543  -1.621  0.00  0.00    +0.102 C 
ENDROOT
BRANCH  10  11
ATOM     11  C   UNL     1      -4.828  -7.317  -0.834  0.00  0.00    -0.031 A 
ATOM     12  C   UNL     1      -5.233  -8.308   0.040  0.00  0.00    +0.008 A 
ATOM     13  C   UNL     1      -4.296  -9.021   0.764  0.00  0.00    +0.050 A 
ATOM     14  C   UNL     1      -2.947  -8.743   0.615  0.00  0.00    +0.166 A 
ATOM     15  C   UNL     1      -2.539  -7.744  -0.266  0.00  0.00    +0.167 A 
ATOM     16  C   UNL     1      -3.484  -7.037  -0.992  0.00  0.00    +0.054 A 
ATOM     17  O   UNL     1      -1.177  -7.663  -0.232  0.00  0.00    -0.453 OA
ATOM     18  C   UNL     1      -0.780  -8.339   0.976  0.00  0.00    +0.466 C 
ATOM     19  O   UNL     1      -1.840  -9.288   1.200  0.00  0.00    -0.453 OA
ENDBRANCH  10  11
BRANCH   1  23
ATOM     20  C   UNL     1      -3.115  -2.560   0.695  0.00  0.00    +0.121 A 
ATOM     21  C   UNL     1      -3.520  -2.937  -0.578  0.00  0.00    +0.046 A 
ATOM     22  C   UNL     1      -4.675  -3.672  -0.746  0.00  0.00    +0.013 A 
ATOM     23  C   UNL     1      -5.435  -4.036   0.363  0.00  0.00    +0.003 A 
ATOM     24  C   UNL     1      -5.027  -3.656   1.640  0.00  0.00    +0.013 A 
ATOM     25  C   UNL     1      -3.868  -2.925   1.803  0.00  0.00    +0.046 A 
BRANCH  20  26
ATOM     26  O   UNL     1      -1.977  -1.836   0.859  0.00  0.00    -0.492 OA
BRANCH  26  27
ATOM     27  C   UNL     1      -1.250  -1.494  -0.324  0.00  0.00    +0.229 C 
BRANCH  27  29
ATOM     28  C   UNL     1       0.769  -0.319  -1.209  0.00  0.00    +0.007 C 
ATOM     29  C   UNL     1      -0.009  -0.685   0.057  0.00  0.00    +0.038 C 
ENDBRANCH  27  29
ENDBRANCH  26  27
ENDBRANCH  20  26
ENDBRANCH   1  23
BRANCH   8  30
ATOM     30  N   UNL     1      -8.481  -8.701  -3.201  0.00  0.00    -0.328 N 
ATOM     31  H   UNL     1      -9.400  -8.980  -3.064  0.00  0.00    +0.145 HD
ATOM     32  H   UNL     1      -7.983  -9.029  -3.966  0.00  0.00    +0.145 HD
ENDBRANCH   8  30
BRANCH   9  33
ATOM     33  C   UNL     1      -5.932  -8.000  -3.690  0.00  0.00    +0.101 C 
ATOM     34  N   UNL     1      -5.400  -8.413  -4.604  0.00  0.00    -0.191 NA
ENDBRANCH   9  33
TORSDOF 7
