REMARK  Name = ZINC58382094
REMARK  3 active torsions:
REMARK  status: ('A' for Active; 'I' for Inactive)
REMARK    1  A    between atoms: C_7  and  C_14
REMARK    2  A    between atoms: N_16  and  N_17
REMARK    3  A    between atoms: C_18  and  C_20
REMARK                            x       y       z     vdW  Elec       q    Type
REMARK                         _______ _______ _______ _____ _____    ______ ____
ROOT
ATOM      1  C   UNL     1       0.063  -2.915  -0.016  0.00  0.00    +0.261 C 
ATOM      2  O   UNL     1      -0.451  -3.246  -1.067  0.00  0.00    -0.269 OA
ATOM      3  N   UNL     1      -0.489  -3.295   1.153  0.00  0.00    -0.230 N 
ATOM      4  H   UNL     1      -0.078  -3.031   1.992  0.00  0.00    +0.173 HD
ENDROOT
BRANCH   1  11
ATOM      5  C   UNL     1      -0.016   1.358   0.009  0.00  0.00    +0.001 A 
ATOM      6  C   UNL     1       1.171   2.088   0.002  0.00  0.00    +0.002 A 
ATOM      7  C   UNL     1       2.379   1.464  -0.013  0.00  0.00    +0.028 A 
ATOM      8  C   UNL     1       2.439   0.058  -0.020  0.00  0.00    +0.072 A 
ATOM      9  C   UNL     1       1.229  -0.680  -0.013  0.00  0.00    +0.013 A 
ATOM     10  C   UNL     1       0.002  -0.004   0.002  0.00  0.00    +0.011 A 
ATOM     11  C   UNL     1       1.294  -2.095  -0.021  0.00  0.00    +0.052 A 
ATOM     12  C   UNL     1       2.550  -2.690  -0.034  0.00  0.00    -0.013 A 
ATOM     13  C   UNL     1       3.694  -1.893  -0.039  0.00  0.00    +0.046 A 
ATOM     14  N   UNL     1       3.609  -0.581  -0.032  0.00  0.00    -0.251 NA
ATOM     15  C   UNL     1       4.923  -2.782  -0.054  0.00  0.00    +0.056 C 
ATOM     16  C   UNL     1       4.424  -4.174   0.386  0.00  0.00    +0.011 C 
ATOM     17  C   UNL     1       2.942  -4.151  -0.044  0.00  0.00    +0.038 C 
ENDBRANCH   1  11
BRANCH   3  18
ATOM     18  N   UNL     1      -1.655  -4.072   1.158  0.00  0.00    -0.230 N 
ATOM     19  C   UNL     1      -2.206  -4.452   2.328  0.00  0.00    +0.262 C 
ATOM     20  O   UNL     1      -1.692  -4.121   3.378  0.00  0.00    -0.269 OA
ATOM     21  H   UNL     1      -2.065  -4.336   0.320  0.00  0.00    +0.173 HD
BRANCH  19  22
ATOM     22  C   UNL     1      -3.437  -5.271   2.333  0.00  0.00    +0.056 A 
ATOM     23  C   UNL     1      -4.023  -5.667   3.542  0.00  0.00    +0.017 A 
ATOM     24  C   UNL     1      -5.173  -6.433   3.492  0.00  0.00    +0.041 A 
ATOM     25  C   UNL     1      -5.704  -6.779   2.261  0.00  0.00    +0.129 A 
ATOM     26  N   UNL     1      -5.129  -6.391   1.137  0.00  0.00    -0.243 NA
ATOM     27  C   UNL     1      -4.036  -5.657   1.134  0.00  0.00    +0.125 A 
ATOM     28 CL   UNL     1      -7.149  -7.740   2.193  0.00  0.00    -0.062 Cl
ENDBRANCH  19  22
ENDBRANCH   3  18
TORSDOF 3
