REMARK  Name = ZINC40309717
REMARK  6 active torsions:
REMARK  status: ('A' for Active; 'I' for Inactive)
REMARK    1  A    between atoms: C_7  and  C_11
REMARK    2  A    between atoms: C_11  and  C_12
REMARK    3  A    between atoms: C_12  and  N_13
REMARK    4  A    between atoms: C_14  and  C_16
REMARK    5  A    between atoms: N_18  and  C_19
REMARK    6  A    between atoms: C_24  and  O_25
REMARK                            x       y       z     vdW  Elec       q    Type
REMARK                         _______ _______ _______ _____ _____    ______ ____
ROOT
ATOM      1  N   UNL     1      -0.695  -4.722  -1.448  0.00  0.00    -0.307 N 
ATOM      2  C   UNL     1      -1.200  -5.184  -2.609  0.00  0.00    +0.299 C 
ATOM      3  O   UNL     1      -0.908  -4.644  -3.656  0.00  0.00    -0.265 OA
ATOM      4  H   UNL     1      -0.929  -5.153  -0.612  0.00  0.00    +0.149 HD
ENDROOT
BRANCH   2   5
ATOM      5  C   UNL     1      -2.120  -6.361  -2.608  0.00  0.00    +0.303 C 
ATOM      6  O   UNL     1      -2.412  -6.901  -1.561  0.00  0.00    -0.265 OA
ATOM      7  N   UNL     1      -2.625  -6.823  -3.769  0.00  0.00    -0.275 N 
ATOM      8  H   UNL     1      -2.444  -6.353  -4.598  0.00  0.00    +0.155 HD
BRANCH   7   9
ATOM      9  C   UNL     1      -3.410  -7.980  -3.778  0.00  0.00    +0.077 A 
ATOM     10  C   UNL     1      -4.254  -8.257  -2.712  0.00  0.00    +0.047 A 
ATOM     11  C   UNL     1      -5.029  -9.402  -2.724  0.00  0.00    +0.043 A 
ATOM     12  C   UNL     1      -4.965 -10.274  -3.797  0.00  0.00    +0.023 A 
ATOM     13  C   UNL     1      -4.127 -10.003  -4.863  0.00  0.00    +0.049 A 
ATOM     14  C   UNL     1      -3.352  -8.855  -4.861  0.00  0.00    +0.138 A 
ATOM     15 CL   UNL     1      -6.084  -9.748  -1.389  0.00  0.00    -0.083 Cl
BRANCH  14  16
ATOM     16  O   UNL     1      -2.531  -8.586  -5.911  0.00  0.00    -0.505 OA
ATOM     17  H   UNL     1      -1.641  -8.954  -5.820  0.00  0.00    +0.292 HD
ENDBRANCH  14  16
ENDBRANCH   7   9
ENDBRANCH   2   5
BRANCH   1  18
ATOM     18  C   UNL     1       0.207  -3.567  -1.450  0.00  0.00    +0.109 C 
BRANCH  18  19
ATOM     19  C   UNL     1       0.632  -3.250  -0.015  0.00  0.00    +0.056 C 
BRANCH  19  26
ATOM     20  C   UNL     1      -0.087   1.381   0.016  0.00  0.00    +0.001 A 
ATOM     21  C   UNL     1       1.093   2.112   0.010  0.00  0.00    +0.002 A 
ATOM     22  C   UNL     1       2.314   1.475  -0.003  0.00  0.00    +0.026 A 
ATOM     23  C   UNL     1       2.367   0.085  -0.011  0.00  0.00    +0.047 A 
ATOM     24  C   UNL     1       1.169  -0.651  -0.005  0.00  0.00    +0.003 A 
ATOM     25  C   UNL     1      -0.058   0.016   0.008  0.00  0.00    +0.010 A 
ATOM     26  C   UNL     1       1.560  -2.063  -0.017  0.00  0.00    -0.021 A 
ATOM     27  C   UNL     1       2.902  -2.098  -0.028  0.00  0.00    +0.087 A 
ATOM     28  N   UNL     1       3.402  -0.824  -0.025  0.00  0.00    -0.360 N 
ATOM     29  H   UNL     1       4.344  -0.596  -0.031  0.00  0.00    +0.165 HD
ENDBRANCH  19  26
ENDBRANCH  18  19
ENDBRANCH   1  18
TORSDOF 6
