REMARK  Name = ZINC39636410
REMARK  8 active torsions:
REMARK  status: ('A' for Active; 'I' for Inactive)
REMARK    1  A    between atoms: C_1  and  O_2
REMARK    2  A    between atoms: O_2  and  C_3
REMARK    3  A    between atoms: C_8  and  C_9
REMARK    4  A    between atoms: C_9  and  C_10
REMARK    5  A    between atoms: C_10  and  N_11
REMARK    6  A    between atoms: C_12  and  C_14
REMARK    7  A    between atoms: C_25  and  C_27
REMARK    8  A    between atoms: C_30  and  C_32
REMARK                            x       y       z     vdW  Elec       q    Type
REMARK                         _______ _______ _______ _____ _____    ______ ____
ROOT
ATOM      1  C   UNL     1       3.676  -4.871   2.543  0.00  0.00    +0.100 C 
ATOM      2  C   UNL     1       4.741  -4.177   1.664  0.00  0.00    +0.121 C 
ATOM      3  N   UNL     1       5.550  -3.380   2.616  0.00  0.00    -0.294 N 
ATOM      4  C   UNL     1       5.677  -4.250   3.810  0.00  0.00    +0.115 C 
ATOM      5  C   UNL     1       4.296  -4.921   3.949  0.00  0.00    -0.004 C 
ATOM      6  C   UNL     1       4.455  -6.368   4.406  0.00  0.00    -0.010 C 
ATOM      7  C   UNL     1       5.019  -6.390   5.830  0.00  0.00    -0.082 C 
ATOM      8  N   UNL     1       4.110  -5.669   6.729  0.00  0.00    +0.379 N 
ATOM      9  C   UNL     1       4.035  -4.256   6.338  0.00  0.00    -0.082 C 
ATOM     10  C   UNL     1       3.430  -4.144   4.936  0.00  0.00    -0.010 C 
ATOM     11  C   UNL     1       6.057  -2.144   2.437  0.00  0.00    +0.282 C 
ATOM     12  O   UNL     1       6.707  -1.619   3.321  0.00  0.00    -0.267 OA
ATOM     13  H   UNL     1       3.190  -6.080   6.676  0.00  0.00    -0.086 HD
ATOM     14  H   UNL     1       4.452  -5.737   7.676  0.00  0.00    -0.086 HD
ENDROOT
BRANCH  11  15
ATOM     15  C   UNL     1       5.825  -1.433   1.177  0.00  0.00    +0.190 A 
ATOM     16  C   UNL     1       6.287  -0.174   0.862  0.00  0.00    +0.055 A 
ATOM     17  C   UNL     1       5.834   0.110  -0.430  0.00  0.00    +0.050 A 
ATOM     18  C   UNL     1       5.120  -0.974  -0.853  0.00  0.00    +0.136 A 
ATOM     19  O   UNL     1       5.125  -1.899   0.121  0.00  0.00    -0.450 OA
BRANCH  18  20
ATOM     20  C   UNL     1       4.455  -1.109  -2.165  0.00  0.00    +0.017 A 
ATOM     21  C   UNL     1       4.533  -0.074  -3.100  0.00  0.00    +0.011 A 
ATOM     22  C   UNL     1       3.910  -0.207  -4.324  0.00  0.00    +0.001 A 
ATOM     23  C   UNL     1       3.210  -1.362  -4.626  0.00  0.00    +0.000 A 
ATOM     24  C   UNL     1       3.129  -2.390  -3.704  0.00  0.00    +0.001 A 
ATOM     25  C   UNL     1       3.751  -2.273  -2.478  0.00  0.00    +0.011 A 
ENDBRANCH  18  20
ENDBRANCH  11  15
BRANCH   1  27
ATOM     26  N   UNL     1       1.218  -4.682   2.745  0.00  0.00    -0.315 N 
ATOM     27  C   UNL     1       2.402  -4.066   2.559  0.00  0.00    +0.218 C 
ATOM     28  O   UNL     1       2.443  -2.864   2.404  0.00  0.00    -0.275 OA
ATOM     29  H   UNL     1       1.185  -5.643   2.868  0.00  0.00    +0.149 HD
BRANCH  26  30
ATOM     30  C   UNL     1      -0.020  -3.899   2.760  0.00  0.00    +0.109 C 
BRANCH  30  31
ATOM     31  C   UNL     1      -1.211  -4.832   2.987  0.00  0.00    +0.057 C 
BRANCH  31  37
ATOM     32  C   UNL     1      -3.125  -3.717   1.812  0.00  0.00    +0.123 A 
ATOM     33  C   UNL     1      -4.300  -2.980   1.831  0.00  0.00    +0.046 A 
ATOM     34  C   UNL     1      -4.827  -2.552   3.034  0.00  0.00    +0.004 A 
ATOM     35  C   UNL     1      -4.184  -2.858   4.219  0.00  0.00    +0.000 A 
ATOM     36  C   UNL     1      -3.013  -3.592   4.203  0.00  0.00    +0.007 A 
ATOM     37  C   UNL     1      -2.485  -4.027   3.003  0.00  0.00    -0.004 A 
BRANCH  32  39
ATOM     38  C   UNL     1      -3.317  -3.783  -0.557  0.00  0.00    +0.277 C 
ATOM     39  O   UNL     1      -2.605  -4.139   0.630  0.00  0.00    -0.495 OA
ENDBRANCH  32  39
ENDBRANCH  31  37
ENDBRANCH  30  31
ENDBRANCH  26  30
ENDBRANCH   1  27
TORSDOF 7
