REMARK  Name = ZINC20502699
REMARK  9 active torsions:
REMARK  status: ('A' for Active; 'I' for Inactive)
REMARK    1  A    between atoms: C_1  and  C_2
REMARK    2  A    between atoms: N_13  and  C_18
REMARK    3  A    between atoms: C_15  and  C_16
REMARK    4  A    between atoms: C_18  and  C_19
REMARK    5  A    between atoms: C_19  and  C_21
REMARK    6  A    between atoms: C_19  and  O_36
REMARK    7  A    between atoms: C_21  and  N_22
REMARK    8  A    between atoms: N_25  and  C_28
REMARK    9  A    between atoms: C_28  and  C_29
REMARK                            x       y       z     vdW  Elec       q    Type
REMARK                         _______ _______ _______ _____ _____    ______ ____
ROOT
ATOM      1  C   UNL     1       4.087   3.780  -1.461  0.00  0.00    +0.148 C 
ENDROOT
BRANCH   1   2
ATOM      2  O   UNL     1       3.929   5.052  -2.092  0.00  0.00    -0.389 OA
ATOM      3  H   UNL     1       4.226   5.186  -3.142  0.00  0.00    +0.210 HD
ENDBRANCH   1   2
BRANCH   1   4
ATOM      4  C   UNL     1       3.600   3.864  -0.013  0.00  0.00    +0.156 C 
BRANCH   4  17
ATOM      5  C   UNL     1       1.864   9.162   0.034  0.00  0.00    +0.045 C 
ATOM      6  C   UNL     1       1.286   7.771   0.031  0.00  0.00    -0.024 A 
ATOM      7  C   UNL     1      -0.066   7.584   0.043  0.00  0.00    +0.075 A 
ATOM      8  C   UNL     1      -0.591   6.286   0.041  0.00  0.00    +0.258 A 
ATOM      9  O   UNL     1      -1.801   6.126   0.052  0.00  0.00    -0.267 OA
ATOM     10  N   UNL     1       0.221   5.210   0.028  0.00  0.00    -0.260 N 
ATOM     11  C   UNL     1      -0.064   3.845   0.023  0.00  0.00    +0.075 A 
ATOM     12  C   UNL     1      -1.252   3.129   0.031  0.00  0.00    +0.028 A 
ATOM     13  C   UNL     1      -1.223   1.749   0.017  0.00  0.00    +0.002 A 
ATOM     14  C   UNL     1      -0.013   1.076   0.008  0.00  0.00    +0.002 A 
ATOM     15  C   UNL     1       1.175   1.779   0.000  0.00  0.00    +0.028 A 
ATOM     16  C   UNL     1       1.156   3.168   0.008  0.00  0.00    +0.068 A 
ATOM     17  N   UNL     1       2.159   4.128   0.003  0.00  0.00    -0.322 N 
ATOM     18  C   UNL     1       1.572   5.361   0.015  0.00  0.00    +0.140 A 
ATOM     19  C   UNL     1       2.133   6.646   0.017  0.00  0.00    +0.096 A 
BRANCH  19  20
ATOM     20  C   UNL     1       3.555   6.814   0.004  0.00  0.00    +0.103 C 
ATOM     21  N   UNL     1       4.683   6.947  -0.006  0.00  0.00    -0.191 NA
ENDBRANCH  19  20
ENDBRANCH   4  17
ENDBRANCH   1   4
BRANCH   1  22
ATOM     22  C   UNL     1       5.564   3.381  -1.480  0.00  0.00    +0.117 C 
BRANCH  22  23
ATOM     23  N   UNL     1       6.031   3.300  -2.870  0.00  0.00    -0.303 NA
ATOM     24  C   UNL     1       5.367   2.202  -3.586  0.00  0.00    +0.066 C 
ATOM     25  C   UNL     1       5.821   2.201  -5.048  0.00  0.00    -0.063 C 
ATOM     26  N   UNL     1       7.282   2.055  -5.104  0.00  0.00    +0.384 N 
ATOM     27  C   UNL     1       7.946   3.153  -4.389  0.00  0.00    -0.063 C 
ATOM     28  C   UNL     1       7.492   3.154  -2.927  0.00  0.00    +0.066 C 
ATOM     29  H   UNL     1       7.549   1.112  -4.604  0.00  0.00    -0.081 HD
BRANCH  26  30
ATOM     30  C   UNL     1       7.749   1.974  -6.495  0.00  0.00    -0.043 C 
BRANCH  30  31
ATOM     31  C   UNL     1       6.881   1.009  -7.261  0.00  0.00    -0.064 A 
ATOM     32  C   UNL     1       7.219  -0.330  -7.318  0.00  0.00    +0.003 A 
ATOM     33  C   UNL     1       6.420  -1.215  -8.016  0.00  0.00    +0.020 A 
ATOM     34  C   UNL     1       5.287  -0.759  -8.667  0.00  0.00    +0.041 A 
ATOM     35  C   UNL     1       4.952   0.582  -8.614  0.00  0.00    +0.020 A 
ATOM     36  C   UNL     1       5.749   1.466  -7.911  0.00  0.00    +0.003 A 
ATOM     37 CL   UNL     1       4.287  -1.870  -9.550  0.00  0.00    -0.084 Cl
ENDBRANCH  30  31
ENDBRANCH  26  30
ENDBRANCH  22  23
ENDBRANCH   1  22
TORSDOF 8
