REMARK  Name = ZINC13560664
REMARK  8 active torsions:
REMARK  status: ('A' for Active; 'I' for Inactive)
REMARK    1  A    between atoms: C_1  and  C_2
REMARK    2  A    between atoms: C_4  and  C_28
REMARK    3  A    between atoms: C_6  and  C_27
REMARK    4  A    between atoms: N_7  and  C_8
REMARK    5  A    between atoms: C_11  and  S_14
REMARK    6  A    between atoms: S_14  and  N_17
REMARK    7  A    between atoms: C_21  and  S_23
REMARK    8  A    between atoms: S_23  and  N_26
REMARK                            x       y       z     vdW  Elec       q    Type
REMARK                         _______ _______ _______ _____ _____    ______ ____
ROOT
ATOM      1  C   UNL     1      -1.230   1.976   0.018  0.00  0.00    +0.047 A 
ATOM      2  C   UNL     1      -2.090   1.870  -1.073  0.00  0.00    +0.028 A 
ATOM      3  C   UNL     1      -3.306   2.523  -1.056  0.00  0.00    +0.031 A 
ATOM      4  C   UNL     1      -3.667   3.290   0.037  0.00  0.00    +0.109 A 
ATOM      5  C   UNL     1      -2.815   3.403   1.121  0.00  0.00    +0.031 A 
ATOM      6  C   UNL     1      -1.599   2.750   1.117  0.00  0.00    +0.028 A 
ENDROOT
BRANCH   1  13
ATOM      7  C   UNL     1       1.022   3.542   0.011  0.00  0.00    +0.064 C 
ATOM      8  C   UNL     1       1.101   2.037   0.003  0.00  0.00    +0.021 A 
ATOM      9  C   UNL     1       2.333   1.421  -0.013  0.00  0.00    +0.030 A 
ATOM     10  C   UNL     1       2.395   0.024  -0.021  0.00  0.00    -0.015 A 
ATOM     11  C   UNL     1       1.194  -0.694  -0.013  0.00  0.00    +0.030 A 
ATOM     12  C   UNL     1       0.002  -0.004   0.002  0.00  0.00    +0.021 A 
ATOM     13  N   UNL     1      -0.016   1.322   0.009  0.00  0.00    -0.318 N 
ATOM     14  C   UNL     1      -1.298  -0.766   0.010  0.00  0.00    +0.064 C 
BRANCH  10  15
ATOM     15  C   UNL     1       3.701  -0.679  -0.038  0.00  0.00    -0.018 A 
ATOM     16  C   UNL     1       3.745  -2.072  -0.041  0.00  0.00    +0.008 A 
ATOM     17  C   UNL     1       4.963  -2.721  -0.064  0.00  0.00    +0.001 A 
ATOM     18  C   UNL     1       6.138  -1.992  -0.070  0.00  0.00    +0.000 A 
ATOM     19  C   UNL     1       6.100  -0.609  -0.062  0.00  0.00    +0.001 A 
ATOM     20  C   UNL     1       4.888   0.051  -0.046  0.00  0.00    +0.008 A 
ENDBRANCH  10  15
ENDBRANCH   1  13
BRANCH   4  21
ATOM     21  S   UNL     1      -5.218   4.126   0.048  0.00  0.00    +0.074 S 
ATOM     22  O   UNL     1      -6.066   3.421  -0.848  0.00  0.00    -0.150 OA
ATOM     23  O   UNL     1      -5.557   4.335   1.412  0.00  0.00    -0.150 OA
BRANCH  21  24
ATOM     24  N   UNL     1      -4.971   5.624  -0.614  0.00  0.00    -0.192 N 
ATOM     25  C   UNL     1      -4.600   5.741  -1.945  0.00  0.00    +0.202 A 
ATOM     26  N   UNL     1      -4.389   4.803  -2.858  0.00  0.00    -0.123 NA
ATOM     27  N   UNL     1      -4.051   5.089  -4.039  0.00  0.00    -0.119 NA
ATOM     28  C   UNL     1      -3.887   6.332  -4.441  0.00  0.00    +0.256 A 
ATOM     29  S   UNL     1      -4.274   7.204  -2.926  0.00  0.00    -0.009 S 
ATOM     30  H   UNL     1      -5.087   6.419  -0.070  0.00  0.00    +0.176 HD
BRANCH  28  31
ATOM     31  S   UNL     1      -3.424   6.960  -6.021  0.00  0.00    +0.081 S 
ATOM     32  O   UNL     1      -2.858   8.245  -5.798  0.00  0.00    -0.151 OA
ATOM     33  O   UNL     1      -2.716   5.919  -6.680  0.00  0.00    -0.151 OA
BRANCH  31  34
ATOM     34  N   UNL     1      -4.819   7.200  -6.880  0.00  0.00    -0.202 NA
ATOM     35  H   UNL     1      -5.678   6.995  -6.478  0.00  0.00    +0.144 HD
ATOM     36  H   UNL     1      -4.778   7.546  -7.786  0.00  0.00    +0.144 HD
ENDBRANCH  31  34
ENDBRANCH  28  31
ENDBRANCH  21  24
ENDBRANCH   4  21
TORSDOF 6
