REMARK  Name = ZINC64746107
REMARK  6 active torsions:
REMARK  status: ('A' for Active; 'I' for Inactive)
REMARK    1  A    between atoms: C_1  and  O_2
REMARK    2  A    between atoms: O_2  and  C_3
REMARK    3  A    between atoms: C_7  and  C_9
REMARK    4  A    between atoms: C_10  and  N_29
REMARK    5  A    between atoms: N_20  and  C_23
REMARK    6  A    between atoms: N_29  and  C_30
REMARK                            x       y       z     vdW  Elec       q    Type
REMARK                         _______ _______ _______ _____ _____    ______ ____
ROOT
ATOM      1  C   UNL     1       1.332  -4.081  -2.301  0.00  0.00    +0.114 A 
ATOM      2  C   UNL     1       1.262  -4.823  -3.442  0.00  0.00    +0.150 A 
ATOM      3  N   UNL     1       1.353  -6.158  -3.080  0.00  0.00    -0.190 N 
ATOM      4  C   UNL     1       1.475  -6.155  -1.713  0.00  0.00    +0.199 A 
ATOM      5  N   UNL     1       1.469  -4.939  -1.256  0.00  0.00    -0.218 NA
ATOM      6  S   UNL     1       1.584  -7.888  -1.334  0.00  0.00    -0.013 S 
ATOM      7  C   UNL     1       1.462  -8.506  -3.005  0.00  0.00    +0.184 A 
ATOM      8  N   UNL     1       1.352  -7.405  -3.698  0.00  0.00    -0.140 NA
ATOM      9  N   UNL     1       1.479  -9.817  -3.451  0.00  0.00    -0.312 N 
ATOM     10  C   UNL     1       1.371 -10.130  -4.885  0.00  0.00    +0.088 C 
ATOM     11  C   UNL     1       2.505 -11.090  -5.259  0.00  0.00    -0.059 C 
ATOM     12  N   UNL     1       2.462 -12.264  -4.378  0.00  0.00    +0.384 N 
ATOM     13  C   UNL     1       2.728 -11.859  -2.992  0.00  0.00    -0.059 C 
ATOM     14  C   UNL     1       1.611 -10.936  -2.506  0.00  0.00    +0.088 C 
ATOM     15  H   UNL     1       1.549 -12.691  -4.433  0.00  0.00    -0.081 HD
ENDROOT
BRANCH   1  20
ATOM     16  C   UNL     1       0.606  -0.607  -1.056  0.00  0.00    +0.121 A 
ATOM     17  C   UNL     1       1.173   0.163  -2.063  0.00  0.00    +0.045 A 
ATOM     18  C   UNL     1       1.788  -0.446  -3.141  0.00  0.00    +0.004 A 
ATOM     19  C   UNL     1       1.842  -1.822  -3.223  0.00  0.00    +0.010 A 
ATOM     20  C   UNL     1       1.276  -2.604  -2.216  0.00  0.00    +0.007 A 
ATOM     21  C   UNL     1       0.660  -1.989  -1.126  0.00  0.00    +0.055 A 
BRANCH  16  23
ATOM     22  C   UNL     1      -0.017   1.425   0.010  0.00  0.00    +0.277 C 
ATOM     23  O   UNL     1       0.002  -0.004   0.002  0.00  0.00    -0.495 OA
ENDBRANCH  16  23
ENDBRANCH   1  20
BRANCH  12  24
ATOM     24  C   UNL     1       3.478 -13.234  -4.807  0.00  0.00    -0.068 C 
ATOM     25  C   UNL     1       3.195 -13.665  -6.247  0.00  0.00    -0.015 C 
ATOM     26  C   UNL     1       4.254 -14.675  -6.694  0.00  0.00    -0.002 C 
ATOM     27  C   UNL     1       4.211 -15.899  -5.777  0.00  0.00    -0.000 C 
ATOM     28  C   UNL     1       4.493 -15.468  -4.337  0.00  0.00    -0.002 C 
ATOM     29  C   UNL     1       3.434 -14.457  -3.890  0.00  0.00    -0.015 C 
ENDBRANCH  12  24
BRANCH   2  30
ATOM     30  N   UNL     1       1.124  -4.327  -4.742  0.00  0.00    -0.324 N 
ATOM     31  H   UNL     1       1.069  -3.371  -4.893  0.00  0.00    +0.148 HD
BRANCH  30  32
ATOM     32  C   UNL     1       1.063  -5.253  -5.876  0.00  0.00    +0.072 C 
ATOM     33  C   UNL     1       2.483  -5.609  -6.320  0.00  0.00    +0.022 C 
ATOM     34  C   UNL     1       2.420  -6.576  -7.505  0.00  0.00    +0.002 C 
ATOM     35  C   UNL     1       1.674  -5.913  -8.664  0.00  0.00    +0.000 C 
ATOM     36  C   UNL     1       0.254  -5.556  -8.220  0.00  0.00    +0.002 C 
ATOM     37  C   UNL     1       0.318  -4.590  -7.036  0.00  0.00    +0.022 C 
ENDBRANCH  30  32
ENDBRANCH   2  30
TORSDOF 5
