REMARK  Name = ZINC32721421
REMARK  15 active torsions:
REMARK  status: ('A' for Active; 'I' for Inactive)
REMARK    1  A    between atoms: C_1  and  C_2
REMARK    2  A    between atoms: C_4  and  C_24
REMARK    3  A    between atoms: C_6  and  C_23
REMARK    4  A    between atoms: C_7  and  C_8
REMARK    5  A    between atoms: C_8  and  C_9
REMARK    6  A    between atoms: C_9  and  N_10
REMARK    7  A    between atoms: C_11  and  C_13
REMARK    8  A    between atoms: C_13  and  C_15
REMARK    9  A    between atoms: C_13  and  N_19
REMARK   10  A    between atoms: C_15  and  C_16
REMARK   11  A    between atoms: C_16  and  C_17
REMARK   12  A    between atoms: C_16  and  C_18
REMARK   13  A    between atoms: C_24  and  C_25
REMARK   14  A    between atoms: C_24  and  C_26
REMARK   15  A    between atoms: C_24  and  C_27
REMARK                            x       y       z     vdW  Elec       q    Type
REMARK                         _______ _______ _______ _____ _____    ______ ____
ROOT
ATOM      1  N   UNL     1      -3.699  -0.219   1.682  0.00  0.00    -0.313 N 
ATOM      2  C   UNL     1      -2.511   0.246   1.246  0.00  0.00    +0.233 C 
ATOM      3  O   UNL     1      -1.493  -0.039   1.840  0.00  0.00    -0.274 OA
ATOM      4  H   UNL     1      -4.622   0.039   1.143  0.00  0.00    +0.149 HD
ENDROOT
BRANCH   1   5
ATOM      5  C   UNL     1      -3.759  -1.069   2.874  0.00  0.00    +0.109 C 
BRANCH   5   6
ATOM      6  C   UNL     1      -5.213  -1.457   3.151  0.00  0.00    +0.054 C 
BRANCH   6  13
ATOM      7  C   UNL     1      -5.016  -4.328   2.890  0.00  0.00    +0.044 C 
ATOM      8  C   UNL     1      -5.181  -3.704   4.252  0.00  0.00    -0.047 A 
ATOM      9  C   UNL     1      -5.233  -4.506   5.377  0.00  0.00    +0.007 A 
ATOM     10  C   UNL     1      -5.391  -3.935   6.626  0.00  0.00    -0.041 A 
ATOM     11  C   UNL     1      -5.490  -2.562   6.750  0.00  0.00    +0.007 A 
ATOM     12  C   UNL     1      -5.433  -1.760   5.625  0.00  0.00    -0.047 A 
ATOM     13  C   UNL     1      -5.276  -2.331   4.377  0.00  0.00    -0.040 A 
ATOM     14  C   UNL     1      -5.542  -0.263   5.761  0.00  0.00    +0.044 C 
BRANCH  10  15
ATOM     15  C   UNL     1      -5.453  -4.809   7.852  0.00  0.00    -0.013 C 
ATOM     16  C   UNL     1      -6.793  -4.598   8.560  0.00  0.00    +0.015 C 
ATOM     17  C   UNL     1      -5.319  -6.276   7.439  0.00  0.00    +0.015 C 
ATOM     18  C   UNL     1      -4.311  -4.439   8.800  0.00  0.00    +0.015 C 
ENDBRANCH  10  15
ENDBRANCH   6  13
ENDBRANCH   5   6
ENDBRANCH   1   5
BRANCH   2  19
ATOM     19  C   UNL     1      -2.449   1.120   0.020  0.00  0.00    +0.161 C 
BRANCH  19  20
ATOM     20  N   UNL     1      -1.191   1.870   0.018  0.00  0.00    -0.288 N 
ATOM     21  C   UNL     1      -0.014   1.212   0.009  0.00  0.00    +0.298 C 
ATOM     22  O   UNL     1       0.002  -0.004   0.002  0.00  0.00    -0.253 OA
ATOM     23  N   UNL     1       1.143   1.901   0.001  0.00  0.00    -0.313 N 
ATOM     24  H   UNL     1      -1.206   2.970   0.024  0.00  0.00    +0.151 HD
ATOM     25  H   UNL     1       2.103   1.364  -0.006  0.00  0.00    +0.146 HD
ATOM     26  H   UNL     1       1.129   3.001   0.003  0.00  0.00    +0.146 HD
ENDBRANCH  19  20
BRANCH  19  27
ATOM     27  C   UNL     1      -2.524   0.246  -1.234  0.00  0.00    +0.034 C 
BRANCH  27  28
ATOM     28  C   UNL     1      -2.587   1.139  -2.475  0.00  0.00    -0.015 C 
ATOM     29  C   UNL     1      -2.536   0.269  -3.732  0.00  0.00    +0.007 C 
ATOM     30  C   UNL     1      -3.890   1.940  -2.462  0.00  0.00    +0.007 C 
ENDBRANCH  27  28
ENDBRANCH  19  27
ENDBRANCH   2  19
TORSDOF 8
