REMARK  Name = ZINC14478112
REMARK  6 active torsions:
REMARK  status: ('A' for Active; 'I' for Inactive)
REMARK    1  A    between atoms: C_4  and  C_7
REMARK    2  A    between atoms: C_7  and  N_8
REMARK    3  A    between atoms: N_8  and  S_9
REMARK    4  A    between atoms: S_9  and  C_12
REMARK    5  A    between atoms: C_25  and  C_28
REMARK    6  A    between atoms: C_33  and  N_34
REMARK                            x       y       z     vdW  Elec       q    Type
REMARK                         _______ _______ _______ _____ _____    ______ ____
ROOT
ATOM      1  C   UNL     1      -1.429   2.841  -1.322  0.00  0.00    +0.106 A 
ATOM      2  C   UNL     1      -2.001   2.175  -2.391  0.00  0.00    +0.030 A 
ATOM      3  C   UNL     1      -2.120   2.812  -3.609  0.00  0.00    +0.025 A 
ATOM      4  C   UNL     1      -1.665   4.117  -3.759  0.00  0.00    +0.031 A 
ATOM      5  C   UNL     1      -1.091   4.786  -2.693  0.00  0.00    -0.018 A 
ATOM      6  C   UNL     1      -0.982   4.138  -1.469  0.00  0.00    +0.034 A 
ATOM      7  C   UNL     1      -0.583   6.208  -2.790  0.00  0.00    +0.049 C 
ATOM      8  C   UNL     1       0.909   6.165  -2.454  0.00  0.00    -0.023 C 
ATOM      9  C   UNL     1       1.627   6.113  -3.548  0.00  0.00    -0.030 C 
ATOM     10  C   UNL     1       0.730   6.105  -4.773  0.00  0.00    +0.033 C 
ATOM     11  C   UNL     1      -0.585   6.722  -4.241  0.00  0.00    +0.029 C 
ATOM     12  C   UNL     1      -1.780   6.215  -5.026  0.00  0.00    +0.107 C 
ATOM     13  N   UNL     1      -1.798   4.748  -5.001  0.00  0.00    -0.336 N 
ATOM     14  H   UNL     1      -1.898   4.233  -5.817  0.00  0.00    +0.147 HD
ENDROOT
BRANCH  12  15
ATOM     15  C   UNL     1      -3.049   6.743  -4.407  0.00  0.00    +0.003 A 
ATOM     16  C   UNL     1      -3.827   5.919  -3.616  0.00  0.00    +0.008 A 
ATOM     17  C   UNL     1      -4.988   6.405  -3.044  0.00  0.00    +0.000 A 
ATOM     18  C   UNL     1      -5.375   7.712  -3.271  0.00  0.00    +0.002 A 
ATOM     19  C   UNL     1      -4.600   8.535  -4.065  0.00  0.00    +0.033 A 
ATOM     20  C   UNL     1      -3.436   8.051  -4.633  0.00  0.00    +0.131 A 
BRANCH  20  21
ATOM     21  N   UNL     1      -2.605   8.932  -5.485  0.00  0.00    +0.057 N 
ATOM     22  O   UNL     1      -2.890  10.110  -5.601  0.00  0.00    -0.126 OA
ATOM     23  O   UNL     1      -1.637   8.478  -6.068  0.00  0.00    -0.126 OA
ENDBRANCH  20  21
ENDBRANCH  12  15
BRANCH   1  24
ATOM     24  S   UNL     1      -1.277   2.032   0.236  0.00  0.00    +0.059 S 
ATOM     25  O   UNL     1      -2.270   1.016   0.265  0.00  0.00    -0.153 OA
ATOM     26  O   UNL     1      -1.205   3.055   1.220  0.00  0.00    -0.153 OA
BRANCH  24  27
ATOM     27  N   UNL     1       0.189   1.262   0.247  0.00  0.00    -0.186 NA
ATOM     28  H   UNL     1       0.228   0.293   0.286  0.00  0.00    +0.148 HD
BRANCH  27  29
ATOM     29  C   UNL     1       1.427   2.043   0.191  0.00  0.00    +0.141 C 
BRANCH  29  33
ATOM     30  C   UNL     1       4.729  -0.442   1.274  0.00  0.00    +0.000 A 
ATOM     31  C   UNL     1       4.337  -0.350  -0.049  0.00  0.00    +0.000 A 
ATOM     32  C   UNL     1       3.269   0.454  -0.399  0.00  0.00    +0.005 A 
ATOM     33  C   UNL     1       2.592   1.166   0.573  0.00  0.00    -0.032 A 
ATOM     34  C   UNL     1       2.986   1.077   1.895  0.00  0.00    +0.005 A 
ATOM     35  C   UNL     1       4.051   0.270   2.246  0.00  0.00    +0.000 A 
ENDBRANCH  29  33
ENDBRANCH  27  29
ENDBRANCH  24  27
ENDBRANCH   1  24
TORSDOF 6
