REMARK  Name = ZINC05002469
REMARK  5 active torsions:
REMARK  status: ('A' for Active; 'I' for Inactive)
REMARK    1  A    between atoms: C_1  and  C_2
REMARK    2  A    between atoms: C_2  and  C_8
REMARK    3  A    between atoms: N_3  and  N_4
REMARK    4  A    between atoms: N_4  and  C_5
REMARK    5  A    between atoms: C_5  and  N_7
REMARK                            x       y       z     vdW  Elec       q    Type
REMARK                         _______ _______ _______ _____ _____    ______ ____
ROOT
ATOM      1  C   UNL     1      -1.821   3.728   0.237  0.00  0.00    +0.001 A 
ATOM      2  C   UNL     1      -2.589   4.267  -0.803  0.00  0.00    +0.013 A 
ATOM      3  C   UNL     1      -3.570   3.499  -1.401  0.00  0.00    -0.046 A 
ATOM      4  C   UNL     1      -3.917   2.276  -0.845  0.00  0.00    +0.004 A 
ATOM      5  C   UNL     1      -3.161   1.736   0.185  0.00  0.00    +0.004 A 
ATOM      6  C   UNL     1      -2.051   2.413   0.649  0.00  0.00    -0.038 A 
ATOM      7  C   UNL     1      -0.980   1.657   1.415  0.00  0.00    +0.040 C 
ATOM      8  C   UNL     1      -0.138   1.005   0.273  0.00  0.00    +0.040 C 
ATOM      9  C   UNL     1      -0.828   1.496  -0.982  0.00  0.00    -0.047 A 
ATOM     10  C   UNL     1      -1.803   0.729  -1.599  0.00  0.00    +0.004 A 
ATOM     11  C   UNL     1      -2.560   1.268  -2.628  0.00  0.00    +0.004 A 
ATOM     12  C   UNL     1      -2.345   2.574  -3.025  0.00  0.00    -0.047 A 
ATOM     13  C   UNL     1      -1.244   3.265  -2.550  0.00  0.00    +0.004 A 
ATOM     14  C   UNL     1      -0.489   2.728  -1.521  0.00  0.00    +0.004 A 
ATOM     15  C   UNL     1      -3.418   3.322  -3.795  0.00  0.00    +0.040 C 
ATOM     16  C   UNL     1      -4.264   3.980  -2.659  0.00  0.00    +0.040 C 
ENDROOT
BRANCH   1  18
ATOM     17  C   UNL     1       0.672   4.156   0.758  0.00  0.00    +0.068 C 
ATOM     18  C   UNL     1      -0.779   4.541   0.891  0.00  0.00    +0.064 C 
ATOM     19  N   UNL     1      -1.111   5.588   1.582  0.00  0.00    -0.185 NA
BRANCH  19  20
ATOM     20  N   UNL     1      -2.463   5.880   1.805  0.00  0.00    -0.218 N 
ATOM     21  H   UNL     1      -3.148   5.261   1.509  0.00  0.00    +0.176 HD
BRANCH  20  22
ATOM     22  C   UNL     1      -2.812   7.021   2.431  0.00  0.00    +0.147 C 
ATOM     23  S   UNL     1      -4.464   7.378   2.704  0.00  0.00    -0.017 S 
BRANCH  22  24
ATOM     24  N   UNL     1      -1.860   7.882   2.843  0.00  0.00    -0.339 N 
ATOM     25  H   UNL     1      -0.924   7.680   2.689  0.00  0.00    +0.144 HD
ATOM     26  H   UNL     1      -2.111   8.704   3.294  0.00  0.00    +0.144 HD
ENDBRANCH  22  24
ENDBRANCH  20  22
ENDBRANCH  19  20
ENDBRANCH   1  18
TORSDOF 4
