REMARK  Name = ZINC12475359
REMARK  10 active torsions:
REMARK  status: ('A' for Active; 'I' for Inactive)
REMARK    1  A    between atoms: C_1  and  C_2
REMARK    2  A    between atoms: C_2  and  C_4
REMARK    3  A    between atoms: C_9  and  N_10
REMARK    4  A    between atoms: N_10  and  C_11
REMARK    5  A    between atoms: C_11  and  C_13
REMARK    6  A    between atoms: C_11  and  C_20
REMARK    7  A    between atoms: C_16  and  O_19
REMARK    8  A    between atoms: N_22  and  C_23
REMARK    9  A    between atoms: C_29  and  C_31
REMARK   10  A    between atoms: C_31  and  C_32
REMARK                            x       y       z     vdW  Elec       q    Type
REMARK                         _______ _______ _______ _____ _____    ______ ____
ROOT
ATOM      1  N   UNL     1      -0.187   1.693  -0.956  0.00  0.00    -0.254 N 
ATOM      2  C   UNL     1       0.768   2.607  -1.221  0.00  0.00    +0.225 C 
ATOM      3  O   UNL     1       0.744   3.687  -0.669  0.00  0.00    -0.275 OA
ENDROOT
BRANCH   1   9
ATOM      4  C   UNL     1      -0.866   0.260  -2.789  0.00  0.00    +0.039 A 
ATOM      5  C   UNL     1      -0.826  -0.991  -3.418  0.00  0.00    +0.013 A 
ATOM      6  C   UNL     1      -0.106  -2.020  -2.854  0.00  0.00    +0.001 A 
ATOM      7  C   UNL     1       0.585  -1.824  -1.669  0.00  0.00    +0.002 A 
ATOM      8  C   UNL     1       0.560  -0.596  -1.038  0.00  0.00    +0.024 A 
ATOM      9  C   UNL     1      -0.160   0.455  -1.590  0.00  0.00    +0.048 A 
BRANCH   4  11
ATOM     10  C   UNL     1      -2.487   1.114  -4.601  0.00  0.00    +0.091 C 
ATOM     11  C   UNL     1      -1.637   1.360  -3.381  0.00  0.00    +0.162 C 
ATOM     12  O   UNL     1      -1.589   2.467  -2.888  0.00  0.00    -0.292 OA
ENDBRANCH   4  11
ENDBRANCH   1   9
BRANCH   1  13
ATOM     13  C   UNL     1      -1.256   2.006  -0.005  0.00  0.00    +0.197 C 
BRANCH  13  14
ATOM     14  C   UNL     1      -0.682   2.089   1.386  0.00  0.00    -0.018 A 
ATOM     15  C   UNL     1       0.159   1.093   1.847  0.00  0.00    +0.009 A 
ATOM     16  C   UNL     1       0.691   1.170   3.119  0.00  0.00    +0.046 A 
ATOM     17  C   UNL     1       0.371   2.242   3.940  0.00  0.00    +0.117 A 
ATOM     18  C   UNL     1      -0.478   3.237   3.478  0.00  0.00    +0.046 A 
ATOM     19  C   UNL     1      -1.002   3.159   2.202  0.00  0.00    +0.009 A 
BRANCH  17  20
ATOM     20  O   UNL     1       0.888   2.316   5.195  0.00  0.00    -0.507 OA
ATOM     21  H   UNL     1       0.343   1.891   5.871  0.00  0.00    +0.292 HD
ENDBRANCH  17  20
ENDBRANCH  13  14
BRANCH  13  22
ATOM     22  C   UNL     1      -2.303   0.923  -0.052  0.00  0.00    +0.239 C 
ATOM     23  O   UNL     1      -1.969  -0.242  -0.086  0.00  0.00    -0.273 OA
ATOM     24  N   UNL     1      -3.611   1.250  -0.056  0.00  0.00    -0.311 N 
ATOM     25  H   UNL     1      -3.877   2.182  -0.029  0.00  0.00    +0.149 HD
BRANCH  24  26
ATOM     26  C   UNL     1      -4.628   0.198  -0.102  0.00  0.00    +0.073 C 
ATOM     27  C   UNL     1      -4.876  -0.209  -1.556  0.00  0.00    +0.022 C 
ATOM     28  C   UNL     1      -5.939  -1.308  -1.605  0.00  0.00    +0.002 C 
ATOM     29  C   UNL     1      -7.241  -0.786  -0.992  0.00  0.00    +0.000 C 
ATOM     30  C   UNL     1      -6.993  -0.380   0.462  0.00  0.00    +0.002 C 
ATOM     31  C   UNL     1      -5.930   0.720   0.510  0.00  0.00    +0.022 C 
ENDBRANCH  24  26
ENDBRANCH  13  22
ENDBRANCH   1  13
BRANCH   2  32
ATOM     32  C   UNL     1       1.864   2.288  -2.205  0.00  0.00    +0.133 C 
BRANCH  32  33
ATOM     33  C   UNL     1       2.795   3.468  -2.320  0.00  0.00    -0.014 A 
ATOM     34  C   UNL     1       2.742   4.438  -3.246  0.00  0.00    +0.087 A 
ATOM     35  N   UNL     1       3.748   5.341  -3.033  0.00  0.00    -0.360 N 
ATOM     36  H   UNL     1       3.912   6.131  -3.572  0.00  0.00    +0.165 HD
ATOM     37  C   UNL     1       4.496   4.960  -1.942  0.00  0.00    +0.047 A 
ATOM     38  C   UNL     1       3.932   3.769  -1.448  0.00  0.00    +0.003 A 
ATOM     39  C   UNL     1       4.490   3.146  -0.330  0.00  0.00    +0.010 A 
ATOM     40  C   UNL     1       5.583   3.695   0.279  0.00  0.00    +0.001 A 
ATOM     41  C   UNL     1       6.143   4.869  -0.205  0.00  0.00    +0.002 A 
ATOM     42  C   UNL     1       5.609   5.501  -1.306  0.00  0.00    +0.026 A 
ENDBRANCH  32  33
ENDBRANCH   2  32
TORSDOF 9
