REMARK  Name = ZINC63362894
REMARK  14 active torsions:
REMARK  status: ('A' for Active; 'I' for Inactive)
REMARK    1  A    between atoms: C_1  and  C_2
REMARK    2  A    between atoms: C_2  and  C_3
REMARK    3  A    between atoms: C_2  and  C_4
REMARK    4  A    between atoms: C_2  and  O_5
REMARK    5  A    between atoms: O_5  and  C_6
REMARK    6  A    between atoms: N_8  and  C_9
REMARK    7  A    between atoms: C_9  and  C_11
REMARK    8  A    between atoms: C_9  and  C_21
REMARK    9  A    between atoms: C_11  and  C_12
REMARK   10  A    between atoms: C_26  and  C_29
REMARK   11  A    between atoms: N_31  and  C_32
REMARK   12  A    between atoms: C_32  and  C_33
REMARK   13  A    between atoms: C_36  and  C_38
REMARK   14  A    between atoms: C_38  and  O_39
REMARK                            x       y       z     vdW  Elec       q    Type
REMARK                         _______ _______ _______ _____ _____    ______ ____
ROOT
ATOM      1  C   UNL     1       4.859  -0.573  -1.444  0.00  0.00    +0.236 C 
ATOM      2  O   UNL     1       4.318  -0.883  -0.404  0.00  0.00    -0.274 OA
ATOM      3  N   UNL     1       6.197  -0.678  -1.564  0.00  0.00    -0.300 N 
ATOM      4  C   UNL     1       6.868  -0.300  -2.816  0.00  0.00    +0.108 C 
ATOM      5  C   UNL     1       7.733  -1.474  -3.285  0.00  0.00    +0.032 C 
ATOM      6  C   UNL     1       8.686  -1.882  -2.160  0.00  0.00    +0.078 C 
ATOM      7  C   UNL     1       7.877  -2.335  -0.942  0.00  0.00    +0.032 C 
ATOM      8  C   UNL     1       7.014  -1.165  -0.445  0.00  0.00    +0.108 C 
ENDROOT
BRANCH   6   9
ATOM      9  C   UNL     1       9.562  -3.014  -2.629  0.00  0.00    +0.217 C 
ATOM     10  O   UNL     1       9.437  -3.452  -3.753  0.00  0.00    -0.276 OA
ATOM     11  N   UNL     1      10.486  -3.541  -1.800  0.00  0.00    -0.306 N 
ATOM     12  H   UNL     1      10.586  -3.191  -0.901  0.00  0.00    +0.149 HD
BRANCH  11  13
ATOM     13  C   UNL     1      11.338  -4.642  -2.257  0.00  0.00    +0.200 C 
BRANCH  13  14
ATOM     14  C   UNL     1      12.276  -5.043  -1.149  0.00  0.00    +0.236 C 
ATOM     15  O   UNL     1      12.238  -4.467  -0.083  0.00  0.00    -0.274 OA
ATOM     16  N   UNL     1      13.159  -6.043  -1.343  0.00  0.00    -0.253 N 
ATOM     17  C   UNL     1      13.999  -6.403  -0.352  0.00  0.00    +0.245 C 
ATOM     18  O   UNL     1      13.960  -5.827   0.714  0.00  0.00    -0.273 OA
ATOM     19  H   UNL     1      13.190  -6.505  -2.196  0.00  0.00    +0.158 HD
BRANCH  17  20
ATOM     20  C   UNL     1      14.986  -7.521  -0.569  0.00  0.00    +0.251 C 
BRANCH  20  21
ATOM     21  O   UNL     1      15.757  -7.712   0.619  0.00  0.00    -0.386 OA
ATOM     22  H   UNL     1      16.415  -8.418   0.551  0.00  0.00    +0.210 HD
ENDBRANCH  20  21
ENDBRANCH  17  20
ENDBRANCH  13  14
ENDBRANCH  11  13
ENDBRANCH   6   9
BRANCH   1  23
ATOM     23  C   UNL     1       4.035  -0.071  -2.601  0.00  0.00    +0.166 C 
BRANCH  23  26
ATOM     24  C   UNL     1       1.952  -0.085  -1.337  0.00  0.00    +0.401 C 
ATOM     25  O   UNL     1       2.488   0.619  -0.503  0.00  0.00    -0.226 OA
ATOM     26  N   UNL     1       2.641  -0.485  -2.424  0.00  0.00    -0.269 N 
ATOM     27  H   UNL     1       2.213  -1.047  -3.089  0.00  0.00    +0.153 HD
BRANCH  24  28
ATOM     28  O   UNL     1       0.671  -0.465  -1.174  0.00  0.00    -0.445 OA
BRANCH  28  30
ATOM     29  C   UNL     1      -0.019   1.526   0.010  0.00  0.00    +0.055 C 
ATOM     30  C   UNL     1       0.002  -0.004   0.002  0.00  0.00    +0.107 C 
ATOM     31  C   UNL     1       0.742  -0.511   1.242  0.00  0.00    +0.055 C 
ATOM     32  C   UNL     1      -1.433  -0.534   0.013  0.00  0.00    +0.055 C 
ENDBRANCH  28  30
ENDBRANCH  24  28
ENDBRANCH  23  26
BRANCH  23  33
ATOM     33  C   UNL     1       4.111   1.456  -2.657  0.00  0.00    +0.065 C 
BRANCH  33  34
ATOM     34  C   UNL     1       3.389   1.950  -3.884  0.00  0.00    -0.039 C 
ATOM     35  C   UNL     1       2.108   2.377  -3.958  0.00  0.00    -0.001 A 
ATOM     36  C   UNL     1       1.043   2.502  -2.955  0.00  0.00    +0.010 A 
ATOM     37  C   UNL     1      -0.167   2.972  -3.338  0.00  0.00    +0.001 A 
ATOM     38  C   UNL     1      -0.428   3.340  -4.665  0.00  0.00    +0.002 A 
ATOM     39  C   UNL     1       0.500   3.252  -5.642  0.00  0.00    +0.026 A 
ATOM     40  C   UNL     1       1.807   2.772  -5.352  0.00  0.00    +0.043 A 
ATOM     41  N   UNL     1       2.861   2.597  -6.111  0.00  0.00    -0.380 N 
ATOM     42  C   UNL     1       3.953   2.076  -5.282  0.00  0.00    +0.144 C 
ATOM     43  H   UNL     1       2.912   2.785  -7.061  0.00  0.00    +0.160 HD
ENDBRANCH  33  34
ENDBRANCH  23  33
ENDBRANCH   1  23
TORSDOF 11
