REMARK  Name = ZINC35229549
REMARK  5 active torsions:
REMARK  status: ('A' for Active; 'I' for Inactive)
REMARK    1  A    between atoms: C_1  and  C_2
REMARK    2  A    between atoms: C_2  and  C_4
REMARK    3  A    between atoms: C_2  and  N_14
REMARK    4  A    between atoms: N_14  and  C_15
REMARK    5  A    between atoms: C_15  and  C_16
REMARK                            x       y       z     vdW  Elec       q    Type
REMARK                         _______ _______ _______ _____ _____    ______ ____
ROOT
ATOM      1  C   UNL     1      -0.019   1.526   0.010  0.00  0.00    -0.006 C 
ATOM      2  C   UNL     1       0.002  -0.004   0.002  0.00  0.00    -0.005 C 
ENDROOT
BRANCH   2   3
ATOM      3  C   UNL     1      -1.412  -0.526   0.013  0.00  0.00    +0.119 A 
ATOM      4  N   UNL     1      -2.242  -0.539  -0.997  0.00  0.00    -0.136 NA
ATOM      5  N   UNL     1      -3.360  -1.063  -0.632  0.00  0.00    -0.134 NA
ATOM      6  C   UNL     1      -3.290  -1.410   0.621  0.00  0.00    +0.133 A 
ATOM      7  N   UNL     1      -2.057  -1.073   1.066  0.00  0.00    -0.316 N 
ATOM      8  C   UNL     1      -1.542  -1.253   2.424  0.00  0.00    +0.124 C 
ATOM      9  C   UNL     1      -2.241  -2.447   3.079  0.00  0.00    +0.022 C 
ATOM     10  C   UNL     1      -3.510  -1.975   3.788  0.00  0.00    +0.002 C 
ATOM     11  C   UNL     1      -4.484  -1.359   2.787  0.00  0.00    +0.008 C 
ATOM     12  C   UNL     1      -4.364  -2.074   1.444  0.00  0.00    +0.076 C 
ENDBRANCH   2   3
BRANCH   2  13
ATOM     13  N   UNL     1       0.690  -0.478  -1.207  0.00  0.00    +0.388 N 
ATOM     14  H   UNL     1       0.632  -1.484  -1.254  0.00  0.00    -0.084 HD
ATOM     15  H   UNL     1       0.251  -0.077  -2.022  0.00  0.00    -0.084 HD
BRANCH  13  16
ATOM     16  C   UNL     1       2.100  -0.070  -1.159  0.00  0.00    -0.046 C 
BRANCH  16  17
ATOM     17  C   UNL     1       2.806  -0.556  -2.399  0.00  0.00    -0.063 A 
ATOM     18  C   UNL     1       3.401  -1.804  -2.411  0.00  0.00    +0.002 A 
ATOM     19  C   UNL     1       4.048  -2.250  -3.548  0.00  0.00    +0.001 A 
ATOM     20  C   UNL     1       4.100  -1.449  -4.673  0.00  0.00    +0.015 A 
ATOM     21  C   UNL     1       3.505  -0.201  -4.662  0.00  0.00    +0.018 A 
ATOM     22  C   UNL     1       2.852   0.243  -3.525  0.00  0.00    +0.017 A 
ATOM     23 BR   UNL     1       3.576   0.896  -6.200  0.00  0.00    -0.050 Br
ENDBRANCH  16  17
ENDBRANCH  13  16
ENDBRANCH   2  13
TORSDOF 4
