REMARK  Name = ZINC39636941
REMARK  12 active torsions:
REMARK  status: ('A' for Active; 'I' for Inactive)
REMARK    1  A    between atoms: C_1  and  O_2
REMARK    2  A    between atoms: O_2  and  C_3
REMARK    3  A    between atoms: C_5  and  C_13
REMARK    4  A    between atoms: C_7  and  O_11
REMARK    5  A    between atoms: C_8  and  O_9
REMARK    6  A    between atoms: O_9  and  C_10
REMARK    7  A    between atoms: O_11  and  C_12
REMARK    8  A    between atoms: C_13  and  N_14
REMARK    9  A    between atoms: C_15  and  C_17
REMARK   10  A    between atoms: C_28  and  C_30
REMARK   11  A    between atoms: C_30  and  C_31
REMARK   12  A    between atoms: C_31  and  C_32
REMARK                            x       y       z     vdW  Elec       q    Type
REMARK                         _______ _______ _______ _____ _____    ______ ____
ROOT
ATOM      1  C   UNL     1       5.997   1.689  -4.403  0.00  0.00    +0.100 C 
ATOM      2  C   UNL     1       6.086   2.623  -3.175  0.00  0.00    +0.121 C 
ATOM      3  N   UNL     1       7.231   3.518  -3.468  0.00  0.00    -0.300 N 
ATOM      4  C   UNL     1       7.110   3.809  -4.917  0.00  0.00    +0.115 C 
ATOM      5  C   UNL     1       6.669   2.471  -5.544  0.00  0.00    -0.004 C 
ATOM      6  C   UNL     1       5.672   2.721  -6.672  0.00  0.00    -0.010 C 
ATOM      7  C   UNL     1       6.378   3.449  -7.819  0.00  0.00    -0.082 C 
ATOM      8  N   UNL     1       7.500   2.633  -8.302  0.00  0.00    +0.379 N 
ATOM      9  C   UNL     1       8.498   2.476  -7.238  0.00  0.00    -0.082 C 
ATOM     10  C   UNL     1       7.882   1.707  -6.066  0.00  0.00    -0.010 C 
ATOM     11  C   UNL     1       8.169   3.966  -2.611  0.00  0.00    +0.216 C 
ATOM     12  O   UNL     1       9.050   4.700  -3.007  0.00  0.00    -0.276 OA
ATOM     13  H   UNL     1       7.159   1.725  -8.578  0.00  0.00    -0.086 HD
ATOM     14  H   UNL     1       7.925   3.086  -9.097  0.00  0.00    -0.086 HD
ENDROOT
BRANCH   1  16
ATOM     15  N   UNL     1       4.223   0.242  -5.338  0.00  0.00    -0.311 N 
ATOM     16  C   UNL     1       4.556   1.403  -4.740  0.00  0.00    +0.218 C 
ATOM     17  O   UNL     1       3.698   2.217  -4.474  0.00  0.00    -0.275 OA
ATOM     18  H   UNL     1       4.909  -0.409  -5.551  0.00  0.00    +0.149 HD
BRANCH  15  19
ATOM     19  C   UNL     1       2.822  -0.037  -5.666  0.00  0.00    +0.139 C 
BRANCH  19  22
ATOM     20  C   UNL     1       2.427  -3.764  -6.150  0.00  0.00    +0.165 A 
ATOM     21  C   UNL     1       2.523  -2.518  -5.550  0.00  0.00    +0.054 A 
ATOM     22  C   UNL     1       2.720  -1.389  -6.323  0.00  0.00    -0.023 A 
ATOM     23  C   UNL     1       2.822  -1.498  -7.697  0.00  0.00    +0.054 A 
ATOM     24  C   UNL     1       2.728  -2.740  -8.305  0.00  0.00    +0.165 A 
ATOM     25  C   UNL     1       2.536  -3.878  -7.531  0.00  0.00    +0.204 A 
BRANCH  20  27
ATOM     26  C   UNL     1       2.131  -4.682  -3.976  0.00  0.00    +0.277 C 
ATOM     27  O   UNL     1       2.234  -4.874  -5.388  0.00  0.00    -0.491 OA
ENDBRANCH  20  27
BRANCH  25  28
ATOM     28  O   UNL     1       2.448  -5.100  -8.123  0.00  0.00    -0.488 OA
ATOM     29  C   UNL     1       1.146  -5.539  -8.517  0.00  0.00    +0.277 C 
ENDBRANCH  25  28
BRANCH  24  30
ATOM     30  O   UNL     1       2.829  -2.846  -9.657  0.00  0.00    -0.491 OA
ATOM     31  C   UNL     1       3.031  -1.636 -10.389  0.00  0.00    +0.277 C 
ENDBRANCH  24  30
ENDBRANCH  19  22
ENDBRANCH  15  19
ENDBRANCH   1  16
BRANCH  11  32
ATOM     32  C   UNL     1       8.125   3.555  -1.162  0.00  0.00    +0.100 C 
BRANCH  32  33
ATOM     33  C   UNL     1       9.294   4.197  -0.414  0.00  0.00    +0.044 C 
BRANCH  33  34
ATOM     34  C   UNL     1       9.250   3.786   1.035  0.00  0.00    -0.047 A 
ATOM     35  C   UNL     1       8.543   4.547   1.948  0.00  0.00    +0.003 A 
ATOM     36  C   UNL     1       8.502   4.170   3.277  0.00  0.00    +0.000 A 
ATOM     37  C   UNL     1       9.167   3.032   3.694  0.00  0.00    +0.000 A 
ATOM     38  C   UNL     1       9.873   2.271   2.781  0.00  0.00    +0.000 A 
ATOM     39  C   UNL     1       9.911   2.646   1.451  0.00  0.00    +0.003 A 
ENDBRANCH  33  34
ENDBRANCH  32  33
ENDBRANCH  11  32
TORSDOF 9
