REMARK  Name = ZINC09119379
REMARK  11 active torsions:
REMARK  status: ('A' for Active; 'I' for Inactive)
REMARK    1  A    between atoms: C_1  and  C_2
REMARK    2  A    between atoms: C_2  and  N_3
REMARK    3  A    between atoms: N_3  and  C_4
REMARK    4  A    between atoms: N_3  and  S_10
REMARK    5  A    between atoms: S_10  and  C_13
REMARK    6  A    between atoms: C_17  and  N_19
REMARK    7  A    between atoms: C_20  and  C_22
REMARK    8  A    between atoms: C_22  and  N_57
REMARK    9  A    between atoms: C_23  and  C_25
REMARK   10  A    between atoms: C_23  and  C_26
REMARK   11  A    between atoms: C_23  and  N_57
REMARK                            x       y       z     vdW  Elec       q    Type
REMARK                         _______ _______ _______ _____ _____    ______ ____
ROOT
ATOM      1  C   UNL     1       5.852   0.846   0.502  0.00  0.00    +0.111 A 
ATOM      2  C   UNL     1       5.512   2.134   0.871  0.00  0.00    +0.030 A 
ATOM      3  C   UNL     1       6.223   2.783   1.863  0.00  0.00    +0.024 A 
ATOM      4  C   UNL     1       7.284   2.149   2.482  0.00  0.00    +0.062 A 
ATOM      5  C   UNL     1       7.632   0.857   2.109  0.00  0.00    +0.054 A 
ATOM      6  C   UNL     1       6.911   0.206   1.116  0.00  0.00    +0.053 A 
ATOM      7 CL   UNL     1       8.181   2.967   3.723  0.00  0.00    -0.082 Cl
ENDROOT
BRANCH   5   8
ATOM      8  N   UNL     1       8.706   0.211   2.733  0.00  0.00    -0.286 N 
ATOM      9  C   UNL     1       9.359  -0.780   2.095  0.00  0.00    +0.200 C 
ATOM     10  O   UNL     1       9.082  -1.047   0.945  0.00  0.00    -0.278 OA
ATOM     11  H   UNL     1       8.979   0.477   3.625  0.00  0.00    +0.155 HD
BRANCH   9  12
ATOM     12  C   UNL     1      10.435  -1.556   2.811  0.00  0.00    +0.016 C 
BRANCH  12  13
ATOM     13  N   UNL     1      10.986  -2.574   1.896  0.00  0.00    +0.389 N 
ATOM     14  H   UNL     1      11.382  -2.109   1.071  0.00  0.00    -0.084 HD
ATOM     15  H   UNL     1      10.234  -3.209   1.603  0.00  0.00    -0.084 HD
BRANCH  13  16
ATOM     16  C   UNL     1      12.043  -3.350   2.571  0.00  0.00    -0.043 C 
ATOM     17  C   UNL     1      11.408  -4.496   3.363  0.00  0.00    -0.009 C 
BRANCH  16  18
ATOM     18  C   UNL     1      12.980  -3.915   1.535  0.00  0.00    -0.062 A 
ATOM     19  C   UNL     1      12.478  -4.418   0.350  0.00  0.00    +0.002 A 
ATOM     20  C   UNL     1      13.339  -4.931  -0.603  0.00  0.00    +0.000 A 
ATOM     21  C   UNL     1      14.700  -4.951  -0.365  0.00  0.00    +0.000 A 
ATOM     22  C   UNL     1      15.202  -4.453   0.823  0.00  0.00    +0.000 A 
ATOM     23  C   UNL     1      14.342  -3.935   1.773  0.00  0.00    +0.002 A 
ENDBRANCH  16  18
ENDBRANCH  13  16
ENDBRANCH  12  13
ENDBRANCH   9  12
ENDBRANCH   5   8
BRANCH   1  24
ATOM     24  S   UNL     1       4.937   0.021  -0.758  0.00  0.00    +0.075 S 
ATOM     25  O   UNL     1       5.767  -1.025  -1.244  0.00  0.00    -0.150 OA
ATOM     26  O   UNL     1       4.412   1.032  -1.607  0.00  0.00    -0.150 OA
BRANCH  24  27
ATOM     27  N   UNL     1       3.640  -0.704  -0.027  0.00  0.00    -0.203 N 
BRANCH  27  28
ATOM     28  C   UNL     1       2.400  -0.063  -0.009  0.00  0.00    +0.051 A 
ATOM     29  C   UNL     1       1.232  -0.808   0.089  0.00  0.00    +0.025 A 
ATOM     30  C   UNL     1       0.007  -0.171   0.106  0.00  0.00    +0.002 A 
ATOM     31  C   UNL     1      -0.058   1.208   0.025  0.00  0.00    +0.000 A 
ATOM     32  C   UNL     1       1.103   1.953  -0.073  0.00  0.00    +0.002 A 
ATOM     33  C   UNL     1       2.331   1.322  -0.091  0.00  0.00    +0.025 A 
ENDBRANCH  27  28
BRANCH  27  35
ATOM     34  C   UNL     1       3.381  -3.109  -0.389  0.00  0.00    +0.026 C 
ATOM     35  C   UNL     1       3.795  -2.019   0.601  0.00  0.00    +0.128 C 
ENDBRANCH  27  35
ENDBRANCH  24  27
ENDBRANCH   1  24
TORSDOF 9
