REMARK  Name = ZINC55024164
REMARK  6 active torsions:
REMARK  status: ('A' for Active; 'I' for Inactive)
REMARK    1  A    between atoms: C_1  and  C_2
REMARK    2  A    between atoms: C_7  and  S_9
REMARK    3  A    between atoms: S_9  and  C_10
REMARK    4  A    between atoms: C_10  and  C_12
REMARK    5  A    between atoms: C_10  and  C_16
REMARK    6  A    between atoms: C_12  and  C_13
REMARK                            x       y       z     vdW  Elec       q    Type
REMARK                         _______ _______ _______ _____ _____    ______ ____
ROOT
ATOM      1  C   UNL     1      -0.946   3.201  -6.170  0.00  0.00    +0.091 C 
ENDROOT
BRANCH   1   2
ATOM      2  C   UNL     1      -0.351   3.254  -7.553  0.00  0.00    -0.034 A 
ATOM      3  C   UNL     1       0.757   4.043  -7.798  0.00  0.00    +0.005 A 
ATOM      4  C   UNL     1       1.304   4.092  -9.067  0.00  0.00    +0.000 A 
ATOM      5  C   UNL     1       0.742   3.353 -10.091  0.00  0.00    +0.000 A 
ATOM      6  C   UNL     1      -0.366   2.563  -9.845  0.00  0.00    +0.000 A 
ATOM      7  C   UNL     1      -0.910   2.510  -8.576  0.00  0.00    +0.005 A 
ENDBRANCH   1   2
BRANCH   1   8
ATOM      8  S   UNL     1       0.299   2.594  -4.999  0.00  0.00    -0.077 S 
BRANCH   8  15
ATOM      9  C   UNL     1       2.736  -1.875  -4.462  0.00  0.00    +0.066 C 
ATOM     10  C   UNL     1       1.677  -1.071  -5.173  0.00  0.00    +0.046 A 
ATOM     11  C   UNL     1       0.913  -1.649  -6.169  0.00  0.00    +0.095 A 
ATOM     12  C   UNL     1      -0.056  -0.870  -6.801  0.00  0.00    +0.274 A 
ATOM     13  O   UNL     1      -0.828  -1.396  -7.783  0.00  0.00    -0.266 OA
ATOM     14  N   UNL     1      -0.213   0.394  -6.426  0.00  0.00    -0.183 NA
ATOM     15  C   UNL     1       0.539   0.912  -5.466  0.00  0.00    +0.192 A 
ATOM     16  N   UNL     1       1.464   0.194  -4.845  0.00  0.00    -0.227 NA
ENDBRANCH   8  15
ENDBRANCH   1   8
BRANCH   1  17
ATOM     17  C   UNL     1      -1.397   4.602  -5.754  0.00  0.00    +0.088 C 
BRANCH  17  18
ATOM     18  C   UNL     1      -2.117   4.527  -4.432  0.00  0.00    +0.064 C 
ATOM     19  N   UNL     1      -3.433   4.412  -4.402  0.00  0.00    -0.391 N 
ATOM     20  N   UNL     1      -1.432   4.576  -3.303  0.00  0.00    -0.348 N 
ATOM     21  H   UNL     1      -3.903   4.436  -3.553  0.00  0.00    +0.157 HD
ATOM     22  H   UNL     1      -0.466   4.661  -3.325  0.00  0.00    +0.143 HD
ATOM     23  H   UNL     1      -1.895   4.528  -2.452  0.00  0.00    +0.143 HD
ATOM     24  H   UNL     1      -3.930   4.302  -5.228  0.00  0.00    +0.157 HD
ENDBRANCH  17  18
ENDBRANCH   1  17
TORSDOF 5
