REMARK  Name = ZINC12736383
REMARK  5 active torsions:
REMARK  status: ('A' for Active; 'I' for Inactive)
REMARK    1  A    between atoms: C_1  and  C_2
REMARK    2  A    between atoms: C_3  and  N_9
REMARK    3  A    between atoms: C_10  and  C_12
REMARK    4  A    between atoms: C_12  and  N_13
REMARK    5  A    between atoms: C_14  and  C_16
REMARK                            x       y       z     vdW  Elec       q    Type
REMARK                         _______ _______ _______ _____ _____    ______ ____
ROOT
ATOM      1  N   UNL     1      -0.690   1.976   1.223  0.00  0.00    -0.306 N 
ATOM      2  C   UNL     1      -0.820   3.298   1.450  0.00  0.00    +0.221 C 
ATOM      3  O   UNL     1      -0.370   4.096   0.655  0.00  0.00    -0.275 OA
ATOM      4  H   UNL     1      -1.049   1.337   1.859  0.00  0.00    +0.149 HD
ENDROOT
BRANCH   2   5
ATOM      5  C   UNL     1      -1.524   3.784   2.690  0.00  0.00    +0.115 C 
ATOM      6  C   UNL     1      -2.962   3.264   2.697  0.00  0.00    +0.113 C 
ATOM      7  C   UNL     1      -3.771   3.979   1.649  0.00  0.00    +0.218 C 
ATOM      8  O   UNL     1      -4.634   3.379   1.045  0.00  0.00    -0.275 OA
ATOM      9  N   UNL     1      -3.547   5.277   1.373  0.00  0.00    -0.285 N 
ATOM     10  C   UNL     1      -2.543   5.981   2.046  0.00  0.00    +0.037 A 
ATOM     11  C   UNL     1      -1.534   5.291   2.704  0.00  0.00    -0.014 A 
ATOM     12  C   UNL     1      -0.542   5.985   3.367  0.00  0.00    +0.006 A 
ATOM     13  C   UNL     1      -0.554   7.369   3.377  0.00  0.00    +0.000 A 
ATOM     14  C   UNL     1      -1.558   8.059   2.723  0.00  0.00    +0.002 A 
ATOM     15  C   UNL     1      -2.553   7.370   2.058  0.00  0.00    +0.023 A 
ATOM     16  H   UNL     1      -4.085   5.727   0.704  0.00  0.00    +0.155 HD
ENDBRANCH   2   5
BRANCH   1  17
ATOM     17  C   UNL     1      -0.005   1.503   0.017  0.00  0.00    +0.200 C 
BRANCH  17  19
ATOM     18  N   UNL     1       0.585  -0.664  -1.018  0.00  0.00    -0.284 N 
ATOM     19  C   UNL     1       0.005  -0.004   0.004  0.00  0.00    +0.234 C 
ATOM     20  O   UNL     1      -0.509  -0.622   0.911  0.00  0.00    -0.274 OA
ATOM     21  H   UNL     1       0.925  -0.174  -1.782  0.00  0.00    +0.155 HD
BRANCH  18  24
ATOM     22  C   UNL     1       0.770  -2.073  -3.484  0.00  0.00    +0.047 C 
ATOM     23  C   UNL     1       0.790  -2.785  -2.156  0.00  0.00    -0.011 A 
ATOM     24  C   UNL     1       0.697  -2.059  -0.976  0.00  0.00    +0.038 A 
ATOM     25  C   UNL     1       0.710  -2.719   0.246  0.00  0.00    +0.023 A 
ATOM     26  C   UNL     1       0.820  -4.095   0.285  0.00  0.00    +0.003 A 
ATOM     27  C   UNL     1       0.918  -4.816  -0.890  0.00  0.00    +0.020 A 
ATOM     28  C   UNL     1       0.906  -4.162  -2.110  0.00  0.00    +0.046 A 
ATOM     29 CL   UNL     1       1.029  -5.071  -3.584  0.00  0.00    -0.083 Cl
ENDBRANCH  18  24
ENDBRANCH  17  19
ENDBRANCH   1  17
TORSDOF 4
