REMARK  Name = ZINC05610991
REMARK  4 active torsions:
REMARK  status: ('A' for Active; 'I' for Inactive)
REMARK    1  A    between atoms: C_1  and  C_2
REMARK    2  A    between atoms: C_2  and  C_3
REMARK    3  A    between atoms: C_7  and  N_20
REMARK    4  A    between atoms: C_8  and  C_12
REMARK                            x       y       z     vdW  Elec       q    Type
REMARK                         _______ _______ _______ _____ _____    ______ ____
ROOT
ATOM      1  C   UNL     1      -1.225   3.922  -2.417  0.00  0.00    +0.046 A 
ATOM      2  C   UNL     1      -1.723   3.207  -1.329  0.00  0.00    -0.022 A 
ATOM      3  C   UNL     1      -1.907   3.838  -0.128  0.00  0.00    -0.031 A 
ATOM      4  C   UNL     1      -1.593   5.219  -0.015  0.00  0.00    +0.032 A 
ATOM      5  C   UNL     1      -1.714   6.080   1.151  0.00  0.00    +0.054 A 
ATOM      6  C   UNL     1      -1.346   7.402   1.028  0.00  0.00    +0.097 A 
ATOM      7  S   UNL     1      -0.822   7.527  -0.671  0.00  0.00    -0.062 S 
ATOM      8  C   UNL     1      -1.098   5.848  -1.177  0.00  0.00    +0.111 A 
ATOM      9  N   UNL     1      -0.932   5.201  -2.310  0.00  0.00    -0.244 NA
ATOM     10  C   UNL     1      -2.425   3.136   1.097  0.00  0.00    +0.036 C 
ATOM     11  C   UNL     1      -3.096   1.817   0.719  0.00  0.00    +0.005 C 
ATOM     12  C   UNL     1      -2.141   1.031  -0.186  0.00  0.00    +0.005 C 
ATOM     13  C   UNL     1      -2.040   1.748  -1.531  0.00  0.00    +0.037 C 
ENDROOT
BRANCH   6  14
ATOM     14  C   UNL     1      -1.375   8.418   2.015  0.00  0.00    +0.255 C 
ATOM     15  O   UNL     1      -1.043   8.166   3.159  0.00  0.00    -0.269 OA
ATOM     16  N   UNL     1      -1.772   9.664   1.688  0.00  0.00    -0.297 N 
ATOM     17  C   UNL     1      -2.288   9.957   0.344  0.00  0.00    +0.108 C 
ATOM     18  C   UNL     1      -3.661  10.630   0.484  0.00  0.00    +0.019 C 
ATOM     19  C   UNL     1      -3.532  11.858   1.388  0.00  0.00    +0.003 C 
ATOM     20  C   UNL     1      -3.066  11.422   2.779  0.00  0.00    +0.019 C 
ATOM     21  C   UNL     1      -1.690  10.757   2.667  0.00  0.00    +0.108 C 
ENDBRANCH   6  14
BRANCH   5  22
ATOM     22  N   UNL     1      -2.189   5.583   2.357  0.00  0.00    -0.356 N 
ATOM     23  H   UNL     1      -2.092   4.641   2.565  0.00  0.00    +0.142 HD
ATOM     24  H   UNL     1      -2.617   6.179   2.992  0.00  0.00    +0.142 HD
ENDBRANCH   5  22
BRANCH   1  26
ATOM     25  C   UNL     1      -2.296   3.325  -4.573  0.00  0.00    +0.010 C 
ATOM     26  C   UNL     1      -1.020   3.221  -3.735  0.00  0.00    +0.052 C 
ENDBRANCH   1  26
TORSDOF 3
