REMARK  Name = ZINC09466633
REMARK  10 active torsions:
REMARK  status: ('A' for Active; 'I' for Inactive)
REMARK    1  A    between atoms: C_1  and  C_2
REMARK    2  A    between atoms: C_5  and  C_7
REMARK    3  A    between atoms: C_10  and  C_13
REMARK    4  A    between atoms: C_18  and  C_20
REMARK    5  A    between atoms: C_20  and  N_55
REMARK    6  A    between atoms: C_21  and  C_23
REMARK    7  A    between atoms: C_21  and  C_24
REMARK    8  A    between atoms: C_21  and  N_55
REMARK    9  A    between atoms: C_27  and  S_30
REMARK   10  A    between atoms: S_30  and  N_33
REMARK                            x       y       z     vdW  Elec       q    Type
REMARK                         _______ _______ _______ _____ _____    ______ ____
ROOT
ATOM      1  C   UNL     1      -3.637   2.600   3.116  0.00  0.00    +0.104 C 
ATOM      2  N   UNL     1      -3.888   2.995   4.320  0.00  0.00    -0.178 NA
ATOM      3  N   UNL     1      -5.231   3.285   4.553  0.00  0.00    -0.186 N 
ATOM      4  C   UNL     1      -5.994   3.036   3.320  0.00  0.00    +0.143 C 
ATOM      5  C   UNL     1      -4.921   2.564   2.319  0.00  0.00    +0.090 C 
ATOM      6  C   UNL     1      -5.748   3.719   5.720  0.00  0.00    +0.218 C 
ATOM      7  O   UNL     1      -6.938   3.937   5.813  0.00  0.00    -0.276 OA
ENDROOT
BRANCH   1  12
ATOM      8  C   UNL     1      -0.013   1.086   0.008  0.00  0.00    +0.086 C 
ATOM      9  C   UNL     1      -0.718   1.572   1.248  0.00  0.00    +0.103 A 
ATOM     10  C   UNL     1      -0.131   1.835   2.433  0.00  0.00    +0.045 A 
ATOM     11  C   UNL     1      -1.145   2.261   3.311  0.00  0.00    +0.051 A 
ATOM     12  C   UNL     1      -2.312   2.235   2.605  0.00  0.00    +0.151 A 
ATOM     13  O   UNL     1      -2.034   1.820   1.353  0.00  0.00    -0.459 OA
ENDBRANCH   1  12
BRANCH   4  14
ATOM     14  C   UNL     1      -7.023   1.958   3.542  0.00  0.00    +0.013 A 
ATOM     15  C   UNL     1      -8.261   1.836   3.005  0.00  0.00    +0.013 A 
ATOM     16  C   UNL     1      -9.039   0.748   3.354  0.00  0.00    +0.008 A 
ATOM     17  C   UNL     1      -8.545  -0.160   4.230  0.00  0.00    +0.045 A 
ATOM     18  S   UNL     1      -6.929   0.512   4.585  0.00  0.00    -0.100 S 
ENDBRANCH   4  14
BRANCH   6  19
ATOM     19  C   UNL     1      -4.848   3.933   6.910  0.00  0.00    +0.018 C 
BRANCH  19  20
ATOM     20  N   UNL     1      -5.657   4.405   8.049  0.00  0.00    +0.389 N 
ATOM     21  H   UNL     1      -6.369   3.700   8.274  0.00  0.00    -0.084 HD
ATOM     22  H   UNL     1      -6.116   5.287   7.796  0.00  0.00    -0.084 HD
BRANCH  20  23
ATOM     23  C   UNL     1      -4.800   4.623   9.230  0.00  0.00    -0.043 C 
ATOM     24  C   UNL     1      -4.622   3.303   9.983  0.00  0.00    -0.009 C 
BRANCH  23  25
ATOM     25  C   UNL     1      -5.454   5.634  10.136  0.00  0.00    -0.062 A 
ATOM     26  C   UNL     1      -6.822   5.606  10.329  0.00  0.00    +0.004 A 
ATOM     27  C   UNL     1      -7.422   6.530  11.163  0.00  0.00    +0.029 A 
ATOM     28  C   UNL     1      -6.654   7.489  11.797  0.00  0.00    +0.105 A 
ATOM     29  C   UNL     1      -5.286   7.521  11.600  0.00  0.00    +0.029 A 
ATOM     30  C   UNL     1      -4.686   6.593  10.769  0.00  0.00    +0.004 A 
BRANCH  28  31
ATOM     31  S   UNL     1      -7.419   8.672  12.857  0.00  0.00    +0.056 S 
ATOM     32  O   UNL     1      -8.636   8.090  13.302  0.00  0.00    -0.153 OA
ATOM     33  O   UNL     1      -6.415   9.121  13.756  0.00  0.00    -0.153 OA
BRANCH  31  34
ATOM     34  N   UNL     1      -7.832   9.973  11.920  0.00  0.00    -0.204 NA
ATOM     35  H   UNL     1      -7.636   9.969  10.970  0.00  0.00    +0.144 HD
ATOM     36  H   UNL     1      -8.270  10.740  12.321  0.00  0.00    +0.144 HD
ENDBRANCH  31  34
ENDBRANCH  28  31
ENDBRANCH  23  25
ENDBRANCH  20  23
ENDBRANCH  19  20
ENDBRANCH   6  19
TORSDOF 8
