REMARK  Name = ZINC02724808
REMARK  4 active torsions:
REMARK  status: ('A' for Active; 'I' for Inactive)
REMARK    1  A    between atoms: C_4  and  C_7
REMARK    2  A    between atoms: C_20  and  C_22
REMARK    3  A    between atoms: C_25  and  S_28
REMARK    4  A    between atoms: S_28  and  N_31
REMARK                            x       y       z     vdW  Elec       q    Type
REMARK                         _______ _______ _______ _____ _____    ______ ____
ROOT
ATOM      1  C   UNL     1      -2.415   3.845  -0.088  0.00  0.00    +0.139 C 
ATOM      2  C   UNL     1      -2.828   3.640   1.336  0.00  0.00    +0.001 A 
ATOM      3  C   UNL     1      -2.550   4.691   2.208  0.00  0.00    +0.046 A 
ATOM      4  C   UNL     1      -2.878   4.620   3.545  0.00  0.00    +0.124 A 
ATOM      5  C   UNL     1      -3.497   3.481   4.033  0.00  0.00    +0.040 A 
ATOM      6  C   UNL     1      -3.776   2.440   3.179  0.00  0.00    +0.026 A 
ATOM      7  C   UNL     1      -3.447   2.503   1.814  0.00  0.00    +0.039 A 
ATOM      8  N   UNL     1      -3.789   1.390   1.081  0.00  0.00    -0.284 N 
ATOM      9  C   UNL     1      -3.918   1.086  -0.178  0.00  0.00    +0.235 C 
ATOM     10  O   UNL     1      -4.586   0.107  -0.437  0.00  0.00    -0.274 OA
ATOM     11  C   UNL     1      -3.326   1.822  -1.337  0.00  0.00    +0.205 C 
ATOM     12  N   UNL     1      -3.291   3.248  -1.060  0.00  0.00    -0.278 N 
ATOM     13  C   UNL     1      -4.123   4.053  -1.750  0.00  0.00    +0.248 C 
ATOM     14  O   UNL     1      -4.056   5.258  -1.611  0.00  0.00    -0.270 OA
ATOM     15  F   UNL     1      -2.599   5.652   4.372  0.00  0.00    -0.205 F 
ATOM     16  H   UNL     1      -3.986   0.632   1.653  0.00  0.00    +0.155 HD
ENDROOT
BRANCH   1  20
ATOM     17  C   UNL     1       1.496   2.208  -0.609  0.00  0.00    +0.000 A 
ATOM     18  C   UNL     1       1.268   3.548  -0.862  0.00  0.00    +0.000 A 
ATOM     19  C   UNL     1       0.004   4.079  -0.688  0.00  0.00    +0.006 A 
ATOM     20  C   UNL     1      -1.035   3.268  -0.272  0.00  0.00    -0.023 A 
ATOM     21  C   UNL     1      -0.807   1.928  -0.019  0.00  0.00    +0.006 A 
ATOM     22  C   UNL     1       0.458   1.398  -0.188  0.00  0.00    +0.000 A 
ENDBRANCH   1  20
BRANCH  13  23
ATOM     23  C   UNL     1      -5.117   3.470  -2.676  0.00  0.00    +0.037 A 
ATOM     24  C   UNL     1      -5.303   4.023  -3.944  0.00  0.00    +0.015 A 
ATOM     25  C   UNL     1      -6.229   3.471  -4.805  0.00  0.00    +0.029 A 
ATOM     26  C   UNL     1      -6.980   2.378  -4.410  0.00  0.00    +0.106 A 
ATOM     27  C   UNL     1      -6.803   1.827  -3.153  0.00  0.00    +0.029 A 
ATOM     28  C   UNL     1      -5.877   2.366  -2.284  0.00  0.00    +0.015 A 
BRANCH  26  29
ATOM     29  S   UNL     1      -8.165   1.683  -5.513  0.00  0.00    +0.061 S 
ATOM     30  O   UNL     1      -7.755   2.039  -6.827  0.00  0.00    -0.153 OA
ATOM     31  O   UNL     1      -8.350   0.333  -5.113  0.00  0.00    -0.153 OA
BRANCH  29  32
ATOM     32  N   UNL     1      -9.602   2.459  -5.240  0.00  0.00    -0.177 NA
ATOM     33  C   UNL     1     -10.557   1.940  -4.251  0.00  0.00    +0.109 C 
ATOM     34  C   UNL     1     -10.904   3.069  -3.268  0.00  0.00    +0.017 C 
ATOM     35  C   UNL     1     -11.409   4.283  -4.052  0.00  0.00    +0.003 C 
ATOM     36  C   UNL     1     -10.306   4.782  -4.988  0.00  0.00    +0.017 C 
ATOM     37  C   UNL     1      -9.950   3.676  -5.987  0.00  0.00    +0.109 C 
ENDBRANCH  29  32
ENDBRANCH  26  29
ENDBRANCH  13  23
TORSDOF 4
