REMARK  Name = ZINC58846405
REMARK  9 active torsions:
REMARK  status: ('A' for Active; 'I' for Inactive)
REMARK    1  A    between atoms: C_1  and  C_2
REMARK    2  A    between atoms: C_5  and  C_39
REMARK    3  A    between atoms: C_6  and  N_8
REMARK    4  A    between atoms: N_8  and  S_9
REMARK    5  A    between atoms: S_9  and  C_12
REMARK    6  A    between atoms: C_25  and  C_28
REMARK    7  A    between atoms: C_31  and  O_37
REMARK    8  A    between atoms: C_32  and  N_34
REMARK    9  A    between atoms: O_37  and  C_38
REMARK                            x       y       z     vdW  Elec       q    Type
REMARK                         _______ _______ _______ _____ _____    ______ ____
ROOT
ATOM      1  C   UNL     1      -2.408  -2.187   3.464  0.00  0.00    +0.109 A 
ATOM      2  C   UNL     1      -3.032  -1.110   2.861  0.00  0.00    +0.030 A 
ATOM      3  C   UNL     1      -4.396  -1.135   2.655  0.00  0.00    +0.025 A 
ATOM      4  C   UNL     1      -5.141  -2.241   3.049  0.00  0.00    +0.031 A 
ATOM      5  C   UNL     1      -4.516  -3.328   3.642  0.00  0.00    -0.018 A 
ATOM      6  C   UNL     1      -3.144  -3.290   3.847  0.00  0.00    +0.034 A 
ATOM      7  C   UNL     1      -5.275  -4.548   4.041  0.00  0.00    +0.049 C 
ATOM      8  C   UNL     1      -5.498  -4.614   5.531  0.00  0.00    -0.023 C 
ATOM      9  C   UNL     1      -6.673  -5.133   5.790  0.00  0.00    -0.030 C 
ATOM     10  C   UNL     1      -7.404  -5.480   4.512  0.00  0.00    +0.033 C 
ATOM     11  C   UNL     1      -6.671  -4.654   3.430  0.00  0.00    +0.029 C 
ATOM     12  C   UNL     1      -7.379  -3.323   3.291  0.00  0.00    +0.105 C 
ATOM     13  N   UNL     1      -6.517  -2.245   2.852  0.00  0.00    -0.336 N 
ATOM     14  H   UNL     1      -6.922  -1.477   2.419  0.00  0.00    +0.147 HD
ENDROOT
BRANCH  12  15
ATOM     15  C   UNL     1      -7.998  -2.968   4.619  0.00  0.00    -0.025 A 
ATOM     16  C   UNL     1      -7.217  -2.417   5.618  0.00  0.00    +0.009 A 
ATOM     17  C   UNL     1      -7.782  -2.092   6.836  0.00  0.00    +0.048 A 
ATOM     18  C   UNL     1      -9.133  -2.317   7.056  0.00  0.00    +0.150 A 
ATOM     19  C   UNL     1      -9.914  -2.870   6.051  0.00  0.00    +0.168 A 
ATOM     20  C   UNL     1      -9.345  -3.189   4.833  0.00  0.00    +0.042 A 
BRANCH  19  21
ATOM     21  N   UNL     1     -11.355  -3.113   6.283  0.00  0.00    +0.060 N 
ATOM     22  O   UNL     1     -12.035  -3.594   5.407  0.00  0.00    -0.126 OA
ATOM     23  O   UNL     1     -11.853  -2.829   7.347  0.00  0.00    -0.126 OA
ENDBRANCH  19  21
BRANCH  18  24
ATOM     24  O   UNL     1      -9.690  -1.998   8.254  0.00  0.00    -0.493 OA
ATOM     25  C   UNL     1      -8.826  -1.434   9.242  0.00  0.00    +0.277 C 
ENDBRANCH  18  24
ENDBRANCH  12  15
BRANCH   1  26
ATOM     26  S   UNL     1      -0.668  -2.154   3.737  0.00  0.00    +0.072 S 
ATOM     27  O   UNL     1      -0.407  -3.055   4.805  0.00  0.00    -0.150 OA
ATOM     28  O   UNL     1      -0.290  -0.785   3.785  0.00  0.00    -0.150 OA
BRANCH  26  29
ATOM     29  N   UNL     1       0.051  -2.796   2.390  0.00  0.00    -0.216 N 
ATOM     30  H   UNL     1       0.600  -3.593   2.466  0.00  0.00    +0.174 HD
BRANCH  29  36
ATOM     31  C   UNL     1      -0.518   1.286  -0.286  0.00  0.00    +0.044 C 
ATOM     32  C   UNL     1      -0.411  -0.213  -0.182  0.00  0.00    -0.049 A 
ATOM     33  C   UNL     1      -0.495  -0.992  -1.322  0.00  0.00    +0.004 A 
ATOM     34  C   UNL     1      -0.398  -2.368  -1.232  0.00  0.00    +0.005 A 
ATOM     35  C   UNL     1      -0.216  -2.970  -0.002  0.00  0.00    -0.028 A 
ATOM     36  C   UNL     1      -0.132  -2.191   1.145  0.00  0.00    +0.051 A 
ATOM     37  C   UNL     1      -0.225  -0.808   1.050  0.00  0.00    +0.028 A 
ATOM     38  C   UNL     1      -0.111  -4.470   0.096  0.00  0.00    +0.046 C 
ENDBRANCH  29  36
ENDBRANCH  26  29
ENDBRANCH   1  26
TORSDOF 6
