REMARK  Name = ZINC35622714
REMARK  14 active torsions:
REMARK  status: ('A' for Active; 'I' for Inactive)
REMARK    1  A    between atoms: C_1  and  C_2
REMARK    2  A    between atoms: C_6  and  C_30
REMARK    3  A    between atoms: C_7  and  N_8
REMARK    4  A    between atoms: C_9  and  C_13
REMARK    5  A    between atoms: C_13  and  C_15
REMARK    6  A    between atoms: C_13  and  N_28
REMARK    7  A    between atoms: C_17  and  C_25
REMARK    8  A    between atoms: C_18  and  O_24
REMARK    9  A    between atoms: C_19  and  C_21
REMARK   10  A    between atoms: C_21  and  C_22
REMARK   11  A    between atoms: C_21  and  C_23
REMARK   12  A    between atoms: C_25  and  C_26
REMARK   13  A    between atoms: C_25  and  C_27
REMARK   14  A    between atoms: N_28  and  C_29
REMARK                            x       y       z     vdW  Elec       q    Type
REMARK                         _______ _______ _______ _____ _____    ______ ____
ROOT
ATOM      1  C   UNL     1       0.225  -1.993   3.999  0.00  0.00    +0.030 C 
ENDROOT
BRANCH   1   2
ATOM      2  C   UNL     1      -1.015  -2.562   4.638  0.00  0.00    -0.053 A 
ATOM      3  C   UNL     1      -1.318  -2.254   5.952  0.00  0.00    +0.010 A 
ATOM      4  C   UNL     1      -2.454  -2.774   6.540  0.00  0.00    -0.003 A 
ATOM      5  C   UNL     1      -3.292  -3.607   5.813  0.00  0.00    +0.124 A 
ATOM      6  C   UNL     1      -2.986  -3.915   4.495  0.00  0.00    -0.003 A 
ATOM      7  C   UNL     1      -1.851  -3.388   3.909  0.00  0.00    +0.010 A 
BRANCH   6   8
ATOM      8  C   UNL     1      -3.893  -4.820   3.702  0.00  0.00    +0.016 C 
ATOM      9  C   UNL     1      -4.419  -4.068   2.478  0.00  0.00    +0.012 C 
ATOM     10  C   UNL     1      -3.111  -6.053   3.245  0.00  0.00    +0.012 C 
ENDBRANCH   6   8
BRANCH   4  11
ATOM     11  C   UNL     1      -2.783  -2.438   7.972  0.00  0.00    +0.016 C 
ATOM     12  C   UNL     1      -1.647  -2.910   8.881  0.00  0.00    +0.012 C 
ATOM     13  C   UNL     1      -2.955  -0.924   8.114  0.00  0.00    +0.012 C 
ENDBRANCH   4  11
BRANCH   5  14
ATOM     14  O   UNL     1      -4.410  -4.121   6.390  0.00  0.00    -0.506 OA
ATOM     15  H   UNL     1      -5.196  -3.568   6.286  0.00  0.00    +0.292 HD
ENDBRANCH   5  14
ENDBRANCH   1   2
BRANCH   1  17
ATOM     16  N   UNL     1      -0.180   0.045   2.519  0.00  0.00    -0.198 N 
ATOM     17  C   UNL     1       0.021  -0.525   3.727  0.00  0.00    +0.147 A 
ATOM     18  N   UNL     1       0.007   0.433   4.616  0.00  0.00    -0.114 NA
ATOM     19  N   UNL     1      -0.190   1.570   4.053  0.00  0.00    -0.023 NA
ATOM     20  N   UNL     1      -0.308   1.421   2.777  0.00  0.00    -0.039 NA
BRANCH  16  27
ATOM     21  C   UNL     1      -2.738  -0.688   1.508  0.00  0.00    +0.046 C 
ATOM     22  C   UNL     1      -1.470  -0.971   0.745  0.00  0.00    -0.025 A 
ATOM     23  C   UNL     1      -1.529  -1.598  -0.485  0.00  0.00    +0.005 A 
ATOM     24  C   UNL     1      -0.366  -1.858  -1.186  0.00  0.00    +0.001 A 
ATOM     25  C   UNL     1       0.859  -1.492  -0.659  0.00  0.00    +0.005 A 
ATOM     26  C   UNL     1       0.924  -0.865   0.570  0.00  0.00    -0.025 A 
ATOM     27  C   UNL     1      -0.243  -0.597   1.274  0.00  0.00    +0.075 A 
ATOM     28  C   UNL     1       2.259  -0.467   1.144  0.00  0.00    +0.046 C 
ENDBRANCH  16  27
ENDBRANCH   1  17
BRANCH   1  29
ATOM     29  N   UNL     1       1.368  -2.170   4.904  0.00  0.00    +0.387 N 
ATOM     30  C   UNL     1       1.641  -3.603   5.075  0.00  0.00    -0.099 C 
ATOM     31  H   UNL     1       2.180  -1.717   4.513  0.00  0.00    -0.085 HD
ATOM     32  H   UNL     1       1.153  -1.760   5.801  0.00  0.00    -0.085 HD
ENDBRANCH   1  29
TORSDOF 7
