REMARK  Name = ZINC36534214
REMARK  12 active torsions:
REMARK  status: ('A' for Active; 'I' for Inactive)
REMARK    1  A    between atoms: C_1  and  C_2
REMARK    2  A    between atoms: C_5  and  S_8
REMARK    3  A    between atoms: S_8  and  C_11
REMARK    4  A    between atoms: C_11  and  N_12
REMARK    5  A    between atoms: C_13  and  C_15
REMARK    6  A    between atoms: C_15  and  C_17
REMARK    7  A    between atoms: C_15  and  N_26
REMARK    8  A    between atoms: N_26  and  C_27
REMARK    9  A    between atoms: C_28  and  C_30
REMARK   10  A    between atoms: C_30  and  C_31
REMARK   11  A    between atoms: C_31  and  C_33
REMARK   12  A    between atoms: C_31  and  C_34
REMARK                            x       y       z     vdW  Elec       q    Type
REMARK                         _______ _______ _______ _____ _____    ______ ____
ROOT
ATOM      1  C   UNL     1       3.255  -4.898   3.567  0.00  0.00    +0.192 C 
ENDROOT
BRANCH   1   2
ATOM      2  C   UNL     1       4.651  -4.330   3.580  0.00  0.00    -0.015 A 
ATOM      3  C   UNL     1       4.849  -2.992   3.866  0.00  0.00    +0.010 A 
ATOM      4  C   UNL     1       6.127  -2.466   3.879  0.00  0.00    +0.050 A 
ATOM      5  C   UNL     1       7.214  -3.281   3.605  0.00  0.00    +0.166 A 
ATOM      6  C   UNL     1       7.015  -4.628   3.317  0.00  0.00    +0.167 A 
ATOM      7  C   UNL     1       5.731  -5.149   3.312  0.00  0.00    +0.055 A 
ATOM      8  O   UNL     1       8.229  -5.209   3.086  0.00  0.00    -0.453 OA
ATOM      9  C   UNL     1       9.135  -4.119   2.833  0.00  0.00    +0.466 C 
ATOM     10  O   UNL     1       8.553  -3.017   3.554  0.00  0.00    -0.453 OA
ENDBRANCH   1   2
BRANCH   1  12
ATOM     11  N   UNL     1       2.902  -4.445   1.161  0.00  0.00    -0.294 N 
ATOM     12  C   UNL     1       2.905  -5.340   2.170  0.00  0.00    +0.239 C 
ATOM     13  O   UNL     1       2.626  -6.500   1.952  0.00  0.00    -0.273 OA
ATOM     14  H   UNL     1       3.125  -3.518   1.335  0.00  0.00    +0.150 HD
BRANCH  11  15
ATOM     15  C   UNL     1       2.562  -4.875  -0.197  0.00  0.00    +0.278 C 
BRANCH  15  16
ATOM     16  S   UNL     1       0.799  -4.575  -0.503  0.00  0.00    +0.013 S 
ATOM     17  O   UNL     1       0.025  -5.056   0.588  0.00  0.00    -0.168 OA
ATOM     18  O   UNL     1       0.467  -4.928  -1.838  0.00  0.00    -0.168 OA
BRANCH  16  23
ATOM     19  C   UNL     1       0.185   1.424  -0.298  0.00  0.00    +0.044 C 
ATOM     20  C   UNL     1       0.339  -0.074  -0.349  0.00  0.00    -0.050 A 
ATOM     21  C   UNL     1       0.624  -0.700  -1.549  0.00  0.00    +0.005 A 
ATOM     22  C   UNL     1       0.765  -2.074  -1.596  0.00  0.00    +0.027 A 
ATOM     23  C   UNL     1       0.621  -2.823  -0.443  0.00  0.00    +0.090 A 
ATOM     24  C   UNL     1       0.336  -2.198   0.757  0.00  0.00    +0.027 A 
ATOM     25  C   UNL     1       0.200  -0.823   0.804  0.00  0.00    +0.005 A 
ENDBRANCH  16  23
ENDBRANCH  15  16
ENDBRANCH  11  15
ENDBRANCH   1  12
BRANCH   1  26
ATOM     26  N   UNL     1       3.187  -6.047   4.474  0.00  0.00    -0.289 N 
ATOM     27  C   UNL     1       3.994  -7.240   4.207  0.00  0.00    +0.133 C 
ATOM     28  C   UNL     1       2.382  -6.006   5.554  0.00  0.00    +0.217 C 
ATOM     29  O   UNL     1       1.714  -5.018   5.775  0.00  0.00    -0.276 OA
BRANCH  28  30
ATOM     30  C   UNL     1       2.312  -7.188   6.487  0.00  0.00    +0.104 C 
BRANCH  30  31
ATOM     31  C   UNL     1       1.331  -6.884   7.622  0.00  0.00    +0.025 C 
ATOM     32  C   UNL     1      -0.080  -6.735   7.050  0.00  0.00    +0.013 C 
BRANCH  31  33
ATOM     33  C   UNL     1       1.353  -8.013   8.619  0.00  0.00    -0.044 A 
ATOM     34  C   UNL     1       1.022  -9.295   8.220  0.00  0.00    +0.004 A 
ATOM     35  C   UNL     1       1.042 -10.331   9.135  0.00  0.00    +0.000 A 
ATOM     36  C   UNL     1       1.393 -10.085  10.450  0.00  0.00    +0.000 A 
ATOM     37  C   UNL     1       1.724  -8.804  10.849  0.00  0.00    +0.000 A 
ATOM     38  C   UNL     1       1.709  -7.769   9.932  0.00  0.00    +0.004 A 
ENDBRANCH  31  33
ENDBRANCH  30  31
ENDBRANCH  28  30
ENDBRANCH   1  26
TORSDOF 9
