REMARK  Name = ZINC44409709
REMARK  9 active torsions:
REMARK  status: ('A' for Active; 'I' for Inactive)
REMARK    1  A    between atoms: C_1  and  C_2
REMARK    2  A    between atoms: C_2  and  C_3
REMARK    3  A    between atoms: C_3  and  C_5
REMARK    4  A    between atoms: C_3  and  N_21
REMARK    5  A    between atoms: C_5  and  C_6
REMARK    6  A    between atoms: C_9  and  N_13
REMARK    7  A    between atoms: C_11  and  O_12
REMARK    8  A    between atoms: N_13  and  C_14
REMARK    9  A    between atoms: C_17  and  N_20
REMARK                            x       y       z     vdW  Elec       q    Type
REMARK                         _______ _______ _______ _____ _____    ______ ____
ROOT
ATOM      1  C   UNL     1       1.142  -2.648  -2.617  0.00  0.00    -0.007 A 
ATOM      2  C   UNL     1       0.352  -2.830  -3.736  0.00  0.00    +0.009 A 
ATOM      3  C   UNL     1       0.923  -3.218  -4.932  0.00  0.00    +0.024 A 
ATOM      4  C   UNL     1       2.295  -3.426  -5.013  0.00  0.00    +0.035 A 
ATOM      5  C   UNL     1       3.090  -3.243  -3.889  0.00  0.00    +0.069 A 
ATOM      6  C   UNL     1       2.513  -2.849  -2.692  0.00  0.00    +0.122 A 
ENDROOT
BRANCH   6   7
ATOM      7  O   UNL     1       3.289  -2.664  -1.592  0.00  0.00    -0.506 OA
ATOM      8  H   UNL     1       3.401  -3.458  -1.052  0.00  0.00    +0.292 HD
ENDBRANCH   6   7
BRANCH   4   9
ATOM      9  N   UNL     1       2.873  -3.818  -6.222  0.00  0.00    -0.314 N 
ATOM     10  H   UNL     1       2.435  -3.605  -7.061  0.00  0.00    +0.152 HD
BRANCH   9  11
ATOM     11  C   UNL     1       4.085  -4.520  -6.224  0.00  0.00    +0.031 A 
ATOM     12  C   UNL     1       4.383  -5.392  -5.185  0.00  0.00    +0.025 A 
ATOM     13  C   UNL     1       5.578  -6.085  -5.186  0.00  0.00    +0.024 A 
ATOM     14  C   UNL     1       6.481  -5.909  -6.227  0.00  0.00    +0.025 A 
ATOM     15  C   UNL     1       6.182  -5.037  -7.266  0.00  0.00    +0.024 A 
ATOM     16  C   UNL     1       4.985  -4.349  -7.267  0.00  0.00    +0.025 A 
BRANCH  14  17
ATOM     17  N   UNL     1       7.692  -6.611  -6.229  0.00  0.00    -0.358 N 
ATOM     18  H   UNL     1       7.901  -7.220  -5.503  0.00  0.00    +0.142 HD
ATOM     19  H   UNL     1       8.323  -6.488  -6.955  0.00  0.00    +0.142 HD
ENDBRANCH  14  17
ENDBRANCH   9  11
ENDBRANCH   4   9
BRANCH   1  20
ATOM     20  C   UNL     1       0.514  -2.224  -1.314  0.00  0.00    +0.022 C 
BRANCH  20  21
ATOM     21  C   UNL     1       0.597  -0.703  -1.179  0.00  0.00    -0.071 C 
BRANCH  21  22
ATOM     22  N   UNL     1       2.005  -0.295  -1.082  0.00  0.00    +0.380 N 
ATOM     23  H   UNL     1       2.497  -0.587  -1.914  0.00  0.00    -0.090 HD
ATOM     24  H   UNL     1       2.059   0.708  -0.993  0.00  0.00    -0.090 HD
ATOM     25  H   UNL     1       2.425  -0.728  -0.274  0.00  0.00    -0.090 HD
ENDBRANCH  21  22
BRANCH  21  27
ATOM     26  C   UNL     1      -0.174   1.267   0.151  0.00  0.00    +0.002 C 
ATOM     27  C   UNL     1      -0.149  -0.261   0.082  0.00  0.00    -0.019 C 
ENDBRANCH  21  27
ENDBRANCH  20  21
ENDBRANCH   1  20
TORSDOF 8
