REMARK  Name = ZINC21056831
REMARK  14 active torsions:
REMARK  status: ('A' for Active; 'I' for Inactive)
REMARK    1  A    between atoms: C_1  and  C_2
REMARK    2  A    between atoms: C_2  and  C_4
REMARK    3  A    between atoms: C_2  and  O_25
REMARK    4  A    between atoms: N_6  and  C_7
REMARK    5  A    between atoms: N_6  and  C_11
REMARK    6  A    between atoms: C_7  and  C_8
REMARK    7  A    between atoms: C_8  and  C_9
REMARK    8  A    between atoms: C_8  and  C_10
REMARK    9  A    between atoms: C_12  and  N_24
REMARK   10  A    between atoms: N_13  and  C_20
REMARK   11  A    between atoms: C_20  and  C_21
REMARK   12  A    between atoms: C_21  and  C_22
REMARK   13  A    between atoms: C_21  and  C_23
REMARK   14  A    between atoms: O_25  and  C_26
REMARK                            x       y       z     vdW  Elec       q    Type
REMARK                         _______ _______ _______ _____ _____    ______ ____
ROOT
ATOM      1  C   UNL     1       0.770  -0.347   1.290  0.00  0.00    +0.260 C 
ATOM      2  O   UNL     1       1.926  -0.700   1.192  0.00  0.00    -0.271 OA
ATOM      3  N   UNL     1       0.127  -0.462   2.471  0.00  0.00    -0.261 N 
ENDROOT
BRANCH   3   4
ATOM      4  C   UNL     1       0.771  -1.072   3.568  0.00  0.00    +0.140 A 
ATOM      5  C   UNL     1       1.178  -2.388   3.500  0.00  0.00    +0.127 A 
ATOM      6  N   UNL     1       1.804  -2.955   4.586  0.00  0.00    -0.280 N 
ATOM      7  C   UNL     1       2.017  -2.233   5.702  0.00  0.00    +0.331 A 
ATOM      8  O   UNL     1       2.572  -2.752   6.651  0.00  0.00    -0.246 OA
ATOM      9  N   UNL     1       1.628  -0.949   5.786  0.00  0.00    -0.273 N 
ATOM     10  H   UNL     1       1.794  -0.450   6.601  0.00  0.00    +0.173 HD
ATOM     11  C   UNL     1       1.015  -0.345   4.749  0.00  0.00    +0.277 A 
ATOM     12  O   UNL     1       0.670   0.821   4.834  0.00  0.00    -0.266 OA
BRANCH   5  13
ATOM     13  N   UNL     1       0.960  -3.125   2.361  0.00  0.00    -0.343 N 
ATOM     14  H   UNL     1       0.559  -2.708   1.583  0.00  0.00    +0.144 HD
ATOM     15  H   UNL     1       1.207  -4.063   2.335  0.00  0.00    +0.144 HD
ENDBRANCH   5  13
BRANCH   6  16
ATOM     16  C   UNL     1       2.241  -4.352   4.528  0.00  0.00    +0.131 C 
BRANCH  16  17
ATOM     17  C   UNL     1       3.672  -4.417   3.991  0.00  0.00    +0.003 C 
ATOM     18  C   UNL     1       4.620  -3.737   4.981  0.00  0.00    +0.009 C 
ATOM     19  C   UNL     1       4.084  -5.880   3.812  0.00  0.00    +0.009 C 
ENDBRANCH  16  17
ENDBRANCH   6  16
ENDBRANCH   3   4
BRANCH   1  21
ATOM     20  C   UNL     1       0.006   1.746   0.200  0.00  0.00    +0.062 C 
ATOM     21  C   UNL     1       0.051   0.220   0.093  0.00  0.00    +0.256 C 
BRANCH  21  22
ATOM     22  O   UNL     1       0.743  -0.154  -1.100  0.00  0.00    -0.478 OA
BRANCH  22  23
ATOM     23  C   UNL     1       0.016  -0.200  -2.247  0.00  0.00    +0.140 A 
ATOM     24  C   UNL     1      -1.309   0.211  -2.247  0.00  0.00    +0.048 A 
ATOM     25  C   UNL     1      -2.047   0.163  -3.413  0.00  0.00    +0.023 A 
ATOM     26  C   UNL     1      -1.465  -0.294  -4.583  0.00  0.00    +0.043 A 
ATOM     27  C   UNL     1      -0.144  -0.704  -4.587  0.00  0.00    +0.043 A 
ATOM     28  C   UNL     1       0.600  -0.653  -3.422  0.00  0.00    +0.084 A 
ATOM     29 CL   UNL     1       2.260  -1.161  -3.428  0.00  0.00    -0.080 Cl
ATOM     30 CL   UNL     1      -2.395  -0.353  -6.048  0.00  0.00    -0.083 Cl
ENDBRANCH  22  23
ENDBRANCH  21  22
ENDBRANCH   1  21
BRANCH   3  31
ATOM     31  C   UNL     1      -1.240   0.046   2.614  0.00  0.00    +0.117 C 
BRANCH  31  32
ATOM     32  C   UNL     1      -2.235  -1.071   2.292  0.00  0.00    +0.001 C 
ATOM     33  C   UNL     1      -2.133  -2.166   3.355  0.00  0.00    +0.009 C 
ATOM     34  C   UNL     1      -3.655  -0.501   2.282  0.00  0.00    +0.009 C 
ENDBRANCH  31  32
ENDBRANCH   3  31
TORSDOF 9
