REMARK  Name = ZINC04995354
REMARK  6 active torsions:
REMARK  status: ('A' for Active; 'I' for Inactive)
REMARK    1  A    between atoms: C_1  and  N_43
REMARK    2  A    between atoms: C_9  and  O_23
REMARK    3  A    between atoms: C_11  and  C_14
REMARK    4  A    between atoms: C_17  and  O_22
REMARK    5  A    between atoms: C_18  and  O_20
REMARK    6  A    between atoms: O_20  and  C_21
REMARK                            x       y       z     vdW  Elec       q    Type
REMARK                         _______ _______ _______ _____ _____    ______ ____
ROOT
ATOM      1  C   UNL     1      -6.641   0.389  -0.904  0.00  0.00    -0.096 C 
ATOM      2  C   UNL     1      -4.412  -0.161  -0.133  0.00  0.00    -0.074 C 
ATOM      3  C   UNL     1      -2.928   0.082  -0.420  0.00  0.00    +0.018 C 
ATOM      4  C   UNL     1      -2.629   1.555  -0.169  0.00  0.00    -0.027 A 
ATOM      5  C   UNL     1      -3.643   2.451  -0.115  0.00  0.00    -0.021 A 
ATOM      6  S   UNL     1      -2.857   4.010   0.193  0.00  0.00    -0.080 S 
ATOM      7  C   UNL     1      -1.231   3.480   0.250  0.00  0.00    +0.080 A 
ATOM      8  C   UNL     1      -1.298   2.099   0.019  0.00  0.00    +0.067 A 
ATOM      9  C   UNL     1      -0.016   1.349   0.009  0.00  0.00    +0.220 C 
ATOM     10  N   UNL     1       1.091   2.038   0.003  0.00  0.00    -0.223 NA
ATOM     11  C   UNL     1       1.166   3.490  -0.091  0.00  0.00    +0.224 C 
ATOM     12  N   UNL     1      -0.041   4.135   0.459  0.00  0.00    -0.313 N 
ATOM     13  C   UNL     1      -5.100   2.157  -0.285  0.00  0.00    -0.036 C 
ATOM     14  H   UNL     1       0.003   4.976   0.941  0.00  0.00    +0.149 HD
ATOM     15  N   UNL     1      -5.224   0.811  -0.894  0.00  0.00    +0.381 N 
ATOM     16  H   UNL     1      -4.880   0.849  -1.861  0.00  0.00    -0.082 HD
ENDROOT
BRANCH  11  17
ATOM     17  C   UNL     1       1.316   3.882  -1.538  0.00  0.00    -0.002 A 
ATOM     18  C   UNL     1       0.805   5.087  -1.984  0.00  0.00    +0.011 A 
ATOM     19  C   UNL     1       0.945   5.454  -3.309  0.00  0.00    +0.049 A 
ATOM     20  C   UNL     1       1.590   4.608  -4.197  0.00  0.00    +0.158 A 
ATOM     21  C   UNL     1       2.100   3.393  -3.750  0.00  0.00    +0.162 A 
ATOM     22  C   UNL     1       1.961   3.034  -2.419  0.00  0.00    +0.056 A 
BRANCH  21  23
ATOM     23  O   UNL     1       2.734   2.560  -4.618  0.00  0.00    -0.491 OA
ATOM     24  C   UNL     1       3.233   1.329  -4.089  0.00  0.00    +0.277 C 
ENDBRANCH  21  23
BRANCH  20  25
ATOM     25  O   UNL     1       1.724   4.965  -5.503  0.00  0.00    -0.503 OA
ATOM     26  H   UNL     1       0.993   4.676  -6.066  0.00  0.00    +0.292 HD
ENDBRANCH  20  25
ENDBRANCH  11  17
BRANCH   9  27
ATOM     27  O   UNL     1       0.002  -0.004   0.002  0.00  0.00    -0.492 OA
ATOM     28  H   UNL     1       0.891  -0.385  -0.009  0.00  0.00    +0.294 HD
ENDBRANCH   9  27
TORSDOF 4
