REMARK  Name = ZINC38657463
REMARK  11 active torsions:
REMARK  status: ('A' for Active; 'I' for Inactive)
REMARK    1  A    between atoms: C_1  and  C_2
REMARK    2  A    between atoms: C_2  and  C_3
REMARK    3  A    between atoms: C_2  and  C_4
REMARK    4  A    between atoms: C_4  and  O_5
REMARK    5  A    between atoms: O_5  and  C_6
REMARK    6  A    between atoms: C_9  and  C_12
REMARK    7  A    between atoms: C_12  and  O_14
REMARK    8  A    between atoms: O_14  and  C_15
REMARK    9  A    between atoms: C_22  and  N_33
REMARK   10  A    between atoms: C_23  and  C_31
REMARK   11  A    between atoms: C_24  and  C_26
REMARK                            x       y       z     vdW  Elec       q    Type
REMARK                         _______ _______ _______ _____ _____    ______ ____
ROOT
ATOM      1  C   UNL     1      -9.377  -1.898  -2.951  0.00  0.00    +0.135 A 
ATOM      2  C   UNL     1      -9.897  -2.552  -1.842  0.00  0.00    +0.047 A 
ATOM      3  C   UNL     1     -11.207  -2.986  -1.849  0.00  0.00    +0.012 A 
ATOM      4  C   UNL     1     -12.007  -2.772  -2.957  0.00  0.00    +0.011 A 
ATOM      5  C   UNL     1     -11.494  -2.120  -4.067  0.00  0.00    +0.138 A 
ATOM      6  C   UNL     1     -10.177  -1.677  -4.060  0.00  0.00    +0.093 A 
ATOM      7  O   UNL     1     -12.262  -1.902  -5.163  0.00  0.00    -0.441 OA
ATOM      8  C   UNL     1     -13.601  -1.956  -5.064  0.00  0.00    +0.199 C 
ATOM      9  C   UNL     1     -14.219  -2.583  -4.036  0.00  0.00    +0.101 C 
ATOM     10  C   UNL     1     -13.434  -3.255  -2.945  0.00  0.00    +0.134 C 
ENDROOT
BRANCH  10  11
ATOM     11  C   UNL     1     -14.057  -2.934  -1.611  0.00  0.00    +0.117 A 
ATOM     12  C   UNL     1     -14.561  -3.830  -0.742  0.00  0.00    +0.045 A 
ATOM     13  C   UNL     1     -15.039  -3.099   0.369  0.00  0.00    +0.041 A 
ATOM     14  C   UNL     1     -14.799  -1.800   0.114  0.00  0.00    +0.195 A 
ATOM     15  O   UNL     1     -14.199  -1.707  -1.084  0.00  0.00    -0.467 OA
ENDBRANCH  10  11
BRANCH   8  16
ATOM     16  N   UNL     1     -14.365  -1.358  -6.036  0.00  0.00    -0.328 N 
ATOM     17  H   UNL     1     -13.937  -0.905  -6.779  0.00  0.00    +0.145 HD
ATOM     18  H   UNL     1     -15.333  -1.389  -5.979  0.00  0.00    +0.145 HD
ENDBRANCH   8  16
BRANCH   9  19
ATOM     19  C   UNL     1     -15.650  -2.606  -3.986  0.00  0.00    +0.101 C 
ATOM     20  N   UNL     1     -16.785  -2.624  -3.947  0.00  0.00    -0.191 NA
ENDBRANCH   9  19
BRANCH   1  21
ATOM     21  O   UNL     1      -8.088  -1.469  -2.946  0.00  0.00    -0.422 OA
BRANCH  21  22
ATOM     22  C   UNL     1      -7.858  -0.157  -2.746  0.00  0.00    +0.344 C 
ATOM     23  O   UNL     1      -8.790   0.618  -2.667  0.00  0.00    -0.245 OA
BRANCH  22  27
ATOM     24  C   UNL     1      -3.875   1.272  -2.394  0.00  0.00    +0.121 A 
ATOM     25  C   UNL     1      -4.941   2.160  -2.303  0.00  0.00    +0.046 A 
ATOM     26  C   UNL     1      -6.234   1.701  -2.417  0.00  0.00    +0.018 A 
ATOM     27  C   UNL     1      -6.474   0.340  -2.624  0.00  0.00    +0.060 A 
ATOM     28  C   UNL     1      -5.400  -0.550  -2.715  0.00  0.00    +0.018 A 
ATOM     29  C   UNL     1      -4.110  -0.082  -2.606  0.00  0.00    +0.046 A 
BRANCH  24  30
ATOM     30  O   UNL     1      -2.602   1.728  -2.281  0.00  0.00    -0.492 OA
BRANCH  30  31
ATOM     31  C   UNL     1      -2.433   3.130  -2.065  0.00  0.00    +0.232 C 
BRANCH  31  33
ATOM     32  C   UNL     1      -0.265   3.168  -3.307  0.00  0.00    +0.010 C 
ATOM     33  C   UNL     1      -0.941   3.454  -1.964  0.00  0.00    +0.020 C 
ATOM     34  C   UNL     1      -0.762   4.931  -1.609  0.00  0.00    +0.010 C 
ENDBRANCH  31  33
ENDBRANCH  30  31
ENDBRANCH  24  30
ENDBRANCH  22  27
ENDBRANCH  21  22
ENDBRANCH   1  21
TORSDOF 9
