REMARK  Name = ZINC01843735
REMARK  14 active torsions:
REMARK  status: ('A' for Active; 'I' for Inactive)
REMARK    1  A    between atoms: C_1  and  C_2
REMARK    2  A    between atoms: C_5  and  N_8
REMARK    3  A    between atoms: N_8  and  C_9
REMARK    4  A    between atoms: N_8  and  S_28
REMARK    5  A    between atoms: C_9  and  C_10
REMARK    6  A    between atoms: C_10  and  C_12
REMARK    7  A    between atoms: C_10  and  O_27
REMARK    8  A    between atoms: C_12  and  N_70
REMARK    9  A    between atoms: C_13  and  C_14
REMARK   10  A    between atoms: C_13  and  N_70
REMARK   11  A    between atoms: C_20  and  C_21
REMARK   12  A    between atoms: C_20  and  N_70
REMARK   13  A    between atoms: S_28  and  C_31
REMARK   14  A    between atoms: C_34  and  N_37
REMARK                            x       y       z     vdW  Elec       q    Type
REMARK                         _______ _______ _______ _____ _____    ______ ____
ROOT
ATOM      1  C   UNL     1       1.839  -2.615  -0.877  0.00  0.00    +0.161 C 
ENDROOT
BRANCH   1   2
ATOM      2  N   UNL     1       0.970  -1.881   0.046  0.00  0.00    -0.201 N 
BRANCH   2   7
ATOM      3  C   UNL     1       1.769   3.670   0.882  0.00  0.00    +0.044 C 
ATOM      4  C   UNL     1       1.557   2.195   0.660  0.00  0.00    -0.050 A 
ATOM      5  C   UNL     1       0.344   1.616   0.985  0.00  0.00    +0.005 A 
ATOM      6  C   UNL     1       0.146   0.264   0.782  0.00  0.00    +0.025 A 
ATOM      7  C   UNL     1       1.167  -0.514   0.252  0.00  0.00    +0.051 A 
ATOM      8  C   UNL     1       2.384   0.071  -0.073  0.00  0.00    +0.025 A 
ATOM      9  C   UNL     1       2.575   1.423   0.132  0.00  0.00    +0.005 A 
ENDBRANCH   2   7
BRANCH   2  10
ATOM     10  S   UNL     1      -0.245  -2.672   0.845  0.00  0.00    +0.075 S 
ATOM     11  O   UNL     1       0.171  -4.025   0.981  0.00  0.00    -0.150 OA
ATOM     12  O   UNL     1      -0.588  -1.866   1.964  0.00  0.00    -0.150 OA
BRANCH  10  13
ATOM     13  C   UNL     1      -1.649  -2.681  -0.219  0.00  0.00    +0.109 A 
ATOM     14  C   UNL     1      -2.588  -1.670  -0.133  0.00  0.00    +0.031 A 
ATOM     15  C   UNL     1      -3.688  -1.675  -0.971  0.00  0.00    +0.034 A 
ATOM     16  C   UNL     1      -3.853  -2.696  -1.889  0.00  0.00    +0.126 A 
ATOM     17  C   UNL     1      -2.917  -3.709  -1.971  0.00  0.00    +0.034 A 
ATOM     18  C   UNL     1      -1.815  -3.703  -1.136  0.00  0.00    +0.031 A 
BRANCH  16  19
ATOM     19  N   UNL     1      -5.032  -2.703  -2.783  0.00  0.00    +0.056 N 
ATOM     20  O   UNL     1      -5.178  -3.603  -3.591  0.00  0.00    -0.126 OA
ATOM     21  O   UNL     1      -5.857  -1.810  -2.710  0.00  0.00    -0.126 OA
ENDBRANCH  16  19
ENDBRANCH  10  13
ENDBRANCH   2  10
ENDBRANCH   1   2
BRANCH   1  22
ATOM     22  C   UNL     1       3.106  -3.058  -0.142  0.00  0.00    +0.117 C 
BRANCH  22  23
ATOM     23  O   UNL     1       2.761  -3.995   0.879  0.00  0.00    -0.392 OA
ATOM     24  H   UNL     1       2.355  -4.807   0.547  0.00  0.00    +0.210 HD
ENDBRANCH  22  23
BRANCH  22  25
ATOM     25  C   UNL     1       4.068  -3.715  -1.134  0.00  0.00    -0.045 C 
BRANCH  25  26
ATOM     26  N   UNL     1       5.357  -3.957  -0.453  0.00  0.00    +0.387 N 
ATOM     27  H   UNL     1       5.571  -3.155   0.151  0.00  0.00    -0.081 HD
BRANCH  26  28
ATOM     28  C   UNL     1       5.266  -5.175   0.380  0.00  0.00    -0.042 C 
BRANCH  28  29
ATOM     29  C   UNL     1       5.036  -6.389  -0.482  0.00  0.00    -0.064 A 
ATOM     30  C   UNL     1       3.753  -6.729  -0.869  0.00  0.00    +0.002 A 
ATOM     31  C   UNL     1       3.543  -7.840  -1.664  0.00  0.00    +0.000 A 
ATOM     32  C   UNL     1       4.614  -8.617  -2.064  0.00  0.00    +0.000 A 
ATOM     33  C   UNL     1       5.896  -8.280  -1.672  0.00  0.00    +0.000 A 
ATOM     34  C   UNL     1       6.107  -7.166  -0.881  0.00  0.00    +0.002 A 
ENDBRANCH  28  29
ENDBRANCH  26  28
BRANCH  26  35
ATOM     35  C   UNL     1       6.436  -4.108  -1.452  0.00  0.00    -0.042 C 
BRANCH  35  36
ATOM     36  C   UNL     1       7.754  -3.803  -0.787  0.00  0.00    -0.064 A 
ATOM     37  C   UNL     1       8.198  -2.497  -0.698  0.00  0.00    +0.002 A 
ATOM     38  C   UNL     1       9.404  -2.218  -0.084  0.00  0.00    +0.000 A 
ATOM     39  C   UNL     1      10.171  -3.245   0.433  0.00  0.00    +0.000 A 
ATOM     40  C   UNL     1       9.730  -4.552   0.339  0.00  0.00    +0.000 A 
ATOM     41  C   UNL     1       8.521  -4.831  -0.270  0.00  0.00    +0.002 A 
ENDBRANCH  35  36
ENDBRANCH  26  35
ENDBRANCH  25  26
ENDBRANCH  22  25
ENDBRANCH   1  22
TORSDOF 13
