REMARK  Name = ZINC11658527
REMARK  8 active torsions:
REMARK  status: ('A' for Active; 'I' for Inactive)
REMARK    1  A    between atoms: C_1  and  O_2
REMARK    2  A    between atoms: O_2  and  C_3
REMARK    3  A    between atoms: C_6  and  C_9
REMARK    4  A    between atoms: C_9  and  C_11
REMARK    5  A    between atoms: C_9  and  N_60
REMARK    6  A    between atoms: C_11  and  N_12
REMARK    7  A    between atoms: C_13  and  C_15
REMARK    8  A    between atoms: C_15  and  C_16
REMARK                            x       y       z     vdW  Elec       q    Type
REMARK                         _______ _______ _______ _____ _____    ______ ____
ROOT
ATOM      1  N   UNL     1       4.915  -0.720   0.613  0.00  0.00    -0.316 N 
ATOM      2  C   UNL     1       6.172  -0.585   0.147  0.00  0.00    +0.215 C 
ATOM      3  O   UNL     1       7.051  -0.185   0.881  0.00  0.00    -0.276 OA
ATOM      4  H   UNL     1       4.212  -1.040   0.025  0.00  0.00    +0.149 HD
ENDROOT
BRANCH   1   5
ATOM      5  C   UNL     1       4.609  -0.385   2.006  0.00  0.00    +0.093 C 
BRANCH   5   6
ATOM      6  C   UNL     1       3.098  -0.458   2.228  0.00  0.00    -0.020 C 
BRANCH   6  12
ATOM      7  C   UNL     1       3.285   1.747   1.245  0.00  0.00    -0.078 C 
ATOM      8  C   UNL     1       2.507   2.841   0.512  0.00  0.00    -0.019 C 
ATOM      9  C   UNL     1       2.066   2.316  -0.857  0.00  0.00    -0.004 C 
ATOM     10  C   UNL     1       1.219   1.056  -0.663  0.00  0.00    -0.019 C 
ATOM     11  C   UNL     1       2.034   0.013   0.105  0.00  0.00    -0.078 C 
ATOM     12  N   UNL     1       2.407   0.570   1.422  0.00  0.00    +0.385 N 
ATOM     13  H   UNL     1       1.554   0.862   1.914  0.00  0.00    -0.081 HD
ENDBRANCH   6  12
BRANCH   6  17
ATOM     14  C   UNL     1       2.229   0.244   6.353  0.00  0.00    +0.120 A 
ATOM     15  C   UNL     1       2.559  -1.032   5.920  0.00  0.00    +0.046 A 
ATOM     16  C   UNL     1       2.839  -1.256   4.586  0.00  0.00    +0.005 A 
ATOM     17  C   UNL     1       2.791  -0.210   3.683  0.00  0.00    -0.059 A 
ATOM     18  C   UNL     1       2.469   1.064   4.113  0.00  0.00    +0.005 A 
ATOM     19  C   UNL     1       2.183   1.292   5.445  0.00  0.00    +0.046 A 
BRANCH  14  21
ATOM     20  C   UNL     1       1.622   1.806   8.039  0.00  0.00    +0.277 C 
ATOM     21  O   UNL     1       1.953   0.468   7.665  0.00  0.00    -0.495 OA
ENDBRANCH  14  21
ENDBRANCH   6  17
ENDBRANCH   5   6
ENDBRANCH   1   5
BRANCH   2  22
ATOM     22  C   UNL     1       6.486  -0.930  -1.286  0.00  0.00    +0.119 C 
BRANCH  22  23
ATOM     23  C   UNL     1       7.973  -0.689  -1.555  0.00  0.00    +0.146 C 
ATOM     24  C   UNL     1       8.311  -1.123  -2.957  0.00  0.00    +0.231 C 
ATOM     25  O   UNL     1       8.812  -2.216  -3.118  0.00  0.00    -0.274 OA
ATOM     26  N   UNL     1       8.088  -0.367  -4.027  0.00  0.00    -0.284 N 
ATOM     27  C   UNL     1       7.632   0.948  -4.033  0.00  0.00    +0.048 A 
ATOM     28  C   UNL     1       7.112   1.480  -5.209  0.00  0.00    +0.044 A 
ATOM     29  C   UNL     1       6.643   2.779  -5.238  0.00  0.00    +0.043 A 
ATOM     30  C   UNL     1       6.685   3.566  -4.099  0.00  0.00    +0.021 A 
ATOM     31  C   UNL     1       7.203   3.050  -2.925  0.00  0.00    +0.018 A 
ATOM     32  C   UNL     1       7.675   1.748  -2.892  0.00  0.00    +0.030 A 
ATOM     33  S   UNL     1       8.343   1.086  -1.397  0.00  0.00    -0.110 S 
ATOM     34 CL   UNL     1       5.997   3.430  -6.712  0.00  0.00    -0.083 Cl
ATOM     35  H   UNL     1       8.259  -0.773  -4.891  0.00  0.00    +0.155 HD
ENDBRANCH  22  23
ENDBRANCH   2  22
TORSDOF 7
