REMARK  Name = ZINC14653276
REMARK  9 active torsions:
REMARK  status: ('A' for Active; 'I' for Inactive)
REMARK    1  A    between atoms: C_1  and  C_2
REMARK    2  A    between atoms: C_2  and  C_3
REMARK    3  A    between atoms: C_3  and  C_4
REMARK    4  A    between atoms: C_4  and  N_5
REMARK    5  A    between atoms: C_6  and  N_30
REMARK    6  A    between atoms: C_7  and  N_14
REMARK    7  A    between atoms: N_14  and  C_15
REMARK    8  A    between atoms: C_15  and  C_16
REMARK    9  A    between atoms: C_21  and  C_23
REMARK                            x       y       z     vdW  Elec       q    Type
REMARK                         _______ _______ _______ _____ _____    ______ ____
ROOT
ATOM      1  N   UNL     1      -2.022  -1.191  -0.807  0.00  0.00    -0.280 N 
ATOM      2  C   UNL     1      -1.750  -2.171  -1.733  0.00  0.00    +0.127 A 
ATOM      3  C   UNL     1      -1.684  -3.487  -1.321  0.00  0.00    +0.140 A 
ATOM      4  C   UNL     1      -1.908  -3.786   0.036  0.00  0.00    +0.277 A 
ATOM      5  O   UNL     1      -1.860  -4.941   0.426  0.00  0.00    -0.266 OA
ATOM      6  N   UNL     1      -2.176  -2.789   0.901  0.00  0.00    -0.273 N 
ATOM      7  H   UNL     1      -2.335  -3.000   1.865  0.00  0.00    +0.173 HD
ATOM      8  C   UNL     1      -2.231  -1.512   0.483  0.00  0.00    +0.331 A 
ATOM      9  O   UNL     1      -2.474  -0.631   1.285  0.00  0.00    -0.246 OA
ENDROOT
BRANCH   3  10
ATOM     10  N   UNL     1      -1.402  -4.514  -2.245  0.00  0.00    -0.253 N 
ATOM     11  C   UNL     1      -0.258  -4.485  -2.957  0.00  0.00    +0.253 C 
ATOM     12  O   UNL     1      -0.052  -5.326  -3.811  0.00  0.00    -0.270 OA
BRANCH  11  13
ATOM     13  C   UNL     1       0.746  -3.432  -2.699  0.00  0.00    +0.055 A 
ATOM     14  C   UNL     1       1.721  -3.128  -3.658  0.00  0.00    +0.017 A 
ATOM     15  C   UNL     1       2.638  -2.134  -3.368  0.00  0.00    +0.041 A 
ATOM     16  C   UNL     1       2.563  -1.477  -2.151  0.00  0.00    +0.129 A 
ATOM     17  N   UNL     1       1.632  -1.785  -1.266  0.00  0.00    -0.243 NA
ATOM     18  C   UNL     1       0.735  -2.721  -1.499  0.00  0.00    +0.125 A 
ATOM     19 CL   UNL     1       3.712  -0.228  -1.782  0.00  0.00    -0.062 Cl
ENDBRANCH  11  13
BRANCH  10  20
ATOM     20  C   UNL     1      -2.353  -5.613  -2.432  0.00  0.00    +0.188 C 
BRANCH  20  21
ATOM     21  C   UNL     1      -3.304  -5.270  -3.549  0.00  0.00    +0.122 A 
ATOM     22  C   UNL     1      -3.098  -5.503  -4.858  0.00  0.00    +0.046 A 
ATOM     23  C   UNL     1      -4.238  -5.025  -5.544  0.00  0.00    +0.041 A 
ATOM     24  C   UNL     1      -5.073  -4.528  -4.614  0.00  0.00    +0.195 A 
ATOM     25  O   UNL     1      -4.505  -4.685  -3.407  0.00  0.00    -0.466 OA
ENDBRANCH  20  21
ENDBRANCH  10  20
ENDBRANCH   3  10
BRANCH   2  26
ATOM     26  N   UNL     1      -1.542  -1.844  -3.051  0.00  0.00    -0.343 N 
ATOM     27  H   UNL     1      -1.448  -0.914  -3.311  0.00  0.00    +0.144 HD
ATOM     28  H   UNL     1      -1.488  -2.543  -3.722  0.00  0.00    +0.144 HD
ENDBRANCH   2  26
BRANCH   1  29
ATOM     29  C   UNL     1      -2.090   0.210  -1.229  0.00  0.00    +0.128 C 
BRANCH  29  30
ATOM     30  C   UNL     1      -0.704   0.847  -1.110  0.00  0.00    +0.021 C 
BRANCH  30  32
ATOM     31  C   UNL     1       0.611   2.946  -1.432  0.00  0.00    +0.004 C 
ATOM     32  C   UNL     1      -0.775   2.310  -1.551  0.00  0.00    -0.002 C 
ENDBRANCH  30  32
ENDBRANCH  29  30
ENDBRANCH   1  29
TORSDOF 8
