REMARK  Name = ZINC16345922
REMARK  8 active torsions:
REMARK  status: ('A' for Active; 'I' for Inactive)
REMARK    1  A    between atoms: C_3  and  C_6
REMARK    2  A    between atoms: C_6  and  N_7
REMARK    3  A    between atoms: N_7  and  C_8
REMARK    4  A    between atoms: C_8  and  N_10
REMARK    5  A    between atoms: N_10  and  N_11
REMARK    6  A    between atoms: C_12  and  C_14
REMARK    7  A    between atoms: N_17  and  S_20
REMARK    8  A    between atoms: S_20  and  C_23
REMARK                            x       y       z     vdW  Elec       q    Type
REMARK                         _______ _______ _______ _____ _____    ______ ____
ROOT
ATOM      1  N   UNL     1       0.203   3.407   6.585  0.00  0.00    -0.235 N 
ATOM      2  C   UNL     1       1.208   3.277   5.697  0.00  0.00    +0.232 C 
ATOM      3  O   UNL     1       2.130   2.525   5.930  0.00  0.00    -0.274 OA
ATOM      4  H   UNL     1      -0.535   4.009   6.398  0.00  0.00    +0.173 HD
ENDROOT
BRANCH   2   5
ATOM      5  C   UNL     1       1.185   4.065   4.412  0.00  0.00    +0.079 C 
ATOM      6  C   UNL     1       2.432   3.735   3.589  0.00  0.00    +0.030 C 
ATOM      7  C   UNL     1       2.422   4.564   2.301  0.00  0.00    +0.110 C 
ATOM      8  N   UNL     1       1.155   4.329   1.596  0.00  0.00    -0.177 NA
ATOM      9  C   UNL     1      -0.106   4.534   2.323  0.00  0.00    +0.110 C 
ATOM     10  C   UNL     1      -0.068   3.700   3.612  0.00  0.00    +0.030 C 
BRANCH   8  11
ATOM     11  S   UNL     1       1.146   3.847   0.012  0.00  0.00    +0.061 S 
ATOM     12  O   UNL     1       2.381   4.274  -0.549  0.00  0.00    -0.153 OA
ATOM     13  O   UNL     1      -0.110   4.239  -0.525  0.00  0.00    -0.153 OA
BRANCH  11  14
ATOM     14  C   UNL     1       1.171   2.086   0.002  0.00  0.00    +0.106 A 
ATOM     15  C   UNL     1      -0.017   1.378   0.010  0.00  0.00    +0.029 A 
ATOM     16  C   UNL     1       0.002  -0.004   0.002  0.00  0.00    +0.017 A 
ATOM     17  C   UNL     1       1.209  -0.679  -0.013  0.00  0.00    +0.018 A 
ATOM     18  C   UNL     1       2.397   0.029  -0.021  0.00  0.00    +0.017 A 
ATOM     19  C   UNL     1       2.378   1.411  -0.013  0.00  0.00    +0.029 A 
ATOM     20 BR   UNL     1       1.236  -2.570  -0.023  0.00  0.00    -0.050 Br
ENDBRANCH  11  14
ENDBRANCH   8  11
ENDBRANCH   2   5
BRANCH   1  21
ATOM     21  N   UNL     1       0.224   2.675   7.779  0.00  0.00    -0.246 N 
ATOM     22  H   UNL     1       0.962   2.073   7.966  0.00  0.00    +0.172 HD
BRANCH  21  23
ATOM     23  C   UNL     1      -0.780   2.805   8.668  0.00  0.00    +0.147 C 
ATOM     24  S   UNL     1      -0.754   1.909  10.127  0.00  0.00    -0.017 S 
BRANCH  23  25
ATOM     25  N   UNL     1      -1.806   3.640   8.408  0.00  0.00    -0.318 N 
ATOM     26  H   UNL     1      -1.821   4.148   7.582  0.00  0.00    +0.148 HD
BRANCH  25  27
ATOM     27  C   UNL     1      -2.898   3.782   9.374  0.00  0.00    +0.177 C 
BRANCH  27  30
ATOM     28  C   UNL     1      -5.646   5.687   7.824  0.00  0.00    +0.041 A 
ATOM     29  C   UNL     1      -4.975   4.470   8.085  0.00  0.00    +0.046 A 
ATOM     30  C   UNL     1      -3.909   4.768   8.848  0.00  0.00    +0.122 A 
ATOM     31  O   UNL     1      -3.901   6.093   9.068  0.00  0.00    -0.466 OA
ATOM     32  C   UNL     1      -4.949   6.656   8.444  0.00  0.00    +0.195 A 
ENDBRANCH  27  30
ENDBRANCH  25  27
ENDBRANCH  23  25
ENDBRANCH  21  23
ENDBRANCH   1  21
TORSDOF 8
