REMARK  Name = ZINC57830865
REMARK  6 active torsions:
REMARK  status: ('A' for Active; 'I' for Inactive)
REMARK    1  A    between atoms: C_1  and  C_2
REMARK    2  A    between atoms: C_2  and  C_4
REMARK    3  A    between atoms: C_2  and  N_6
REMARK    4  A    between atoms: C_4  and  N_5
REMARK    5  A    between atoms: C_14  and  C_15
REMARK    6  A    between atoms: C_19  and  N_21
REMARK                            x       y       z     vdW  Elec       q    Type
REMARK                         _______ _______ _______ _____ _____    ______ ____
ROOT
ATOM      1  N   UNL     1      -1.509  -0.202  -0.118  0.00  0.00    -0.323 N 
ATOM      2  C   UNL     1      -2.128  -1.053  -1.014  0.00  0.00    +0.072 A 
ATOM      3  C   UNL     1      -1.769  -1.575  -2.249  0.00  0.00    +0.069 A 
ATOM      4  C   UNL     1      -2.631  -2.423  -2.913  0.00  0.00    +0.160 A 
ATOM      5  C   UNL     1      -3.860  -2.760  -2.353  0.00  0.00    +0.161 A 
ATOM      6  C   UNL     1      -4.232  -2.250  -1.129  0.00  0.00    +0.071 A 
ATOM      7  C   UNL     1      -3.368  -1.389  -0.443  0.00  0.00    +0.093 A 
ATOM      8  N   UNL     1      -3.449  -0.745   0.747  0.00  0.00    -0.227 NA
ATOM      9  C   UNL     1      -2.357  -0.049   0.947  0.00  0.00    +0.142 A 
ATOM     10  F   UNL     1      -4.694  -3.591  -3.014  0.00  0.00    -0.202 F 
ATOM     11  F   UNL     1      -2.280  -2.930  -4.115  0.00  0.00    -0.202 F 
ENDROOT
BRANCH   9  12
ATOM     12  C   UNL     1      -2.082   0.780   2.141  0.00  0.00    +0.019 A 
ATOM     13  C   UNL     1      -0.773   0.932   2.602  0.00  0.00    +0.011 A 
ATOM     14  C   UNL     1      -0.520   1.705   3.716  0.00  0.00    +0.002 A 
ATOM     15  C   UNL     1      -1.558   2.331   4.379  0.00  0.00    +0.023 A 
ATOM     16  C   UNL     1      -2.865   2.186   3.928  0.00  0.00    +0.025 A 
ATOM     17  C   UNL     1      -3.129   1.416   2.806  0.00  0.00    +0.034 A 
BRANCH  16  18
ATOM     18  N   UNL     1      -3.911   2.821   4.603  0.00  0.00    -0.358 N 
ATOM     19  H   UNL     1      -3.725   3.363   5.386  0.00  0.00    +0.142 HD
ATOM     20  H   UNL     1      -4.823   2.720   4.288  0.00  0.00    +0.142 HD
ENDBRANCH  16  18
ENDBRANCH   9  12
BRANCH   1  22
ATOM     21  C   UNL     1       0.887  -0.670  -0.264  0.00  0.00    +0.029 C 
ATOM     22  C   UNL     1      -0.191   0.417  -0.275  0.00  0.00    +0.069 C 
BRANCH  22  23
ATOM     23  C   UNL     1      -0.138   1.174  -1.603  0.00  0.00    -0.061 C 
BRANCH  23  24
ATOM     24  N   UNL     1      -1.123   2.263  -1.585  0.00  0.00    +0.379 N 
ATOM     25  H   UNL     1      -2.047   1.878  -1.454  0.00  0.00    -0.090 HD
ATOM     26  H   UNL     1      -0.912   2.896  -0.828  0.00  0.00    -0.090 HD
ATOM     27  H   UNL     1      -1.089   2.763  -2.461  0.00  0.00    -0.090 HD
ENDBRANCH  23  24
ENDBRANCH  22  23
ENDBRANCH   1  22
TORSDOF 5
