REMARK  Name = ZINC35456581
REMARK  10 active torsions:
REMARK  status: ('A' for Active; 'I' for Inactive)
REMARK    1  A    between atoms: C_1  and  C_2
REMARK    2  A    between atoms: C_6  and  C_32
REMARK    3  A    between atoms: C_9  and  C_10
REMARK    4  A    between atoms: C_9  and  C_11
REMARK    5  A    between atoms: C_11  and  C_12
REMARK    6  A    between atoms: C_12  and  C_13
REMARK    7  A    between atoms: C_15  and  O_20
REMARK    8  A    between atoms: O_20  and  C_21
REMARK    9  A    between atoms: C_23  and  O_31
REMARK   10  A    between atoms: C_25  and  O_30
REMARK                            x       y       z     vdW  Elec       q    Type
REMARK                         _______ _______ _______ _____ _____    ______ ____
ROOT
ATOM      1  C   UNL     1       0.325   1.784   0.275  0.00  0.00    +0.008 C 
ATOM      2  C   UNL     1       0.204   0.258   0.255  0.00  0.00    -0.008 C 
ATOM      3  C   UNL     1      -1.242  -0.155   0.057  0.00  0.00    +0.004 C 
ATOM      4  C   UNL     1      -2.046  -0.010   1.342  0.00  0.00    +0.010 C 
ATOM      5  C   UNL     1      -1.427  -0.868   2.446  0.00  0.00    +0.005 C 
ATOM      6  C   UNL     1       0.001  -0.415   2.724  0.00  0.00    +0.007 C 
ATOM      7  C   UNL     1       0.871  -0.346   1.479  0.00  0.00    -0.026 C 
ATOM      8  C   UNL     1       2.128   0.507   1.768  0.00  0.00    +0.012 C 
ATOM      9  C   UNL     1       0.027   0.906   3.487  0.00  0.00    +0.038 C 
ATOM     10  C   UNL     1      -0.755   0.804   4.803  0.00  0.00    +0.146 C 
ATOM     11  C   UNL     1      -2.228   0.555   4.471  0.00  0.00    +0.177 C 
ATOM     12  C   UNL     1      -2.313  -0.758   3.694  0.00  0.00    +0.126 C 
ATOM     13  C   UNL     1      -3.675  -1.456   3.666  0.00  0.00    +0.199 C 
ATOM     14  O   UNL     1      -2.573  -1.957   4.423  0.00  0.00    -0.365 OA
ATOM     15  C   UNL     1      -1.460  -2.346   2.021  0.00  0.00    +0.014 C 
ENDROOT
BRANCH  11  16
ATOM     16  O   UNL     1      -2.982   0.454   5.679  0.00  0.00    -0.386 OA
ATOM     17  H   UNL     1      -2.946   1.245   6.233  0.00  0.00    +0.210 HD
ENDBRANCH  11  16
BRANCH  10  18
ATOM     18  O   UNL     1      -0.244  -0.275   5.584  0.00  0.00    -0.389 OA
ATOM     19  H   UNL     1       0.690  -0.185   5.816  0.00  0.00    +0.210 HD
ENDBRANCH  10  18
BRANCH   7  20
ATOM     20  C   UNL     1       1.411  -1.743   1.121  0.00  0.00    +0.012 C 
BRANCH  20  21
ATOM     21  C   UNL     1       2.095  -2.355   2.345  0.00  0.00    +0.043 C 
BRANCH  21  22
ATOM     22  C   UNL     1       2.743  -3.660   1.958  0.00  0.00    +0.039 C 
ATOM     23  C   UNL     1       4.018  -3.815   1.608  0.00  0.00    +0.057 C 
ATOM     24  C   UNL     1       4.213  -5.283   1.310  0.00  0.00    +0.336 C 
ATOM     25  O   UNL     1       2.946  -5.911   1.526  0.00  0.00    -0.428 OA
ATOM     26  C   UNL     1       2.073  -4.963   1.914  0.00  0.00    +0.337 C 
ATOM     27  O   UNL     1       0.904  -5.157   2.184  0.00  0.00    -0.245 OA
BRANCH  24  28
ATOM     28  O   UNL     1       4.623  -5.458  -0.048  0.00  0.00    -0.342 OA
ATOM     29  C   UNL     1       4.941  -6.808  -0.390  0.00  0.00    +0.198 C 
ENDBRANCH  24  28
ENDBRANCH  21  22
ENDBRANCH  20  21
ENDBRANCH   7  20
TORSDOF 6
