REMARK  Name = ZINC08207995
REMARK  6 active torsions:
REMARK  status: ('A' for Active; 'I' for Inactive)
REMARK    1  A    between atoms: C_1  and  C_2
REMARK    2  A    between atoms: C_7  and  N_8
REMARK    3  A    between atoms: C_12  and  C_13
REMARK    4  A    between atoms: C_15  and  C_21
REMARK    5  A    between atoms: C_16  and  O_20
REMARK    6  A    between atoms: C_17  and  C_19
REMARK                            x       y       z     vdW  Elec       q    Type
REMARK                         _______ _______ _______ _____ _____    ______ ____
ROOT
ATOM      1  N   UNL     1       7.097   4.546   2.642  0.00  0.00    -0.216 N 
ATOM      2  C   UNL     1       6.927   4.399   1.312  0.00  0.00    +0.271 C 
ATOM      3  O   UNL     1       7.677   4.782   0.433  0.00  0.00    -0.268 OA
ATOM      4  C   UNL     1       5.655   3.682   1.139  0.00  0.00    +0.097 C 
ATOM      5  C   UNL     1       5.071   3.311  -0.029  0.00  0.00    +0.036 C 
ATOM      6  N   UNL     1       5.172   3.471   2.437  0.00  0.00    -0.292 N 
ATOM      7  C   UNL     1       6.064   3.995   3.296  0.00  0.00    +0.148 C 
ATOM      8  S   UNL     1       5.898   3.969   5.000  0.00  0.00    -0.018 S 
ATOM      9  H   UNL     1       4.344   3.024   2.673  0.00  0.00    +0.154 HD
ENDROOT
BRANCH   1  16
ATOM     10  C   UNL     1       9.367   2.965   3.311  0.00  0.00    +0.046 C 
ATOM     11  C   UNL     1       9.317   4.444   3.592  0.00  0.00    -0.027 A 
ATOM     12  C   UNL     1      10.393   5.071   4.190  0.00  0.00    +0.025 A 
ATOM     13  C   UNL     1      10.349   6.429   4.448  0.00  0.00    +0.041 A 
ATOM     14  C   UNL     1       9.226   7.164   4.108  0.00  0.00    +0.022 A 
ATOM     15  C   UNL     1       8.150   6.543   3.505  0.00  0.00    +0.025 A 
ATOM     16  C   UNL     1       8.190   5.179   3.250  0.00  0.00    +0.046 A 
ATOM     17 CL   UNL     1      11.703   7.214   5.199  0.00  0.00    -0.084 Cl
ENDBRANCH   1  16
BRANCH   5  18
ATOM     18  C   UNL     1       3.712   2.755  -0.025  0.00  0.00    -0.022 A 
ATOM     19  C   UNL     1       3.293   1.917  -1.066  0.00  0.00    +0.015 A 
ATOM     20  C   UNL     1       2.017   1.398  -1.058  0.00  0.00    -0.008 A 
ATOM     21  C   UNL     1       1.146   1.705  -0.019  0.00  0.00    +0.123 A 
ATOM     22  C   UNL     1       1.555   2.541   1.014  0.00  0.00    -0.008 A 
ATOM     23  C   UNL     1       2.830   3.060   1.019  0.00  0.00    +0.015 A 
ATOM     24  C   UNL     1       0.603   2.874   2.133  0.00  0.00    +0.047 C 
ATOM     25  C   UNL     1       1.565   0.497  -2.178  0.00  0.00    +0.047 C 
BRANCH  21  26
ATOM     26  O   UNL     1      -0.111   1.192  -0.017  0.00  0.00    -0.506 OA
ATOM     27  H   UNL     1      -0.186   0.339   0.434  0.00  0.00    +0.292 HD
ENDBRANCH  21  26
ENDBRANCH   5  18
TORSDOF 3
