REMARK  Name = ZINC26443748
REMARK  4 active torsions:
REMARK  status: ('A' for Active; 'I' for Inactive)
REMARK    1  A    between atoms: C_1  and  C_2
REMARK    2  A    between atoms: C_2  and  C_3
REMARK    3  A    between atoms: C_2  and  C_4
REMARK    4  A    between atoms: C_2  and  C_5
REMARK                            x       y       z     vdW  Elec       q    Type
REMARK                         _______ _______ _______ _____ _____    ______ ____
ROOT
ATOM      1  C   UNL     1      -0.205   0.879  -4.637  0.00  0.00    +0.053 A 
ATOM      2  C   UNL     1       0.866   0.009  -4.584  0.00  0.00    +0.057 A 
ATOM      3  C   UNL     1       1.393  -0.324  -3.334  0.00  0.00    +0.088 A 
ATOM      4  N   UNL     1       0.848   0.206  -2.242  0.00  0.00    -0.322 N 
ATOM      5  C   UNL     1      -0.179   1.037  -2.337  0.00  0.00    +0.197 A 
ATOM      6  N   UNL     1      -0.702   1.366  -3.509  0.00  0.00    -0.220 NA
ATOM      7  N   UNL     1      -0.719   1.577  -1.182  0.00  0.00    -0.301 N 
ATOM      8  C   UNL     1      -0.010   1.089   0.008  0.00  0.00    +0.108 C 
ATOM      9  C   UNL     1      -0.722   1.588   1.267  0.00  0.00    +0.019 C 
ATOM     10  C   UNL     1      -0.752   3.119   1.259  0.00  0.00    +0.003 C 
ATOM     11  C   UNL     1      -1.453   3.601  -0.015  0.00  0.00    +0.019 C 
ATOM     12  C   UNL     1      -0.719   3.044  -1.237  0.00  0.00    +0.108 C 
ATOM     13  S   UNL     1       2.759  -1.430  -3.204  0.00  0.00    -0.033 S 
ATOM     14  H   UNL     1       1.250  -0.044  -1.250  0.00  0.00    +0.169 HD
ENDROOT
BRANCH   1  16
ATOM     15  C   UNL     1      -1.636   0.110  -6.511  0.00  0.00    +0.017 C 
ATOM     16  C   UNL     1      -0.803   1.270  -5.964  0.00  0.00    +0.005 C 
ATOM     17  C   UNL     1      -1.698   2.497  -5.778  0.00  0.00    +0.017 C 
ATOM     18  C   UNL     1       0.319   1.602  -6.950  0.00  0.00    +0.017 C 
ENDBRANCH   1  16
TORSDOF 1
