REMARK  Name = ZINC36611843
REMARK  8 active torsions:
REMARK  status: ('A' for Active; 'I' for Inactive)
REMARK    1  A    between atoms: C_1  and  C_2
REMARK    2  A    between atoms: C_3  and  C_21
REMARK    3  A    between atoms: C_4  and  C_10
REMARK    4  A    between atoms: C_12  and  O_19
REMARK    5  A    between atoms: C_13  and  O_18
REMARK    6  A    between atoms: O_19  and  C_20
REMARK    7  A    between atoms: C_21  and  O_23
REMARK    8  A    between atoms: O_23  and  C_24
REMARK                            x       y       z     vdW  Elec       q    Type
REMARK                         _______ _______ _______ _____ _____    ______ ____
ROOT
ATOM      1  C   UNL     1      -0.472   1.594  -0.241  0.00  0.00    +0.061 C 
ATOM      2  C   UNL     1      -0.269   0.105  -0.126  0.00  0.00    +0.021 C 
ATOM      3  C   UNL     1      -1.343  -0.712  -0.105  0.00  0.00    +0.078 C 
ATOM      4  C   UNL     1      -1.094  -2.202   0.012  0.00  0.00    +0.145 C 
ATOM      5  N   UNL     1       0.310  -2.639   0.093  0.00  0.00    -0.288 N 
ATOM      6  C   UNL     1       1.277  -1.700   0.059  0.00  0.00    +0.304 C 
ATOM      7  O   UNL     1       2.439  -2.051   0.126  0.00  0.00    -0.252 OA
ATOM      8  N   UNL     1       0.999  -0.395  -0.051  0.00  0.00    -0.273 N 
ATOM      9  H   UNL     1       0.534  -3.580   0.170  0.00  0.00    +0.151 HD
ATOM     10  H   UNL     1       1.740   0.230  -0.074  0.00  0.00    +0.156 HD
ENDROOT
BRANCH   4  11
ATOM     11  C   UNL     1      -1.806  -2.697   1.245  0.00  0.00    +0.001 A 
ATOM     12  C   UNL     1      -2.192  -1.802   2.225  0.00  0.00    +0.056 A 
ATOM     13  C   UNL     1      -2.847  -2.255   3.358  0.00  0.00    +0.163 A 
ATOM     14  C   UNL     1      -3.114  -3.612   3.509  0.00  0.00    +0.173 A 
ATOM     15  C   UNL     1      -2.724  -4.505   2.524  0.00  0.00    +0.077 A 
ATOM     16  C   UNL     1      -2.076  -4.046   1.391  0.00  0.00    +0.063 A 
ATOM     17 CL   UNL     1      -1.594  -5.165   0.154  0.00  0.00    -0.082 Cl
ATOM     18  I   UNL     1      -3.124  -6.550   2.746  0.00  0.00    -0.038 I 
BRANCH  14  19
ATOM     19  O   UNL     1      -3.756  -4.061   4.621  0.00  0.00    -0.503 OA
ATOM     20  H   UNL     1      -4.719  -4.083   4.537  0.00  0.00    +0.292 HD
ENDBRANCH  14  19
BRANCH  13  21
ATOM     21  O   UNL     1      -3.227  -1.374   4.323  0.00  0.00    -0.491 OA
ATOM     22  C   UNL     1      -2.920   0.004   4.102  0.00  0.00    +0.277 C 
ENDBRANCH  13  21
ENDBRANCH   4  11
BRANCH   3  23
ATOM     23  C   UNL     1      -2.658  -0.195  -0.188  0.00  0.00    +0.338 C 
ATOM     24  O   UNL     1      -2.840   1.008  -0.177  0.00  0.00    -0.245 OA
BRANCH  23  25
ATOM     25  O   UNL     1      -3.709  -1.036  -0.281  0.00  0.00    -0.465 OA
ATOM     26  C   UNL     1      -5.007  -0.445  -0.362  0.00  0.00    +0.280 C 
ENDBRANCH  23  25
ENDBRANCH   3  23
TORSDOF 5
