REMARK  Name = ZINC21227919
REMARK  8 active torsions:
REMARK  status: ('A' for Active; 'I' for Inactive)
REMARK    1  A    between atoms: C_1  and  C_2
REMARK    2  A    between atoms: C_7  and  C_12
REMARK    3  A    between atoms: C_12  and  O_14
REMARK    4  A    between atoms: O_14  and  C_15
REMARK    5  A    between atoms: C_15  and  C_17
REMARK    6  A    between atoms: C_15  and  C_18
REMARK    7  A    between atoms: N_20  and  C_21
REMARK    8  A    between atoms: C_24  and  C_27
REMARK                            x       y       z     vdW  Elec       q    Type
REMARK                         _______ _______ _______ _____ _____    ______ ____
ROOT
ATOM      1  C   UNL     1      -0.672   1.441   1.192  0.00  0.00    +0.259 C 
ATOM      2  C   UNL     1       0.143   1.134  -0.066  0.00  0.00    +0.062 C 
ENDROOT
BRANCH   1   3
ATOM      3  C   UNL     1       0.073   0.948   2.406  0.00  0.00    +0.258 C 
ATOM      4  O   UNL     1      -0.391   0.052   3.079  0.00  0.00    -0.271 OA
ATOM      5  N   UNL     1       1.254   1.502   2.743  0.00  0.00    -0.282 N 
ATOM      6  H   UNL     1       1.717   2.253   2.086  0.00  0.00    +0.155 HD
BRANCH   5   7
ATOM      7  C   UNL     1       1.890   1.123   3.925  0.00  0.00    +0.034 A 
ATOM      8  C   UNL     1       1.133   0.787   5.043  0.00  0.00    +0.024 A 
ATOM      9  C   UNL     1       1.758   0.407   6.210  0.00  0.00    +0.015 A 
ATOM     10  C   UNL     1       3.154   0.371   6.274  0.00  0.00    +0.037 A 
ATOM     11  C   UNL     1       3.910   0.715   5.151  0.00  0.00    +0.015 A 
ATOM     12  C   UNL     1       3.280   1.088   3.985  0.00  0.00    +0.024 A 
BRANCH  10  13
ATOM     13  C   UNL     1       3.827  -0.030   7.525  0.00  0.00    +0.242 C 
ATOM     14  O   UNL     1       5.041  -0.061   7.579  0.00  0.00    -0.270 OA
ATOM     15  N   UNL     1       3.095  -0.361   8.607  0.00  0.00    -0.325 N 
ATOM     16  H   UNL     1       3.597  -0.660   9.540  0.00  0.00    +0.145 HD
ATOM     17  H   UNL     1       1.997  -0.333   8.559  0.00  0.00    +0.145 HD
ENDBRANCH  10  13
ENDBRANCH   5   7
ENDBRANCH   1   3
BRANCH   1  18
ATOM     18  O   UNL     1      -1.959   0.774   1.110  0.00  0.00    -0.449 OA
BRANCH  18  19
ATOM     19  C   UNL     1      -2.968   1.461   0.537  0.00  0.00    +0.341 C 
ATOM     20  O   UNL     1      -2.777   2.586   0.118  0.00  0.00    -0.245 OA
BRANCH  19  26
ATOM     21  C   UNL     1      -8.966   3.379  -1.826  0.00  0.00    +0.008 C 
ATOM     22  C   UNL     1      -7.788   2.894  -0.979  0.00  0.00    -0.009 C 
ATOM     23  C   UNL     1      -6.473   3.230  -1.688  0.00  0.00    +0.008 C 
ATOM     24  C   UNL     1      -5.294   2.981  -0.746  0.00  0.00    +0.037 C 
ATOM     25  C   UNL     1      -5.404   1.567  -0.188  0.00  0.00    -0.023 A 
ATOM     26  C   UNL     1      -4.300   0.848   0.420  0.00  0.00    +0.069 A 
ATOM     27  C   UNL     1      -4.542  -0.425   0.888  0.00  0.00    +0.060 A 
ATOM     28  S   UNL     1      -6.217  -0.672   0.520  0.00  0.00    -0.100 S 
ATOM     29  C   UNL     1      -6.573   0.888  -0.237  0.00  0.00    -0.006 A 
ATOM     30  C   UNL     1      -7.873   1.368  -0.803  0.00  0.00    +0.046 C 
ENDBRANCH  19  26
ENDBRANCH  18  19
ENDBRANCH   1  18
TORSDOF 6
