REMARK  Name = ZINC38688517
REMARK  9 active torsions:
REMARK  status: ('A' for Active; 'I' for Inactive)
REMARK    1  A    between atoms: C_1  and  C_2
REMARK    2  A    between atoms: C_4  and  C_34
REMARK    3  A    between atoms: C_6  and  C_33
REMARK    4  A    between atoms: C_7  and  C_11
REMARK    5  A    between atoms: C_11  and  O_13
REMARK    6  A    between atoms: O_13  and  C_14
REMARK    7  A    between atoms: C_21  and  N_32
REMARK    8  A    between atoms: C_22  and  C_30
REMARK    9  A    between atoms: C_23  and  C_25
REMARK                            x       y       z     vdW  Elec       q    Type
REMARK                         _______ _______ _______ _____ _____    ______ ____
ROOT
ATOM      1  C   UNL     1       0.151  -6.144   5.035  0.00  0.00    +0.136 A 
ATOM      2  C   UNL     1       0.171  -7.423   4.495  0.00  0.00    +0.047 A 
ATOM      3  C   UNL     1       0.153  -8.523   5.329  0.00  0.00    +0.012 A 
ATOM      4  C   UNL     1       0.114  -8.358   6.702  0.00  0.00    +0.011 A 
ATOM      5  C   UNL     1       0.094  -7.083   7.246  0.00  0.00    +0.138 A 
ATOM      6  C   UNL     1       0.119  -5.975   6.409  0.00  0.00    +0.093 A 
ATOM      7  O   UNL     1       0.056  -6.900   8.589  0.00  0.00    -0.441 OA
ATOM      8  C   UNL     1       0.418  -7.899   9.412  0.00  0.00    +0.199 C 
ATOM      9  C   UNL     1       0.457  -9.188   9.000  0.00  0.00    +0.101 C 
ATOM     10  C   UNL     1       0.093  -9.571   7.594  0.00  0.00    +0.134 C 
ENDROOT
BRANCH  10  11
ATOM     11  C   UNL     1       1.082 -10.585   7.080  0.00  0.00    +0.117 A 
ATOM     12  C   UNL     1       0.790 -11.834   6.676  0.00  0.00    +0.045 A 
ATOM     13  C   UNL     1       2.008 -12.431   6.277  0.00  0.00    +0.041 A 
ATOM     14  C   UNL     1       2.972 -11.511   6.462  0.00  0.00    +0.195 A 
ATOM     15  O   UNL     1       2.404 -10.393   6.943  0.00  0.00    -0.467 OA
ENDBRANCH  10  11
BRANCH   8  16
ATOM     16  N   UNL     1       0.761  -7.602  10.707  0.00  0.00    -0.328 N 
ATOM     17  H   UNL     1       0.738  -6.683  11.017  0.00  0.00    +0.145 HD
ATOM     18  H   UNL     1       1.025  -8.312  11.313  0.00  0.00    +0.145 HD
ENDBRANCH   8  16
BRANCH   9  19
ATOM     19  C   UNL     1       0.854 -10.208   9.924  0.00  0.00    +0.101 C 
ATOM     20  N   UNL     1       1.168 -11.016  10.658  0.00  0.00    -0.191 NA
ENDBRANCH   9  19
BRANCH   1  21
ATOM     21  O   UNL     1       0.170  -5.059   4.216  0.00  0.00    -0.420 OA
BRANCH  21  22
ATOM     22  C   UNL     1       1.294  -4.316   4.174  0.00  0.00    +0.380 C 
ATOM     23  O   UNL     1       2.284  -4.677   4.781  0.00  0.00    -0.241 OA
BRANCH  22  30
ATOM     24  C   UNL     1      -0.175   1.551  -0.103  0.00  0.00    +0.044 C 
ATOM     25  C   UNL     1       0.575   0.595   0.789  0.00  0.00    -0.047 A 
ATOM     26  C   UNL     1       1.896   0.863   1.125  0.00  0.00    +0.007 A 
ATOM     27  C   UNL     1       2.591   0.008   1.932  0.00  0.00    -0.039 A 
ATOM     28  C   UNL     1       1.968  -1.143   2.422  0.00  0.00    +0.027 A 
ATOM     29  C   UNL     1       2.396  -2.244   3.284  0.00  0.00    +0.010 A 
ATOM     30  C   UNL     1       1.323  -3.071   3.397  0.00  0.00    +0.216 A 
ATOM     31  O   UNL     1       0.288  -2.574   2.687  0.00  0.00    -0.448 OA
ATOM     32  C   UNL     1       0.630  -1.418   2.086  0.00  0.00    +0.137 A 
ATOM     33  C   UNL     1      -0.059  -0.531   1.266  0.00  0.00    +0.050 A 
ATOM     34  C   UNL     1       3.751  -2.427   3.916  0.00  0.00    +0.048 C 
ATOM     35  C   UNL     1       4.025   0.304   2.291  0.00  0.00    +0.044 C 
ENDBRANCH  22  30
ENDBRANCH  21  22
ENDBRANCH   1  21
TORSDOF 6
