REMARK  Name = ZINC02316557
REMARK  8 active torsions:
REMARK  status: ('A' for Active; 'I' for Inactive)
REMARK    1  A    between atoms: C_1  and  C_2
REMARK    2  A    between atoms: C_2  and  N_47
REMARK    3  A    between atoms: C_8  and  N_13
REMARK    4  A    between atoms: C_9  and  C_10
REMARK    5  A    between atoms: N_13  and  C_14
REMARK    6  A    between atoms: C_14  and  N_16
REMARK    7  A    between atoms: C_17  and  C_19
REMARK    8  A    between atoms: C_20  and  C_21
REMARK                            x       y       z     vdW  Elec       q    Type
REMARK                         _______ _______ _______ _____ _____    ______ ____
ROOT
ATOM      1  C   UNL     1       4.580   5.499   0.428  0.00  0.00    -0.074 C 
ATOM      2  C   UNL     1       3.112   5.395   0.003  0.00  0.00    +0.018 C 
ATOM      3  C   UNL     1       2.724   3.921  -0.003  0.00  0.00    -0.027 A 
ATOM      4  C   UNL     1       3.681   2.967  -0.018  0.00  0.00    -0.021 A 
ATOM      5  S   UNL     1       2.794   1.437  -0.018  0.00  0.00    -0.079 S 
ATOM      6  C   UNL     1       1.174   2.053   0.002  0.00  0.00    +0.084 A 
ATOM      7  C   UNL     1       1.359   3.429   0.002  0.00  0.00    +0.068 A 
ATOM      8  C   UNL     1       5.161   3.193  -0.034  0.00  0.00    -0.035 C 
ATOM      9  N   UNL     1       5.400   4.606  -0.416  0.00  0.00    +0.383 N 
ATOM     10  H   UNL     1       5.132   4.736  -1.399  0.00  0.00    -0.081 HD
ENDROOT
BRANCH   7  11
ATOM     11  C   UNL     1       0.218   4.350   0.010  0.00  0.00    +0.244 C 
ATOM     12  O   UNL     1      -0.248   4.732   1.068  0.00  0.00    -0.270 OA
ATOM     13  N   UNL     1      -0.314   4.774  -1.153  0.00  0.00    -0.325 N 
ATOM     14  H   UNL     1       0.057   4.470  -1.996  0.00  0.00    +0.145 HD
ATOM     15  H   UNL     1      -1.069   5.383  -1.148  0.00  0.00    +0.145 HD
ENDBRANCH   7  11
BRANCH   9  17
ATOM     16  C   UNL     1       7.243   4.856   1.211  0.00  0.00    -0.017 C 
ATOM     17  C   UNL     1       6.833   4.937  -0.261  0.00  0.00    -0.082 C 
ENDBRANCH   9  17
BRANCH   6  18
ATOM     18  N   UNL     1      -0.016   1.344   0.009  0.00  0.00    -0.291 N 
ATOM     19  H   UNL     1      -0.863   1.817   0.016  0.00  0.00    +0.154 HD
BRANCH  18  20
ATOM     20  C   UNL     1       0.002  -0.004   0.002  0.00  0.00    +0.141 C 
ATOM     21  S   UNL     1       1.496  -0.840  -0.017  0.00  0.00    -0.018 S 
BRANCH  20  22
ATOM     22  N   UNL     1      -1.156  -0.694   0.009  0.00  0.00    -0.264 N 
ATOM     23  C   UNL     1      -1.137  -2.041   0.002  0.00  0.00    +0.242 C 
ATOM     24  O   UNL     1      -0.075  -2.636  -0.011  0.00  0.00    -0.270 OA
ATOM     25  H   UNL     1      -2.002  -0.220   0.020  0.00  0.00    +0.157 HD
BRANCH  23  26
ATOM     26  C   UNL     1      -2.352  -2.765   0.010  0.00  0.00    +0.071 C 
ATOM     27  C   UNL     1      -2.334  -4.122   0.002  0.00  0.00    +0.051 C 
BRANCH  27  28
ATOM     28  C   UNL     1      -3.550  -4.846   0.010  0.00  0.00    +0.128 A 
ATOM     29  C   UNL     1      -3.678  -6.220  -0.002  0.00  0.00    +0.049 A 
ATOM     30  C   UNL     1      -5.054  -6.493   0.015  0.00  0.00    +0.042 A 
ATOM     31  C   UNL     1      -5.697  -5.304   0.027  0.00  0.00    +0.195 A 
ATOM     32  O   UNL     1      -4.791  -4.317   0.024  0.00  0.00    -0.464 OA
ENDBRANCH  27  28
ENDBRANCH  23  26
ENDBRANCH  20  22
ENDBRANCH  18  20
ENDBRANCH   6  18
TORSDOF 7
