REMARK  Name = ZINC45725034
REMARK  10 active torsions:
REMARK  status: ('A' for Active; 'I' for Inactive)
REMARK    1  A    between atoms: C_1  and  C_2
REMARK    2  A    between atoms: C_2  and  C_3
REMARK    3  A    between atoms: C_6  and  C_9
REMARK    4  A    between atoms: C_9  and  C_11
REMARK    5  A    between atoms: C_9  and  N_14
REMARK    6  A    between atoms: C_11  and  C_12
REMARK    7  A    between atoms: C_11  and  C_13
REMARK    8  A    between atoms: N_17  and  C_18
REMARK    9  A    between atoms: C_23  and  C_24
REMARK   10  A    between atoms: C_24  and  C_25
REMARK                            x       y       z     vdW  Elec       q    Type
REMARK                         _______ _______ _______ _____ _____    ______ ____
ROOT
ATOM      1  N   UNL     1       3.707  -2.871  -4.375  0.00  0.00    -0.292 N 
ATOM      2  C   UNL     1       4.113  -3.788  -5.275  0.00  0.00    +0.304 C 
ATOM      3  O   UNL     1       3.638  -3.793  -6.394  0.00  0.00    -0.252 OA
ATOM      4  N   UNL     1       5.047  -4.698  -4.935  0.00  0.00    -0.269 N 
ATOM      5  H   UNL     1       4.086  -2.866  -3.482  0.00  0.00    +0.151 HD
ATOM      6  H   UNL     1       5.485  -4.644  -4.071  0.00  0.00    +0.156 HD
ENDROOT
BRANCH   4   7
ATOM      7  C   UNL     1       5.384  -5.722  -5.827  0.00  0.00    +0.038 A 
ATOM      8  C   UNL     1       4.472  -6.133  -6.791  0.00  0.00    +0.023 A 
ATOM      9  C   UNL     1       4.808  -7.144  -7.671  0.00  0.00    +0.002 A 
ATOM     10  C   UNL     1       6.050  -7.746  -7.593  0.00  0.00    +0.000 A 
ATOM     11  C   UNL     1       6.960  -7.339  -6.634  0.00  0.00    +0.006 A 
ATOM     12  C   UNL     1       6.633  -6.325  -5.755  0.00  0.00    -0.017 A 
BRANCH  12  13
ATOM     13  C   UNL     1       7.627  -5.878  -4.715  0.00  0.00    +0.132 C 
BRANCH  13  14
ATOM     14  C   UNL     1       7.362  -6.604  -3.422  0.00  0.00    +0.215 C 
ATOM     15  O   UNL     1       6.455  -7.406  -3.352  0.00  0.00    -0.276 OA
ATOM     16  N   UNL     1       8.133  -6.363  -2.343  0.00  0.00    -0.329 N 
ATOM     17  H   UNL     1       8.858  -5.722  -2.399  0.00  0.00    +0.145 HD
ATOM     18  H   UNL     1       7.962  -6.831  -1.510  0.00  0.00    +0.145 HD
ENDBRANCH  13  14
ENDBRANCH  12  13
ENDBRANCH   4   7
BRANCH   1  19
ATOM     19  C   UNL     1       2.692  -1.881  -4.745  0.00  0.00    +0.107 C 
BRANCH  19  23
ATOM     20  C   UNL     1       0.669  -0.536  -1.231  0.00  0.00    -0.048 A 
ATOM     21  C   UNL     1      -0.043  -0.760  -2.395  0.00  0.00    +0.004 A 
ATOM     22  C   UNL     1       0.612  -1.196  -3.532  0.00  0.00    +0.006 A 
ATOM     23  C   UNL     1       1.978  -1.406  -3.505  0.00  0.00    -0.027 A 
ATOM     24  C   UNL     1       2.690  -1.181  -2.342  0.00  0.00    +0.006 A 
ATOM     25  C   UNL     1       2.035  -0.742  -1.206  0.00  0.00    +0.004 A 
BRANCH  20  27
ATOM     26  C   UNL     1      -0.073   1.467   0.027  0.00  0.00    +0.009 C 
ATOM     27  C   UNL     1      -0.045  -0.062   0.009  0.00  0.00    +0.032 C 
ENDBRANCH  20  27
ENDBRANCH  19  23
BRANCH  19  28
ATOM     28  C   UNL     1       3.366  -0.692  -5.432  0.00  0.00    +0.008 C 
ATOM     29  C   UNL     1       4.091  -1.175  -6.691  0.00  0.00    +0.009 C 
ATOM     30  C   UNL     1       2.307   0.342  -5.819  0.00  0.00    +0.009 C 
ENDBRANCH  19  28
ENDBRANCH   1  19
TORSDOF 7
