REMARK  Name = ZINC35476595
REMARK  13 active torsions:
REMARK  status: ('A' for Active; 'I' for Inactive)
REMARK    1  A    between atoms: C_1  and  C_2
REMARK    2  A    between atoms: C_2  and  O_3
REMARK    3  A    between atoms: O_3  and  C_4
REMARK    4  A    between atoms: C_7  and  S_18
REMARK    5  A    between atoms: C_9  and  C_10
REMARK    6  A    between atoms: C_12  and  C_15
REMARK    7  A    between atoms: C_15  and  C_16
REMARK    8  A    between atoms: C_15  and  C_17
REMARK    9  A    between atoms: S_18  and  N_21
REMARK   10  A    between atoms: N_21  and  C_22
REMARK   11  A    between atoms: C_23  and  C_35
REMARK   12  A    between atoms: N_24  and  C_34
REMARK   13  A    between atoms: N_25  and  C_28
REMARK                            x       y       z     vdW  Elec       q    Type
REMARK                         _______ _______ _______ _____ _____    ______ ____
ROOT
ATOM      1  S   UNL     1       0.916  -5.398  -1.855  0.00  0.00    +0.073 S 
ATOM      2  O   UNL     1       2.050  -5.808  -2.608  0.00  0.00    -0.150 OA
ATOM      3  O   UNL     1       0.841  -5.555  -0.445  0.00  0.00    -0.150 OA
ENDROOT
BRANCH   1   7
ATOM      4  C   UNL     1       0.315  -0.977  -2.686  0.00  0.00    +0.133 A 
ATOM      5  C   UNL     1      -0.428  -1.612  -1.703  0.00  0.00    +0.048 A 
ATOM      6  C   UNL     1      -0.241  -2.958  -1.455  0.00  0.00    +0.032 A 
ATOM      7  C   UNL     1       0.688  -3.682  -2.184  0.00  0.00    +0.109 A 
ATOM      8  C   UNL     1       1.435  -3.066  -3.164  0.00  0.00    +0.045 A 
ATOM      9  C   UNL     1       1.252  -1.707  -3.429  0.00  0.00    +0.083 A 
BRANCH   9  10
ATOM     10  C   UNL     1       2.044  -1.042  -4.482  0.00  0.00    +0.262 A 
ATOM     11  N   UNL     1       2.946  -1.615  -5.249  0.00  0.00    -0.191 NA
ATOM     12  C   UNL     1       3.466  -0.718  -6.089  0.00  0.00    +0.175 A 
ATOM     13  N   UNL     1       2.908   0.440  -5.877  0.00  0.00    -0.061 NA
ATOM     14  O   UNL     1       1.967   0.255  -4.830  0.00  0.00    -0.333 OA
BRANCH  12  15
ATOM     15  C   UNL     1       4.528  -1.000  -7.120  0.00  0.00    +0.054 C 
ATOM     16  C   UNL     1       3.985  -0.677  -8.514  0.00  0.00    +0.015 C 
ATOM     17  C   UNL     1       5.756  -0.132  -6.838  0.00  0.00    +0.015 C 
ENDBRANCH  12  15
ENDBRANCH   9  10
BRANCH   4  18
ATOM     18  O   UNL     1       0.132   0.345  -2.931  0.00  0.00    -0.491 OA
BRANCH  18  20
ATOM     19  C   UNL     1      -0.905   2.495  -2.551  0.00  0.00    +0.048 C 
ATOM     20  C   UNL     1      -0.840   1.024  -2.133  0.00  0.00    +0.226 C 
ENDBRANCH  18  20
ENDBRANCH   4  18
ENDBRANCH   1   7
BRANCH   1  21
ATOM     21  N   UNL     1      -0.388  -6.196  -2.491  0.00  0.00    -0.209 N 
ATOM     22  H   UNL     1      -1.012  -6.650  -1.904  0.00  0.00    +0.174 HD
BRANCH  21  23
ATOM     23  C   UNL     1      -0.591  -6.216  -3.888  0.00  0.00    +0.135 A 
ATOM     24  C   UNL     1      -1.663  -6.730  -4.526  0.00  0.00    +0.061 A 
ATOM     25  N   UNL     1      -1.485  -6.556  -5.877  0.00  0.00    -0.282 N 
ATOM     26  N   UNL     1      -0.258  -5.911  -6.077  0.00  0.00    -0.216 N 
ATOM     27  C   UNL     1       0.294  -5.693  -4.866  0.00  0.00    +0.295 A 
ATOM     28  O   UNL     1       1.362  -5.148  -4.651  0.00  0.00    -0.264 OA
ATOM     29  C   UNL     1      -2.417  -6.974  -6.928  0.00  0.00    +0.171 C 
ATOM     30  C   UNL     1      -2.852  -7.383  -3.869  0.00  0.00    +0.067 C 
BRANCH  26  31
ATOM     31  C   UNL     1       0.294  -5.552  -7.310  0.00  0.00    +0.067 A 
ATOM     32  C   UNL     1       1.618  -5.862  -7.597  0.00  0.00    +0.028 A 
ATOM     33  C   UNL     1       2.160  -5.506  -8.816  0.00  0.00    +0.002 A 
ATOM     34  C   UNL     1       1.386  -4.843  -9.752  0.00  0.00    +0.000 A 
ATOM     35  C   UNL     1       0.069  -4.533  -9.469  0.00  0.00    +0.002 A 
ATOM     36  C   UNL     1      -0.481  -4.891  -8.254  0.00  0.00    +0.028 A 
ENDBRANCH  26  31
ENDBRANCH  21  23
ENDBRANCH   1  21
TORSDOF 8
