REMARK  Name = ZINC39336778
REMARK  6 active torsions:
REMARK  status: ('A' for Active; 'I' for Inactive)
REMARK    1  A    between atoms: C_1  and  C_2
REMARK    2  A    between atoms: C_2  and  N_3
REMARK    3  A    between atoms: C_4  and  C_9
REMARK    4  A    between atoms: C_11  and  N_31
REMARK    5  A    between atoms: C_14  and  C_26
REMARK    6  A    between atoms: C_16  and  C_20
REMARK                            x       y       z     vdW  Elec       q    Type
REMARK                         _______ _______ _______ _____ _____    ______ ____
ROOT
ATOM      1  C   UNL     1      -1.725  -0.651   2.550  0.00  0.00    +0.233 C 
ATOM      2  C   UNL     1      -2.442   0.552   3.207  0.00  0.00    +0.011 C 
ATOM      3  C   UNL     1      -3.662  -0.108   3.817  0.00  0.00    +0.014 A 
ATOM      4  C   UNL     1      -4.859   0.405   4.313  0.00  0.00    +0.026 A 
ATOM      5  C   UNL     1      -5.807  -0.497   4.813  0.00  0.00    +0.040 A 
ATOM      6  C   UNL     1      -5.510  -1.854   4.791  0.00  0.00    +0.075 A 
ATOM      7  N   UNL     1      -4.355  -2.295   4.313  0.00  0.00    -0.213 NA
ATOM      8  C   UNL     1      -3.425  -1.475   3.832  0.00  0.00    +0.218 A 
ATOM      9  O   UNL     1      -2.190  -1.766   3.329  0.00  0.00    -0.466 OA
ENDROOT
BRANCH   1  11
ATOM     10  N   UNL     1      -1.372  -0.511   0.012  0.00  0.00    -0.303 N 
ATOM     11  C   UNL     1      -2.139  -0.798   1.108  0.00  0.00    +0.174 A 
ATOM     12  N   UNL     1      -3.292  -1.221   0.675  0.00  0.00    -0.130 NA
ATOM     13  N   UNL     1      -3.308  -1.222  -0.610  0.00  0.00    -0.122 NA
ATOM     14  C   UNL     1      -2.156  -0.790  -1.070  0.00  0.00    +0.203 A 
ATOM     15  S   UNL     1      -1.707  -0.609  -2.764  0.00  0.00    -0.009 SA
BRANCH  10  17
ATOM     16  C   UNL     1      -0.019   1.526   0.010  0.00  0.00    +0.027 C 
ATOM     17  C   UNL     1       0.002  -0.004   0.002  0.00  0.00    +0.122 C 
ENDBRANCH  10  17
ENDBRANCH   1  11
BRANCH   6  18
ATOM     18  C   UNL     1      -6.503  -2.826   5.312  0.00  0.00    +0.000 A 
ATOM     19  C   UNL     1      -7.723  -2.378   5.813  0.00  0.00    +0.010 A 
ATOM     20  C   UNL     1      -8.643  -3.287   6.296  0.00  0.00    +0.001 A 
ATOM     21  C   UNL     1      -8.354  -4.640   6.284  0.00  0.00    +0.000 A 
ATOM     22  C   UNL     1      -7.144  -5.090   5.788  0.00  0.00    +0.001 A 
ATOM     23  C   UNL     1      -6.219  -4.190   5.297  0.00  0.00    +0.010 A 
ENDBRANCH   6  18
BRANCH   4  24
ATOM     24  C   UNL     1      -5.120   1.859   4.311  0.00  0.00    +0.135 A 
ATOM     25  C   UNL     1      -6.242   2.467   3.842  0.00  0.00    +0.050 A 
ATOM     26  C   UNL     1      -6.066   3.851   4.038  0.00  0.00    +0.042 A 
ATOM     27  C   UNL     1      -4.857   4.017   4.611  0.00  0.00    +0.196 A 
ATOM     28  O   UNL     1      -4.292   2.812   4.780  0.00  0.00    -0.463 OA
ENDBRANCH   4  24
BRANCH   2  29
ATOM     29  N   UNL     1      -1.600   1.163   4.244  0.00  0.00    +0.385 N 
ATOM     30  H   UNL     1      -0.738   1.486   3.830  0.00  0.00    -0.089 HD
ATOM     31  H   UNL     1      -2.088   1.944   4.657  0.00  0.00    -0.089 HD
ATOM     32  H   UNL     1      -1.395   0.480   4.957  0.00  0.00    -0.089 HD
ENDBRANCH   2  29
TORSDOF 5
