REMARK  Name = ZINC40151854
REMARK  6 active torsions:
REMARK  status: ('A' for Active; 'I' for Inactive)
REMARK    1  A    between atoms: C_11  and  C_14
REMARK    2  A    between atoms: C_14  and  O_16
REMARK    3  A    between atoms: O_16  and  C_17
REMARK    4  A    between atoms: C_17  and  C_18
REMARK    5  A    between atoms: C_21  and  C_33
REMARK    6  A    between atoms: C_24  and  C_26
REMARK                            x       y       z     vdW  Elec       q    Type
REMARK                         _______ _______ _______ _____ _____    ______ ____
ROOT
ATOM      1  C   UNL     1      -2.788  -7.489  -2.714  0.00  0.00    +0.273 C 
ATOM      2  O   UNL     1      -1.975  -7.504  -3.613  0.00  0.00    -0.270 OA
ATOM      3  N   UNL     1      -3.809  -8.369  -2.714  0.00  0.00    -0.179 N 
ATOM      4  C   UNL     1      -4.050  -9.401  -3.735  0.00  0.00    +0.173 C 
ATOM      5  C   UNL     1      -5.328 -10.107  -3.241  0.00  0.00    +0.090 C 
ATOM      6  C   UNL     1      -5.676  -9.378  -1.963  0.00  0.00    +0.069 C 
ATOM      7  N   UNL     1      -4.805  -8.455  -1.743  0.00  0.00    -0.181 NA
ENDROOT
BRANCH   6   8
ATOM      8  C   UNL     1      -6.833  -9.680  -1.099  0.00  0.00    -0.002 A 
ATOM      9  C   UNL     1      -7.708 -10.716  -1.435  0.00  0.00    +0.011 A 
ATOM     10  C   UNL     1      -8.787 -10.993  -0.622  0.00  0.00    +0.020 A 
ATOM     11  C   UNL     1      -9.004 -10.248   0.524  0.00  0.00    +0.041 A 
ATOM     12  C   UNL     1      -8.140  -9.219   0.863  0.00  0.00    +0.020 A 
ATOM     13  C   UNL     1      -7.054  -8.935   0.062  0.00  0.00    +0.011 A 
ATOM     14 CL   UNL     1     -10.366 -10.603   1.541  0.00  0.00    -0.084 Cl
ENDBRANCH   6   8
BRANCH   4  15
ATOM     15  C   UNL     1      -4.277  -8.769  -5.084  0.00  0.00    +0.128 A 
ATOM     16  C   UNL     1      -3.833  -9.246  -6.261  0.00  0.00    +0.046 A 
ATOM     17  C   UNL     1      -4.271  -8.346  -7.259  0.00  0.00    +0.041 A 
ATOM     18  C   UNL     1      -4.955  -7.372  -6.633  0.00  0.00    +0.195 A 
ATOM     19  O   UNL     1      -4.961  -7.637  -5.316  0.00  0.00    -0.466 OA
ENDBRANCH   4  15
BRANCH   1  20
ATOM     20  C   UNL     1      -2.659  -6.485  -1.597  0.00  0.00    +0.329 C 
BRANCH  20  21
ATOM     21  O   UNL     1      -1.507  -5.670  -1.821  0.00  0.00    -0.455 OA
BRANCH  21  22
ATOM     22  C   UNL     1      -1.247  -4.719  -0.910  0.00  0.00    +0.312 C 
ATOM     23  O   UNL     1      -1.973  -4.583   0.046  0.00  0.00    -0.250 OA
BRANCH  22  34
ATOM     24  C   UNL     1       2.370   1.437   0.014  0.00  0.00    +0.005 A 
ATOM     25  C   UNL     1       1.127   2.057   0.003  0.00  0.00    +0.018 A 
ATOM     26  C   UNL     1      -0.015   1.282  -0.017  0.00  0.00    +0.084 A 
ATOM     27  N   UNL     1       0.061  -0.036  -0.025  0.00  0.00    -0.350 N 
ATOM     28  C   UNL     1       1.227  -0.664  -0.014  0.00  0.00    +0.099 A 
ATOM     29  C   UNL     1       2.418   0.054   0.005  0.00  0.00    +0.042 A 
ATOM     30  N   UNL     1       1.260  -2.054  -0.022  0.00  0.00    -0.316 N 
ATOM     31  C   UNL     1       2.537  -2.771  -0.142  0.00  0.00    +0.106 C 
ATOM     32  C   UNL     1       2.440  -3.759  -1.309  0.00  0.00    +0.020 C 
ATOM     33  C   UNL     1       1.226  -4.667  -1.103  0.00  0.00    +0.018 C 
ATOM     34  C   UNL     1      -0.049  -3.820  -1.080  0.00  0.00    +0.115 C 
ATOM     35  C   UNL     1       0.021  -2.833   0.096  0.00  0.00    +0.121 C 
ATOM     36  H   UNL     1      -0.757  -0.557  -0.038  0.00  0.00    +0.166 HD
ENDBRANCH  22  34
ENDBRANCH  21  22
ENDBRANCH  20  21
ENDBRANCH   1  20
TORSDOF 6
