REMARK  Name = ZINC39530473
REMARK  9 active torsions:
REMARK  status: ('A' for Active; 'I' for Inactive)
REMARK    1  A    between atoms: C_1  and  S_2
REMARK    2  A    between atoms: S_2  and  C_3
REMARK    3  A    between atoms: C_6  and  N_19
REMARK    4  A    between atoms: C_7  and  S_9
REMARK    5  A    between atoms: S_9  and  O_12
REMARK    6  A    between atoms: O_12  and  C_13
REMARK    7  A    between atoms: C_23  and  S_26
REMARK    8  A    between atoms: S_26  and  O_29
REMARK    9  A    between atoms: O_29  and  C_30
REMARK                            x       y       z     vdW  Elec       q    Type
REMARK                         _______ _______ _______ _____ _____    ______ ____
ROOT
ATOM      1  C   UNL     1       0.586  -0.538  -1.456  0.00  0.00    +0.010 A 
ATOM      2  C   UNL     1       0.891   0.508  -2.318  0.00  0.00    +0.016 A 
ATOM      3  C   UNL     1       1.523   0.252  -3.518  0.00  0.00    +0.026 A 
ATOM      4  C   UNL     1       1.854  -1.052  -3.864  0.00  0.00    +0.058 A 
ATOM      5  C   UNL     1       1.550  -2.098  -3.002  0.00  0.00    +0.150 A 
ATOM      6  C   UNL     1       0.923  -1.841  -1.799  0.00  0.00    +0.047 A 
ENDROOT
BRANCH   4   7
ATOM      7  N   UNL     1       2.494  -1.313  -5.081  0.00  0.00    -0.330 N 
ATOM      8  C   UNL     1       1.718  -1.584  -6.301  0.00  0.00    +0.086 C 
ATOM      9  C   UNL     1       2.240  -0.677  -7.421  0.00  0.00    -0.061 C 
ATOM     10  N   UNL     1       3.688  -0.868  -7.569  0.00  0.00    +0.398 N 
ATOM     11  C   UNL     1       4.378  -0.428  -6.350  0.00  0.00    +0.133 C 
ATOM     12  C   UNL     1       3.962  -1.317  -5.178  0.00  0.00    +0.115 C 
ATOM     13  H   UNL     1       3.882  -1.845  -7.730  0.00  0.00    -0.083 HD
ATOM     14  H   UNL     1       4.019  -0.328  -8.354  0.00  0.00    -0.083 HD
BRANCH  11  15
ATOM     15  S   UNL     1       6.172  -0.546  -6.594  0.00  0.00    +0.109 S 
ATOM     16  O   UNL     1       6.855   0.042  -5.495  0.00  0.00    -0.138 OA
ATOM     17  O   UNL     1       6.519  -1.845  -7.052  0.00  0.00    -0.138 OA
BRANCH  15  18
ATOM     18  O   UNL     1       6.468   0.373  -7.771  0.00  0.00    -0.347 OA
BRANCH  18  19
ATOM     19  C   UNL     1       6.426   1.696  -7.463  0.00  0.00    +0.156 A 
ATOM     20  C   UNL     1       5.234   2.397  -7.574  0.00  0.00    +0.048 A 
ATOM     21  C   UNL     1       5.194   3.742  -7.261  0.00  0.00    +0.004 A 
ATOM     22  C   UNL     1       6.341   4.389  -6.838  0.00  0.00    +0.000 A 
ATOM     23  C   UNL     1       7.530   3.692  -6.727  0.00  0.00    +0.004 A 
ATOM     24  C   UNL     1       7.574   2.346  -7.033  0.00  0.00    +0.048 A 
ENDBRANCH  18  19
ENDBRANCH  15  18
ENDBRANCH  11  15
ENDBRANCH   4   7
BRANCH   5  25
ATOM     25  S   UNL     1       1.970  -3.752  -3.441  0.00  0.00    +0.153 S 
ATOM     26  O   UNL     1       0.816  -4.316  -4.048  0.00  0.00    -0.131 OA
ATOM     27  O   UNL     1       3.226  -3.690  -4.103  0.00  0.00    -0.131 OA
BRANCH  25  28
ATOM     28  O   UNL     1       2.198  -4.517  -2.145  0.00  0.00    -0.342 OA
BRANCH  28  29
ATOM     29  C   UNL     1       3.384  -4.242  -1.542  0.00  0.00    +0.157 A 
ATOM     30  C   UNL     1       4.534  -4.912  -1.932  0.00  0.00    +0.048 A 
ATOM     31  C   UNL     1       5.739  -4.630  -1.317  0.00  0.00    +0.004 A 
ATOM     32  C   UNL     1       5.798  -3.680  -0.314  0.00  0.00    +0.000 A 
ATOM     33  C   UNL     1       4.653  -3.011   0.077  0.00  0.00    +0.004 A 
ATOM     34  C   UNL     1       3.447  -3.285  -0.539  0.00  0.00    +0.048 A 
ENDBRANCH  28  29
ENDBRANCH  25  28
ENDBRANCH   5  25
BRANCH   1  36
ATOM     35  C   UNL     1      -0.449   1.589   0.076  0.00  0.00    +0.090 C 
ATOM     36  S   UNL     1      -0.221  -0.210   0.076  0.00  0.00    -0.129 S 
ENDBRANCH   1  36
TORSDOF 8
