REMARK  Name = ZINC36024804
REMARK  6 active torsions:
REMARK  status: ('A' for Active; 'I' for Inactive)
REMARK    1  A    between atoms: C_4  and  C_7
REMARK    2  A    between atoms: C_7  and  C_8
REMARK    3  A    between atoms: N_12  and  C_30
REMARK    4  A    between atoms: N_17  and  S_20
REMARK    5  A    between atoms: S_20  and  C_23
REMARK    6  A    between atoms: C_30  and  C_31
REMARK                            x       y       z     vdW  Elec       q    Type
REMARK                         _______ _______ _______ _____ _____    ______ ____
ROOT
ATOM      1  C   UNL     1       4.298  -0.876   1.517  0.00  0.00    +0.023 C 
ATOM      2  C   UNL     1       5.555  -1.713   1.621  0.00  0.00    +0.201 C 
ATOM      3  O   UNL     1       6.690  -1.287   1.639  0.00  0.00    -0.277 OA
ATOM      4  N   UNL     1       5.199  -3.012   1.692  0.00  0.00    -0.306 N 
ATOM      5  C   UNL     1       3.739  -3.123   1.636  0.00  0.00    +0.006 C 
ATOM      6  N   UNL     1       3.203  -1.778   1.948  0.00  0.00    +0.401 N 
ATOM      7  C   UNL     1       3.295  -3.543   0.236  0.00  0.00    +0.023 C 
ATOM      8  C   UNL     1       3.886  -4.918  -0.093  0.00  0.00    +0.109 C 
ATOM      9  N   UNL     1       3.518  -5.858   0.974  0.00  0.00    -0.177 NA
ATOM     10  C   UNL     1       3.835  -5.509   2.365  0.00  0.00    +0.109 C 
ATOM     11  C   UNL     1       3.244  -4.129   2.674  0.00  0.00    +0.023 C 
ATOM     12  H   UNL     1       3.031  -1.683   2.938  0.00  0.00    -0.082 HD
ATOM     13  H   UNL     1       2.363  -1.596   1.419  0.00  0.00    -0.082 HD
ENDROOT
BRANCH   9  14
ATOM     14  S   UNL     1       2.760  -7.286   0.616  0.00  0.00    +0.061 S 
ATOM     15  O   UNL     1       2.060  -7.680   1.787  0.00  0.00    -0.153 OA
ATOM     16  O   UNL     1       2.110  -7.098  -0.634  0.00  0.00    -0.153 OA
BRANCH  14  17
ATOM     17  C   UNL     1       4.018  -8.492   0.352  0.00  0.00    +0.106 A 
ATOM     18  C   UNL     1       4.540  -8.681  -0.914  0.00  0.00    +0.030 A 
ATOM     19  C   UNL     1       5.527  -9.627  -1.121  0.00  0.00    +0.022 A 
ATOM     20  C   UNL     1       5.992 -10.384  -0.060  0.00  0.00    +0.041 A 
ATOM     21  C   UNL     1       5.470 -10.194   1.206  0.00  0.00    +0.022 A 
ATOM     22  C   UNL     1       4.487  -9.244   1.413  0.00  0.00    +0.030 A 
ATOM     23 CL   UNL     1       7.231 -11.572  -0.320  0.00  0.00    -0.084 Cl
ENDBRANCH  14  17
ENDBRANCH   9  14
BRANCH   1  24
ATOM     24  C   UNL     1       4.078  -0.422   0.073  0.00  0.00    +0.028 C 
BRANCH  24  28
ATOM     25  C   UNL     1       0.505   1.906  -0.163  0.00  0.00    +0.000 A 
ATOM     26  C   UNL     1       1.716   2.522   0.091  0.00  0.00    +0.000 A 
ATOM     27  C   UNL     1       2.872   1.769   0.168  0.00  0.00    +0.003 A 
ATOM     28  C   UNL     1       2.818   0.399  -0.010  0.00  0.00    -0.048 A 
ATOM     29  C   UNL     1       1.607  -0.217  -0.263  0.00  0.00    +0.003 A 
ATOM     30  C   UNL     1       0.450   0.536  -0.341  0.00  0.00    +0.000 A 
ENDBRANCH  24  28
ENDBRANCH   1  24
BRANCH   4  31
ATOM     31  C   UNL     1       6.128  -4.139   1.808  0.00  0.00    +0.180 C 
BRANCH  31  32
ATOM     32  C   UNL     1       6.529  -4.313   3.251  0.00  0.00    +0.122 A 
ATOM     33  C   UNL     1       5.988  -5.188   4.117  0.00  0.00    +0.046 A 
ATOM     34  C   UNL     1       6.658  -5.013   5.349  0.00  0.00    +0.041 A 
ATOM     35  C   UNL     1       7.569  -4.041   5.162  0.00  0.00    +0.195 A 
ATOM     36  O   UNL     1       7.490  -3.625   3.888  0.00  0.00    -0.466 OA
ENDBRANCH  31  32
ENDBRANCH   4  31
TORSDOF 6
