REMARK  Name = ZINC06408697
REMARK  13 active torsions:
REMARK  status: ('A' for Active; 'I' for Inactive)
REMARK    1  A    between atoms: C_1  and  C_2
REMARK    2  A    between atoms: C_9  and  C_14
REMARK    3  A    between atoms: C_14  and  C_16
REMARK    4  A    between atoms: C_14  and  N_70
REMARK    5  A    between atoms: N_20  and  C_21
REMARK    6  A    between atoms: C_21  and  C_22
REMARK    7  A    between atoms: C_22  and  O_23
REMARK    8  A    between atoms: O_23  and  C_24
REMARK    9  A    between atoms: C_25  and  C_26
REMARK   10  A    between atoms: C_25  and  N_70
REMARK   11  A    between atoms: C_26  and  C_27
REMARK   12  A    between atoms: C_33  and  C_34
REMARK   13  A    between atoms: C_33  and  N_70
REMARK                            x       y       z     vdW  Elec       q    Type
REMARK                         _______ _______ _______ _____ _____    ______ ____
ROOT
ATOM      1  C   UNL     1      -1.843  -1.653   0.107  0.00  0.00    +0.039 C 
ENDROOT
BRANCH   1  10
ATOM      2  C   UNL     1      -8.426  -4.615   1.981  0.00  0.00    +0.044 C 
ATOM      3  C   UNL     1      -7.537  -3.908   0.990  0.00  0.00    -0.050 A 
ATOM      4  C   UNL     1      -8.039  -3.555  -0.255  0.00  0.00    +0.005 A 
ATOM      5  C   UNL     1      -7.244  -2.909  -1.177  0.00  0.00    +0.026 A 
ATOM      6  C   UNL     1      -5.925  -2.605  -0.857  0.00  0.00    +0.049 A 
ATOM      7  C   UNL     1      -5.419  -2.964   0.407  0.00  0.00    -0.001 A 
ATOM      8  C   UNL     1      -6.245  -3.620   1.326  0.00  0.00    +0.013 A 
ATOM      9  C   UNL     1      -4.030  -2.639   0.734  0.00  0.00    +0.017 A 
ATOM     10  C   UNL     1      -3.277  -2.002  -0.197  0.00  0.00    +0.011 A 
ATOM     11  C   UNL     1      -3.834  -1.659  -1.448  0.00  0.00    +0.251 A 
ATOM     12  O   UNL     1      -3.142  -1.082  -2.268  0.00  0.00    -0.268 OA
ATOM     13  N   UNL     1      -5.107  -1.957  -1.759  0.00  0.00    -0.322 N 
ATOM     14  H   UNL     1      -5.457  -1.711  -2.630  0.00  0.00    +0.169 HD
ENDBRANCH   1  10
BRANCH   1  15
ATOM     15  C   UNL     1      -0.933  -2.411  -0.825  0.00  0.00    +0.143 A 
ATOM     16  N   UNL     1      -0.553  -2.037  -2.022  0.00  0.00    -0.115 NA
ATOM     17  N   UNL     1       0.222  -2.950  -2.497  0.00  0.00    -0.023 NA
ATOM     18  N   UNL     1       0.340  -3.901  -1.636  0.00  0.00    -0.044 NA
ATOM     19  N   UNL     1      -0.358  -3.605  -0.592  0.00  0.00    -0.228 N 
BRANCH  19  20
ATOM     20  C   UNL     1      -0.497  -4.416   0.620  0.00  0.00    +0.175 C 
BRANCH  20  21
ATOM     21  C   UNL     1      -1.602  -5.454   0.414  0.00  0.00    +0.183 C 
BRANCH  21  22
ATOM     22  O   UNL     1      -1.738  -6.245   1.597  0.00  0.00    -0.381 OA
ATOM     23  C   UNL     1      -2.750  -7.251   1.510  0.00  0.00    +0.194 C 
ENDBRANCH  21  22
ENDBRANCH  20  21
ENDBRANCH  19  20
ENDBRANCH   1  15
BRANCH   1  24
ATOM     24  N   UNL     1      -1.640  -0.204  -0.104  0.00  0.00    +0.392 N 
ATOM     25  H   UNL     1      -1.612  -0.015  -1.113  0.00  0.00    -0.080 HD
BRANCH  24  26
ATOM     26  C   UNL     1      -2.756   0.555   0.496  0.00  0.00    -0.072 C 
BRANCH  26  27
ATOM     27  C   UNL     1      -2.640   2.021   0.073  0.00  0.00    +0.016 C 
BRANCH  27  28
ATOM     28  C   UNL     1      -3.784   2.806   0.660  0.00  0.00    -0.049 A 
ATOM     29  C   UNL     1      -4.964   2.942  -0.047  0.00  0.00    +0.003 A 
ATOM     30  C   UNL     1      -6.016   3.657   0.494  0.00  0.00    +0.000 A 
ATOM     31  C   UNL     1      -5.884   4.247   1.738  0.00  0.00    +0.000 A 
ATOM     32  C   UNL     1      -4.702   4.116   2.443  0.00  0.00    +0.000 A 
ATOM     33  C   UNL     1      -3.652   3.395   1.904  0.00  0.00    +0.003 A 
ENDBRANCH  27  28
ENDBRANCH  26  27
ENDBRANCH  24  26
BRANCH  24  34
ATOM     34  C   UNL     1      -0.358   0.219   0.498  0.00  0.00    -0.042 C 
BRANCH  34  35
ATOM     35  C   UNL     1       0.770  -0.251  -0.383  0.00  0.00    -0.064 A 
ATOM     36  C   UNL     1       1.476  -1.393  -0.052  0.00  0.00    +0.002 A 
ATOM     37  C   UNL     1       2.507  -1.827  -0.864  0.00  0.00    +0.000 A 
ATOM     38  C   UNL     1       2.839  -1.114  -2.001  0.00  0.00    +0.000 A 
ATOM     39  C   UNL     1       2.136   0.030  -2.329  0.00  0.00    +0.000 A 
ATOM     40  C   UNL     1       1.102   0.461  -1.520  0.00  0.00    +0.002 A 
ENDBRANCH  34  35
ENDBRANCH  24  34
ENDBRANCH   1  24
TORSDOF 11
