REMARK  Name = ZINC35487005
REMARK  15 active torsions:
REMARK  status: ('A' for Active; 'I' for Inactive)
REMARK    1  A    between atoms: C_1  and  C_2
REMARK    2  A    between atoms: C_2  and  C_3
REMARK    3  A    between atoms: C_3  and  C_4
REMARK    4  A    between atoms: C_4  and  C_5
REMARK    5  A    between atoms: C_5  and  O_6
REMARK    6  A    between atoms: O_6  and  C_7
REMARK    7  A    between atoms: C_11  and  C_13
REMARK    8  A    between atoms: C_20  and  C_36
REMARK    9  A    between atoms: C_21  and  C_35
REMARK   10  A    between atoms: N_28  and  C_29
REMARK   11  A    between atoms: C_29  and  C_30
REMARK   12  A    between atoms: C_30  and  C_31
REMARK   13  A    between atoms: C_31  and  N_32
REMARK   14  A    between atoms: N_32  and  C_33
REMARK   15  A    between atoms: N_32  and  C_34
REMARK                            x       y       z     vdW  Elec       q    Type
REMARK                         _______ _______ _______ _____ _____    ______ ____
ROOT
ATOM      1  C   UNL     1       2.909  -8.102   4.674  0.00  0.00    +0.145 C 
ATOM      2  C   UNL     1       4.264  -8.574   4.262  0.00  0.00    +0.072 A 
ATOM      3  C   UNL     1       4.996  -8.427   2.999  0.00  0.00    +0.199 A 
ATOM      4  O   UNL     1       4.626  -7.700   2.094  0.00  0.00    -0.287 OA
ATOM      5  C   UNL     1       6.231  -9.249   2.929  0.00  0.00    +0.065 A 
ATOM      6  C   UNL     1       6.929  -9.374   1.728  0.00  0.00    +0.019 A 
ATOM      7  C   UNL     1       8.061 -10.139   1.679  0.00  0.00    -0.047 A 
ATOM      8  C   UNL     1       8.516 -10.789   2.818  0.00  0.00    -0.044 A 
ATOM      9  C   UNL     1       7.840 -10.675   4.012  0.00  0.00    +0.050 A 
ATOM     10  C   UNL     1       6.684  -9.898   4.089  0.00  0.00    +0.140 A 
ATOM     11  O   UNL     1       6.042  -9.791   5.275  0.00  0.00    -0.450 OA
ATOM     12  C   UNL     1       4.812  -9.242   5.320  0.00  0.00    +0.199 A 
ATOM     13  C   UNL     1       3.840  -9.230   6.427  0.00  0.00    +0.283 C 
ATOM     14  O   UNL     1       4.017  -9.743   7.514  0.00  0.00    -0.267 OA
ATOM     15  N   UNL     1       2.724  -8.565   6.059  0.00  0.00    -0.284 N 
ATOM     16  C   UNL     1       9.764 -11.630   2.747  0.00  0.00    +0.044 C 
ATOM     17  C   UNL     1       8.818 -10.277   0.383  0.00  0.00    +0.044 C 
ENDROOT
BRANCH   1  22
ATOM     18  C   UNL     1       2.146  -4.591   3.504  0.00  0.00    +0.121 A 
ATOM     19  C   UNL     1       2.722  -3.834   4.514  0.00  0.00    +0.045 A 
ATOM     20  C   UNL     1       3.355  -4.461   5.570  0.00  0.00    +0.004 A 
ATOM     21  C   UNL     1       3.415  -5.841   5.621  0.00  0.00    +0.006 A 
ATOM     22  C   UNL     1       2.842  -6.598   4.615  0.00  0.00    -0.019 A 
ATOM     23  C   UNL     1       2.202  -5.976   3.560  0.00  0.00    +0.051 A 
BRANCH  18  24
ATOM     24  O   UNL     1       1.522  -3.976   2.465  0.00  0.00    -0.492 OA
BRANCH  24  25
ATOM     25  C   UNL     1       1.503  -2.548   2.473  0.00  0.00    +0.229 C 
BRANCH  25  26
ATOM     26  C   UNL     1       0.763  -2.041   1.233  0.00  0.00    +0.041 C 
BRANCH  26  27
ATOM     27  C   UNL     1       0.742  -0.511   1.242  0.00  0.00    +0.003 C 
BRANCH  27  29
ATOM     28  C   UNL     1      -0.019   1.526   0.010  0.00  0.00    +0.004 C 
ATOM     29  C   UNL     1       0.002  -0.004   0.002  0.00  0.00    -0.003 C 
ENDBRANCH  27  29
ENDBRANCH  26  27
ENDBRANCH  25  26
ENDBRANCH  24  25
ENDBRANCH  18  24
ENDBRANCH   1  22
BRANCH  15  30
ATOM     30  C   UNL     1       1.539  -8.343   6.891  0.00  0.00    +0.107 C 
BRANCH  30  31
ATOM     31  C   UNL     1       0.553  -9.496   6.692  0.00  0.00    +0.000 C 
BRANCH  31  32
ATOM     32  C   UNL     1      -0.685  -9.264   7.561  0.00  0.00    -0.078 C 
BRANCH  32  33
ATOM     33  N   UNL     1      -1.631 -10.371   7.370  0.00  0.00    +0.376 N 
ATOM     34  C   UNL     1      -1.035 -11.617   7.870  0.00  0.00    -0.097 C 
ATOM     35  C   UNL     1      -2.869 -10.090   8.110  0.00  0.00    -0.097 C 
ATOM     36  H   UNL     1      -1.841 -10.469   6.388  0.00  0.00    -0.083 HD
ENDBRANCH  32  33
ENDBRANCH  31  32
ENDBRANCH  30  31
ENDBRANCH  15  30
TORSDOF 10
