REMARK  Name = ZINC25981183
REMARK  8 active torsions:
REMARK  status: ('A' for Active; 'I' for Inactive)
REMARK    1  A    between atoms: C_3  and  S_12
REMARK    2  A    between atoms: C_5  and  C_6
REMARK    3  A    between atoms: S_12  and  N_15
REMARK    4  A    between atoms: N_15  and  C_16
REMARK    5  A    between atoms: N_20  and  C_23
REMARK    6  A    between atoms: C_23  and  C_24
REMARK    7  A    between atoms: C_24  and  N_25
REMARK    8  A    between atoms: N_25  and  C_26
REMARK                            x       y       z     vdW  Elec       q    Type
REMARK                         _______ _______ _______ _____ _____    ______ ____
ROOT
ATOM      1  C   UNL     1      -3.422   2.089   2.470  0.00  0.00    +0.164 C 
ATOM      2  C   UNL     1      -4.578   1.883   3.476  0.00  0.00    +0.049 C 
ATOM      3  C   UNL     1      -3.829   1.323   4.706  0.00  0.00    +0.110 C 
ATOM      4  N   UNL     1      -2.454   1.823   4.588  0.00  0.00    -0.299 N 
ATOM      5  C   UNL     1      -2.197   2.254   3.341  0.00  0.00    +0.234 C 
ATOM      6  O   UNL     1      -1.136   2.709   2.969  0.00  0.00    -0.274 OA
ENDROOT
BRANCH   1   7
ATOM      7  N   UNL     1      -3.281   0.915   1.604  0.00  0.00    -0.178 NA
ATOM      8  H   UNL     1      -3.310  -0.095   2.038  0.00  0.00    +0.149 HD
BRANCH   7   9
ATOM      9  S   UNL     1      -2.832   1.103   0.021  0.00  0.00    +0.065 S 
ATOM     10  O   UNL     1      -3.668   2.116  -0.520  0.00  0.00    -0.153 OA
ATOM     11  O   UNL     1      -2.758  -0.202  -0.537  0.00  0.00    -0.153 OA
BRANCH   9  14
ATOM     12  C   UNL     1       1.166   1.789   0.001  0.00  0.00    +0.018 A 
ATOM     13  C   UNL     1      -0.013   1.076   0.008  0.00  0.00    +0.037 A 
ATOM     14  C   UNL     1      -1.192   1.747   0.017  0.00  0.00    +0.143 A 
ATOM     15  S   UNL     1      -0.656   3.449   0.026  0.00  0.00    -0.068 S 
ATOM     16  C   UNL     1       1.106   3.160   0.008  0.00  0.00    +0.028 A 
BRANCH  16  17
ATOM     17  C   UNL     1       2.207   4.137   0.002  0.00  0.00    +0.027 A 
ATOM     18  C   UNL     1       2.146   5.507   0.009  0.00  0.00    +0.018 A 
ATOM     19  C   UNL     1       3.325   6.221   0.002  0.00  0.00    +0.028 A 
ATOM     20  C   UNL     1       4.505   5.550  -0.012  0.00  0.00    +0.079 A 
ATOM     21  S   UNL     1       3.969   3.847  -0.009  0.00  0.00    -0.076 S 
ATOM     22 CL   UNL     1       6.122   6.184  -0.024  0.00  0.00    -0.076 Cl
ENDBRANCH  16  17
ENDBRANCH   9  14
ENDBRANCH   7   9
ENDBRANCH   1   7
BRANCH   4  23
ATOM     23  C   UNL     1      -1.487   1.849   5.688  0.00  0.00    +0.126 C 
BRANCH  23  24
ATOM     24  C   UNL     1      -0.701   0.536   5.707  0.00  0.00    +0.120 C 
BRANCH  24  25
ATOM     25  N   UNL     1       0.266   0.562   6.807  0.00  0.00    -0.342 N 
ATOM     26  H   UNL     1       0.332   1.445   7.461  0.00  0.00    +0.146 HD
BRANCH  25  27
ATOM     27  C   UNL     1       1.100  -0.529   7.026  0.00  0.00    +0.030 A 
ATOM     28  C   UNL     1       1.028  -1.660   6.212  0.00  0.00    +0.040 A 
ATOM     29  C   UNL     1       1.876  -2.719   6.459  0.00  0.00    +0.084 A 
ATOM     30  N   UNL     1       2.741  -2.675   7.455  0.00  0.00    -0.367 N 
ATOM     31  C   UNL     1       2.836  -1.626   8.251  0.00  0.00    +0.084 A 
ATOM     32  C   UNL     1       2.028  -0.524   8.068  0.00  0.00    +0.040 A 
ATOM     33  H   UNL     1       3.408  -3.529   7.642  0.00  0.00    +0.165 HD
ENDBRANCH  25  27
ENDBRANCH  24  25
ENDBRANCH  23  24
ENDBRANCH   4  23
TORSDOF 8
