REMARK  Name = ZINC39381646
REMARK  4 active torsions:
REMARK  status: ('A' for Active; 'I' for Inactive)
REMARK    1  A    between atoms: C_4  and  C_7
REMARK    2  A    between atoms: C_10  and  O_24
REMARK    3  A    between atoms: C_12  and  O_23
REMARK    4  A    between atoms: C_16  and  C_17
REMARK                            x       y       z     vdW  Elec       q    Type
REMARK                         _______ _______ _______ _____ _____    ______ ____
ROOT
ATOM      1  C   UNL     1       3.731  -0.675  -0.211  0.00  0.00    +0.027 C 
ATOM      2  C   UNL     1       3.604  -1.926   0.658  0.00  0.00    +0.007 C 
ATOM      3  C   UNL     1       2.371  -2.737   0.643  0.00  0.00    +0.038 C 
ATOM      4  C   UNL     1       2.087  -3.631  -0.553  0.00  0.00    +0.143 C 
ATOM      5  C   UNL     1       1.855  -2.792  -1.810  0.00  0.00    +0.143 C 
ATOM      6  C   UNL     1       3.118  -2.051  -2.277  0.00  0.00    +0.038 C 
ATOM      7  C   UNL     1       4.178  -1.667  -1.316  0.00  0.00    +0.007 C 
ATOM      8  C   UNL     1       4.787  -2.430  -0.183  0.00  0.00    +0.027 C 
ENDROOT
BRANCH   1  12
ATOM      9  C   UNL     1       0.146   1.513  -0.909  0.00  0.00    +0.000 A 
ATOM     10  C   UNL     1       0.357   0.905   0.314  0.00  0.00    +0.000 A 
ATOM     11  C   UNL     1       1.521   0.194   0.541  0.00  0.00    +0.004 A 
ATOM     12  C   UNL     1       2.473   0.092  -0.456  0.00  0.00    -0.044 A 
ATOM     13  C   UNL     1       2.262   0.700  -1.679  0.00  0.00    +0.004 A 
ATOM     14  C   UNL     1       1.098   1.411  -1.905  0.00  0.00    +0.000 A 
ENDBRANCH   1  12
BRANCH   8  15
ATOM     15  C   UNL     1       5.054  -3.904  -0.350  0.00  0.00    -0.044 A 
ATOM     16  C   UNL     1       5.492  -4.394  -1.566  0.00  0.00    +0.004 A 
ATOM     17  C   UNL     1       5.737  -5.746  -1.718  0.00  0.00    +0.000 A 
ATOM     18  C   UNL     1       5.544  -6.607  -0.655  0.00  0.00    +0.000 A 
ATOM     19  C   UNL     1       5.106  -6.117   0.561  0.00  0.00    +0.000 A 
ATOM     20  C   UNL     1       4.865  -4.765   0.715  0.00  0.00    +0.004 A 
ENDBRANCH   8  15
BRANCH   5  21
ATOM     21  O   UNL     1       0.765  -1.901  -1.603  0.00  0.00    -0.389 OA
ATOM     22  H   UNL     1      -0.071  -2.342  -1.401  0.00  0.00    +0.210 HD
ENDBRANCH   5  21
BRANCH   4  23
ATOM     23  O   UNL     1       0.836  -4.308  -0.281  0.00  0.00    -0.389 OA
ATOM     24  H   UNL     1       0.553  -4.910  -0.983  0.00  0.00    +0.210 HD
ENDBRANCH   4  23
TORSDOF 4
