REMARK  Name = ZINC20701918
REMARK  7 active torsions:
REMARK  status: ('A' for Active; 'I' for Inactive)
REMARK    1  A    between atoms: C_1  and  C_2
REMARK    2  A    between atoms: C_2  and  C_3
REMARK    3  A    between atoms: C_2  and  C_4
REMARK    4  A    between atoms: C_4  and  C_5
REMARK    5  A    between atoms: N_7  and  C_8
REMARK    6  A    between atoms: C_21  and  C_24
REMARK    7  A    between atoms: C_29  and  O_30
REMARK                            x       y       z     vdW  Elec       q    Type
REMARK                         _______ _______ _______ _____ _____    ______ ____
ROOT
ATOM      1  C   UNL     1      -0.539   4.320  -0.024  0.00  0.00    +0.034 A 
ATOM      2  C   UNL     1      -1.042   3.026  -0.047  0.00  0.00    +0.025 A 
ATOM      3  C   UNL     1      -0.173   1.955   0.021  0.00  0.00    +0.025 A 
ATOM      4  C   UNL     1       1.197   2.173   0.099  0.00  0.00    +0.031 A 
ATOM      5  C   UNL     1       1.707   3.462   0.113  0.00  0.00    -0.018 A 
ATOM      6  C   UNL     1       0.828   4.534   0.051  0.00  0.00    +0.029 A 
ATOM      7  C   UNL     1       3.174   3.741   0.192  0.00  0.00    +0.049 C 
ATOM      8  C   UNL     1       3.568   4.229   1.566  0.00  0.00    -0.023 C 
ATOM      9  C   UNL     1       4.749   3.762   1.892  0.00  0.00    -0.030 C 
ATOM     10  C   UNL     1       5.307   2.903   0.774  0.00  0.00    +0.033 C 
ATOM     11  C   UNL     1       4.040   2.486  -0.029  0.00  0.00    +0.029 C 
ATOM     12  C   UNL     1       3.417   1.287   0.691  0.00  0.00    +0.109 C 
ATOM     13  N   UNL     1       2.063   1.073   0.170  0.00  0.00    -0.336 N 
ATOM     14  H   UNL     1       1.750   0.069  -0.153  0.00  0.00    +0.147 HD
ENDROOT
BRANCH  12  15
ATOM     15  C   UNL     1       3.351   1.565   2.171  0.00  0.00    +0.017 A 
ATOM     16  C   UNL     1       2.304   2.304   2.689  0.00  0.00    +0.029 A 
ATOM     17  C   UNL     1       2.243   2.560   4.047  0.00  0.00    +0.043 A 
ATOM     18  C   UNL     1       3.229   2.076   4.890  0.00  0.00    +0.043 A 
ATOM     19  C   UNL     1       4.277   1.337   4.375  0.00  0.00    +0.084 A 
ATOM     20  C   UNL     1       4.337   1.074   3.013  0.00  0.00    +0.140 A 
ATOM     21 CL   UNL     1       5.513   0.730   5.432  0.00  0.00    -0.080 Cl
ATOM     22 CL   UNL     1       0.927   3.488   4.696  0.00  0.00    -0.083 Cl
BRANCH  20  23
ATOM     23  O   UNL     1       5.364   0.342   2.506  0.00  0.00    -0.505 OA
ATOM     24  H   UNL     1       6.145  -0.047   3.175  0.00  0.00    +0.292 HD
ENDBRANCH  20  23
ENDBRANCH  12  15
BRANCH   1  27
ATOM     25  C   UNL     1      -2.678   5.289   0.371  0.00  0.00    +0.217 C 
ATOM     26  O   UNL     1      -3.030   4.262   0.912  0.00  0.00    -0.275 OA
ATOM     27  N   UNL     1      -1.415   5.412  -0.085  0.00  0.00    -0.285 N 
ATOM     28  H   UNL     1      -1.073   6.369  -0.506  0.00  0.00    +0.155 HD
BRANCH  25  29
ATOM     29  C   UNL     1      -3.652   6.427   0.208  0.00  0.00    +0.099 C 
BRANCH  29  31
ATOM     30  C   UNL     1      -4.855   5.838   2.318  0.00  0.00    +0.008 C 
ATOM     31  C   UNL     1      -5.003   6.031   0.807  0.00  0.00    -0.008 C 
ATOM     32  C   UNL     1      -6.026   7.136   0.532  0.00  0.00    +0.008 C 
ENDBRANCH  29  31
ENDBRANCH  25  29
ENDBRANCH   1  27
TORSDOF 5
