REMARK  Name = ZINC40568840
REMARK  8 active torsions:
REMARK  status: ('A' for Active; 'I' for Inactive)
REMARK    1  A    between atoms: C_1  and  C_2
REMARK    2  A    between atoms: C_2  and  C_3
REMARK    3  A    between atoms: C_2  and  C_4
REMARK    4  A    between atoms: C_2  and  C_5
REMARK    5  A    between atoms: C_12  and  N_28
REMARK    6  A    between atoms: C_13  and  C_24
REMARK    7  A    between atoms: C_24  and  O_26
REMARK    8  A    between atoms: O_26  and  C_27
REMARK                            x       y       z     vdW  Elec       q    Type
REMARK                         _______ _______ _______ _____ _____    ______ ____
ROOT
ATOM      1  C   UNL     1       1.149  -0.139  -0.928  0.00  0.00    +0.077 A 
ATOM      2  C   UNL     1       1.911  -1.273  -1.171  0.00  0.00    +0.062 A 
ATOM      3  C   UNL     1       2.933  -0.925  -2.012  0.00  0.00    +0.223 A 
ATOM      4  N   UNL     1       2.807   0.384  -2.282  0.00  0.00    -0.246 N 
ATOM      5  H   UNL     1       3.391   0.908  -2.853  0.00  0.00    +0.192 HD
ATOM      6  N   UNL     1       1.678   0.859  -1.597  0.00  0.00    -0.175 NA
ATOM      7  O   UNL     1       3.861  -1.815  -2.441  0.00  0.00    -0.424 OA
ATOM      8  C   UNL     1       3.928  -3.009  -1.819  0.00  0.00    +0.198 C 
ATOM      9  C   UNL     1       2.972  -3.470  -0.974  0.00  0.00    +0.117 C 
ATOM     10  C   UNL     1       1.735  -2.675  -0.658  0.00  0.00    +0.142 C 
ATOM     11  C   UNL     1       0.514  -3.316  -1.233  0.00  0.00    -0.002 A 
ATOM     12  C   UNL     1       0.159  -3.606  -2.533  0.00  0.00    +0.007 A 
ATOM     13  C   UNL     1      -1.075  -4.216  -2.729  0.00  0.00    +0.000 A 
ATOM     14  C   UNL     1      -1.905  -4.516  -1.668  0.00  0.00    +0.002 A 
ATOM     15  C   UNL     1      -1.555  -4.228  -0.358  0.00  0.00    +0.023 A 
ATOM     16  C   UNL     1      -0.318  -3.616  -0.147  0.00  0.00    +0.038 A 
ATOM     17  N   UNL     1       0.277  -3.223   1.038  0.00  0.00    -0.284 N 
ATOM     18  C   UNL     1       1.488  -2.661   0.835  0.00  0.00    +0.237 C 
ATOM     19  O   UNL     1       2.234  -2.228   1.686  0.00  0.00    -0.274 OA
ATOM     20  H   UNL     1      -0.127  -3.338   1.912  0.00  0.00    +0.155 HD
ENDROOT
BRANCH   1  22
ATOM     21  C   UNL     1      -0.541   1.388   0.054  0.00  0.00    +0.017 C 
ATOM     22  C   UNL     1      -0.077  -0.066  -0.055  0.00  0.00    +0.007 C 
ATOM     23  C   UNL     1       0.258  -0.601   1.339  0.00  0.00    +0.017 C 
ATOM     24  C   UNL     1      -1.193  -0.912  -0.671  0.00  0.00    +0.017 C 
ENDBRANCH   1  22
BRANCH   8  25
ATOM     25  N   UNL     1       5.021  -3.799  -2.053  0.00  0.00    -0.329 N 
ATOM     26  H   UNL     1       5.671  -3.542  -2.725  0.00  0.00    +0.145 HD
ATOM     27  H   UNL     1       5.145  -4.617  -1.546  0.00  0.00    +0.145 HD
ENDBRANCH   8  25
BRANCH   9  28
ATOM     28  C   UNL     1       3.142  -4.728  -0.378  0.00  0.00    +0.341 C 
ATOM     29  O   UNL     1       2.614  -5.711  -0.867  0.00  0.00    -0.245 OA
BRANCH  28  30
ATOM     30  O   UNL     1       3.891  -4.850   0.740  0.00  0.00    -0.465 OA
ATOM     31  C   UNL     1       4.021  -6.161   1.294  0.00  0.00    +0.280 C 
ENDBRANCH  28  30
ENDBRANCH   9  28
TORSDOF 4
