REMARK  Name = ZINC63720455
REMARK  12 active torsions:
REMARK  status: ('A' for Active; 'I' for Inactive)
REMARK    1  A    between atoms: C_1  and  C_2
REMARK    2  A    between atoms: C_2  and  O_3
REMARK    3  A    between atoms: O_3  and  C_4
REMARK    4  A    between atoms: C_7  and  C_13
REMARK    5  A    between atoms: C_9  and  O_10
REMARK    6  A    between atoms: O_10  and  C_11
REMARK    7  A    between atoms: C_11  and  C_12
REMARK    8  A    between atoms: C_13  and  C_14
REMARK    9  A    between atoms: C_14  and  N_15
REMARK   10  A    between atoms: C_16  and  C_18
REMARK   11  A    between atoms: N_21  and  C_24
REMARK   12  A    between atoms: C_30  and  C_34
REMARK                            x       y       z     vdW  Elec       q    Type
REMARK                         _______ _______ _______ _____ _____    ______ ____
ROOT
ATOM      1  N   UNL     1       0.006  -8.012  -2.791  0.00  0.00    -0.315 N 
ATOM      2  C   UNL     1      -0.956  -8.689  -3.449  0.00  0.00    +0.216 C 
ATOM      3  O   UNL     1      -1.915  -8.098  -3.898  0.00  0.00    -0.276 OA
ATOM      4  H   UNL     1       0.772  -8.485  -2.431  0.00  0.00    +0.149 HD
ENDROOT
BRANCH   2   5
ATOM      5  C   UNL     1      -0.841 -10.181  -3.625  0.00  0.00    +0.077 C 
ATOM      6  C   UNL     1       0.433 -10.507  -4.410  0.00  0.00    +0.028 C 
ATOM      7  C   UNL     1       0.514 -12.018  -4.639  0.00  0.00    +0.089 C 
ATOM      8  N   UNL     1      -0.669 -12.464  -5.385  0.00  0.00    -0.266 NA
ATOM      9  C   UNL     1      -1.902 -12.205  -4.630  0.00  0.00    +0.089 C 
ATOM     10  C   UNL     1      -2.055 -10.700  -4.401  0.00  0.00    +0.028 C 
BRANCH   8  11
ATOM     11  C   UNL     1      -0.560 -13.885  -5.744  0.00  0.00    +0.252 C 
ATOM     12  N   UNL     1      -1.721 -14.293  -6.545  0.00  0.00    -0.351 N 
ATOM     13  C   UNL     1      -2.337 -15.233  -5.890  0.00  0.00    +0.061 A 
ATOM     14  C   UNL     1      -3.542 -16.024  -6.174  0.00  0.00    +0.028 A 
ATOM     15  C   UNL     1      -3.954 -16.952  -5.286  0.00  0.00    +0.005 A 
ATOM     16  C   UNL     1      -3.272 -17.204  -4.082  0.00  0.00    -0.048 A 
ATOM     17  C   UNL     1      -2.157 -16.536  -3.725  0.00  0.00    +0.030 A 
ATOM     18  C   UNL     1      -1.616 -15.500  -4.615  0.00  0.00    +0.061 A 
ATOM     19  N   UNL     1      -0.580 -14.713  -4.532  0.00  0.00    -0.351 N 
ATOM     20  C   UNL     1      -3.810 -18.263  -3.155  0.00  0.00    +0.044 C 
ATOM     21  H   UNL     1      -1.980 -13.928  -7.406  0.00  0.00    +0.163 HD
ATOM     22  H   UNL     1       0.060 -14.681  -3.804  0.00  0.00    +0.163 HD
ENDBRANCH   8  11
ENDBRANCH   2   5
BRANCH   1  23
ATOM     23  C   UNL     1      -0.106  -6.561  -2.619  0.00  0.00    +0.109 C 
BRANCH  23  24
ATOM     24  C   UNL     1       1.107  -6.044  -1.844  0.00  0.00    +0.054 C 
BRANCH  24  28
ATOM     25  C   UNL     1       0.777  -1.811  -1.336  0.00  0.00    +0.162 A 
ATOM     26  C   UNL     1       0.243  -2.669  -0.388  0.00  0.00    +0.050 A 
ATOM     27  C   UNL     1       0.352  -4.037  -0.555  0.00  0.00    +0.007 A 
ATOM     28  C   UNL     1       0.992  -4.552  -1.667  0.00  0.00    -0.042 A 
ATOM     29  C   UNL     1       1.526  -3.702  -2.616  0.00  0.00    +0.053 A 
ATOM     30  C   UNL     1       1.416  -2.330  -2.458  0.00  0.00    +0.162 A 
BRANCH  25  31
ATOM     31  O   UNL     1       0.671  -0.465  -1.174  0.00  0.00    -0.489 OA
BRANCH  31  33
ATOM     32  C   UNL     1      -0.019   1.526   0.010  0.00  0.00    +0.048 C 
ATOM     33  C   UNL     1       0.002  -0.004   0.002  0.00  0.00    +0.226 C 
ENDBRANCH  31  33
ENDBRANCH  25  31
BRANCH  30  34
ATOM     34  O   UNL     1       1.936  -1.492  -3.394  0.00  0.00    -0.489 OA
BRANCH  34  35
ATOM     35  C   UNL     1       2.578  -2.095  -4.520  0.00  0.00    +0.226 C 
ATOM     36  C   UNL     1       3.096  -1.002  -5.457  0.00  0.00    +0.048 C 
ENDBRANCH  34  35
ENDBRANCH  30  34
ENDBRANCH  24  28
ENDBRANCH  23  24
ENDBRANCH   1  23
TORSDOF 9
