REMARK  Name = ZINC10000119
REMARK  12 active torsions:
REMARK  status: ('A' for Active; 'I' for Inactive)
REMARK    1  A    between atoms: C_1  and  C_2
REMARK    2  A    between atoms: C_2  and  O_3
REMARK    3  A    between atoms: O_3  and  C_4
REMARK    4  A    between atoms: C_6  and  C_12
REMARK    5  A    between atoms: C_9  and  O_10
REMARK    6  A    between atoms: N_13  and  N_14
REMARK    7  A    between atoms: C_15  and  C_17
REMARK    8  A    between atoms: C_17  and  C_19
REMARK    9  A    between atoms: C_17  and  N_22
REMARK   10  A    between atoms: C_19  and  C_20
REMARK   11  A    between atoms: C_19  and  C_21
REMARK   12  A    between atoms: C_23  and  C_25
REMARK                            x       y       z     vdW  Elec       q    Type
REMARK                         _______ _______ _______ _____ _____    ______ ____
ROOT
ATOM      1  N   UNL     1      -1.144   1.660  -0.439  0.00  0.00    -0.205 N 
ATOM      2  C   UNL     1       0.009   1.114  -0.004  0.00  0.00    +0.253 C 
ATOM      3  O   UNL     1       0.019  -0.022   0.422  0.00  0.00    -0.272 OA
ATOM      4  H   UNL     1      -1.140   2.541  -0.847  0.00  0.00    +0.177 HD
ENDROOT
BRANCH   1   6
ATOM      5  C   UNL     1      -3.458   1.484  -0.721  0.00  0.00    +0.138 C 
ATOM      6  N   UNL     1      -2.348   0.957  -0.302  0.00  0.00    -0.188 NA
BRANCH   5   9
ATOM      7  C   UNL     1      -7.106   0.611  -0.890  0.00  0.00    +0.163 A 
ATOM      8  C   UNL     1      -5.921   1.311  -1.022  0.00  0.00    +0.059 A 
ATOM      9  C   UNL     1      -4.725   0.744  -0.577  0.00  0.00    -0.001 A 
ATOM     10  C   UNL     1      -4.732  -0.524   0.010  0.00  0.00    +0.028 A 
ATOM     11  C   UNL     1      -5.919  -1.215   0.144  0.00  0.00    +0.063 A 
ATOM     12  C   UNL     1      -7.107  -0.653  -0.303  0.00  0.00    +0.173 A 
ATOM     13 BR   UNL     1      -5.928  -2.931   0.938  0.00  0.00    -0.046 Br
BRANCH  12  14
ATOM     14  O   UNL     1      -8.274  -1.337  -0.170  0.00  0.00    -0.503 OA
ATOM     15  H   UNL     1      -8.736  -1.167   0.663  0.00  0.00    +0.292 HD
ENDBRANCH  12  14
BRANCH   7  16
ATOM     16  O   UNL     1      -8.272   1.158  -1.327  0.00  0.00    -0.489 OA
BRANCH  16  18
ATOM     17  C   UNL     1      -9.597   2.904  -2.345  0.00  0.00    +0.048 C 
ATOM     18  C   UNL     1      -8.197   2.457  -1.918  0.00  0.00    +0.226 C 
ENDBRANCH  16  18
ENDBRANCH   7  16
ENDBRANCH   5   9
ENDBRANCH   1   6
BRANCH   2  19
ATOM     19  C   UNL     1       1.287   1.911  -0.053  0.00  0.00    +0.163 C 
BRANCH  19  20
ATOM     20  N   UNL     1       2.433   1.000  -0.017  0.00  0.00    -0.300 N 
ATOM     21  C   UNL     1       3.615   1.383  -0.538  0.00  0.00    +0.245 C 
ATOM     22  O   UNL     1       3.730   2.485  -1.039  0.00  0.00    -0.270 OA
ATOM     23  H   UNL     1       2.341   0.121   0.383  0.00  0.00    +0.150 HD
BRANCH  21  24
ATOM     24  C   UNL     1       4.772   0.463  -0.501  0.00  0.00    +0.038 A 
ATOM     25  C   UNL     1       5.998   0.857  -1.040  0.00  0.00    +0.013 A 
ATOM     26  C   UNL     1       7.074  -0.005  -1.003  0.00  0.00    +0.002 A 
ATOM     27  C   UNL     1       6.941  -1.258  -0.431  0.00  0.00    +0.020 A 
ATOM     28  C   UNL     1       5.729  -1.655   0.106  0.00  0.00    +0.042 A 
ATOM     29  C   UNL     1       4.645  -0.800   0.079  0.00  0.00    +0.033 A 
ATOM     30 CL   UNL     1       5.572  -3.229   0.823  0.00  0.00    -0.084 Cl
ENDBRANCH  21  24
ENDBRANCH  19  20
BRANCH  19  31
ATOM     31  C   UNL     1       1.346   2.854   1.150  0.00  0.00    +0.012 C 
ATOM     32  C   UNL     1       1.446   2.033   2.437  0.00  0.00    +0.009 C 
ATOM     33  C   UNL     1       2.572   3.761   1.028  0.00  0.00    +0.009 C 
ENDBRANCH  19  31
ENDBRANCH   2  19
TORSDOF 9
