REMARK  Name = ZINC58288673
REMARK  12 active torsions:
REMARK  status: ('A' for Active; 'I' for Inactive)
REMARK    1  A    between atoms: C_1  and  C_2
REMARK    2  A    between atoms: C_2  and  C_3
REMARK    3  A    between atoms: C_8  and  N_9
REMARK    4  A    between atoms: C_10  and  C_12
REMARK    5  A    between atoms: C_12  and  N_13
REMARK    6  A    between atoms: N_13  and  C_14
REMARK    7  A    between atoms: N_13  and  C_15
REMARK    8  A    between atoms: C_15  and  C_17
REMARK    9  A    between atoms: C_15  and  C_18
REMARK   10  A    between atoms: N_20  and  C_21
REMARK   11  A    between atoms: C_21  and  C_22
REMARK   12  A    between atoms: C_25  and  C_28
REMARK                            x       y       z     vdW  Elec       q    Type
REMARK                         _______ _______ _______ _____ _____    ______ ____
ROOT
ATOM      1  N   UNL     1      -1.617  -0.722  -5.836  0.00  0.00    +0.391 N 
ATOM      2  C   UNL     1      -1.985  -2.138  -5.700  0.00  0.00    -0.094 C 
ATOM      3  H   UNL     1      -2.260  -0.155  -5.304  0.00  0.00    -0.080 HD
ENDROOT
BRANCH   1   4
ATOM      4  C   UNL     1      -1.677  -0.334  -7.251  0.00  0.00    +0.016 C 
ATOM      5  C   UNL     1      -3.069  -0.642  -7.806  0.00  0.00    -0.004 C 
BRANCH   4   6
ATOM      6  C   UNL     1      -1.400   1.142  -7.380  0.00  0.00    +0.199 C 
ATOM      7  O   UNL     1      -1.653   1.888  -6.458  0.00  0.00    -0.278 OA
ATOM      8  N   UNL     1      -0.872   1.632  -8.519  0.00  0.00    -0.313 N 
ATOM      9  H   UNL     1      -0.671   1.034  -9.256  0.00  0.00    +0.149 HD
BRANCH   8  10
ATOM     10  C   UNL     1      -0.603   3.066  -8.643  0.00  0.00    +0.139 C 
BRANCH  10  11
ATOM     11  C   UNL     1      -0.019   3.352 -10.003  0.00  0.00    -0.030 A 
ATOM     12  C   UNL     1       1.350   3.308 -10.190  0.00  0.00    +0.005 A 
ATOM     13  C   UNL     1       1.885   3.570 -11.437  0.00  0.00    +0.003 A 
ATOM     14  C   UNL     1       1.052   3.874 -12.498  0.00  0.00    -0.050 A 
ATOM     15  C   UNL     1      -0.317   3.917 -12.311  0.00  0.00    +0.003 A 
ATOM     16  C   UNL     1      -0.853   3.651 -11.065  0.00  0.00    +0.005 A 
ATOM     17  C   UNL     1       1.637   4.161 -13.857  0.00  0.00    +0.044 C 
ENDBRANCH  10  11
ENDBRANCH   8  10
ENDBRANCH   4   6
ENDBRANCH   1   4
BRANCH   1  18
ATOM     18  C   UNL     1      -0.253  -0.521  -5.330  0.00  0.00    +0.020 C 
BRANCH  18  20
ATOM     19  N   UNL     1       0.929  -0.645  -3.161  0.00  0.00    -0.287 N 
ATOM     20  C   UNL     1      -0.225  -0.771  -3.845  0.00  0.00    +0.201 C 
ATOM     21  O   UNL     1      -1.242  -1.087  -3.264  0.00  0.00    -0.278 OA
ATOM     22  H   UNL     1       1.728  -0.329  -3.612  0.00  0.00    +0.155 HD
BRANCH  19  28
ATOM     23  C   UNL     1       2.159  -1.424  -1.234  0.00  0.00    -0.026 A 
ATOM     24  C   UNL     1       2.204  -1.738   0.111  0.00  0.00    +0.005 A 
ATOM     25  C   UNL     1       1.070  -1.605   0.891  0.00  0.00    +0.000 A 
ATOM     26  C   UNL     1      -0.111  -1.157   0.328  0.00  0.00    +0.002 A 
ATOM     27  C   UNL     1      -0.162  -0.841  -1.015  0.00  0.00    +0.023 A 
ATOM     28  C   UNL     1       0.976  -0.969  -1.801  0.00  0.00    +0.036 A 
BRANCH  23  30
ATOM     29  C   UNL     1       4.122  -0.225  -2.162  0.00  0.00    +0.009 C 
ATOM     30  C   UNL     1       3.396  -1.569  -2.084  0.00  0.00    +0.033 C 
ENDBRANCH  23  30
ENDBRANCH  19  28
ENDBRANCH  18  20
ENDBRANCH   1  18
TORSDOF 8
