REMARK  Name = ZINC00904537
REMARK  8 active torsions:
REMARK  status: ('A' for Active; 'I' for Inactive)
REMARK    1  A    between atoms: C_1  and  C_2
REMARK    2  A    between atoms: C_2  and  O_3
REMARK    3  A    between atoms: O_3  and  C_4
REMARK    4  A    between atoms: C_7  and  N_10
REMARK    5  A    between atoms: C_11  and  C_12
REMARK    6  A    between atoms: C_21  and  S_22
REMARK    7  A    between atoms: S_22  and  C_23
REMARK    8  A    between atoms: C_23  and  C_24
REMARK                            x       y       z     vdW  Elec       q    Type
REMARK                         _______ _______ _______ _____ _____    ______ ____
ROOT
ATOM      1  N   UNL     1       1.102  -5.948  -1.780  0.00  0.00    -0.270 N 
ATOM      2  C   UNL     1       2.260  -6.679  -1.930  0.00  0.00    +0.173 A 
ATOM      3  N   UNL     1       1.903  -7.926  -2.133  0.00  0.00    -0.128 NA
ATOM      4  N   UNL     1       0.622  -8.026  -2.119  0.00  0.00    -0.122 NA
ATOM      5  C   UNL     1       0.079  -6.849  -1.901  0.00  0.00    +0.197 A 
ENDROOT
BRANCH   2   6
ATOM      6  C   UNL     1       3.641  -6.157  -1.874  0.00  0.00    +0.066 A 
ATOM      7  C   UNL     1       4.028  -5.306  -0.839  0.00  0.00    +0.015 A 
ATOM      8  C   UNL     1       5.319  -4.822  -0.792  0.00  0.00    +0.001 A 
ATOM      9  C   UNL     1       6.233  -5.179  -1.768  0.00  0.00    +0.004 A 
ATOM     10  C   UNL     1       5.861  -6.021  -2.799  0.00  0.00    +0.051 A 
ATOM     11  C   UNL     1       4.570  -6.520  -2.857  0.00  0.00    +0.190 A 
ATOM     12  O   UNL     1       4.206  -7.353  -3.866  0.00  0.00    -0.287 OA
ENDBRANCH   2   6
BRANCH   1  16
ATOM     13  C   UNL     1       0.780  -1.848  -1.079  0.00  0.00    +0.121 A 
ATOM     14  C   UNL     1       0.394  -2.751  -0.099  0.00  0.00    +0.047 A 
ATOM     15  C   UNL     1       0.500  -4.108  -0.331  0.00  0.00    +0.030 A 
ATOM     16  C   UNL     1       0.993  -4.569  -1.544  0.00  0.00    +0.051 A 
ATOM     17  C   UNL     1       1.380  -3.664  -2.524  0.00  0.00    +0.030 A 
ATOM     18  C   UNL     1       1.269  -2.308  -2.293  0.00  0.00    +0.047 A 
BRANCH  13  19
ATOM     19  O   UNL     1       0.675  -0.512  -0.851  0.00  0.00    -0.492 OA
BRANCH  19  21
ATOM     20  C   UNL     1       0.120   1.419   0.493  0.00  0.00    +0.048 C 
ATOM     21  C   UNL     1       0.165  -0.109   0.422  0.00  0.00    +0.225 C 
ENDBRANCH  19  21
ENDBRANCH  13  19
ENDBRANCH   1  16
BRANCH   5  22
ATOM     22  S   UNL     1      -1.644  -6.497  -1.791  0.00  0.00    -0.076 S 
BRANCH  22  23
ATOM     23  C   UNL     1      -2.438  -8.109  -2.040  0.00  0.00    +0.172 C 
BRANCH  23  24
ATOM     24  C   UNL     1      -3.934  -7.948  -1.968  0.00  0.00    +0.221 C 
ATOM     25  O   UNL     1      -4.418  -6.854  -1.769  0.00  0.00    -0.275 OA
ATOM     26  N   UNL     1      -4.736  -9.020  -2.126  0.00  0.00    -0.329 N 
ATOM     27  H   UNL     1      -4.349  -9.895  -2.285  0.00  0.00    +0.145 HD
ATOM     28  H   UNL     1      -5.699  -8.917  -2.079  0.00  0.00    +0.145 HD
ENDBRANCH  23  24
ENDBRANCH  22  23
ENDBRANCH   5  22
TORSDOF 7
