REMARK  Name = ZINC13640014
REMARK  6 active torsions:
REMARK  status: ('A' for Active; 'I' for Inactive)
REMARK    1  A    between atoms: C_4  and  C_7
REMARK    2  A    between atoms: C_7  and  N_8
REMARK    3  A    between atoms: C_9  and  C_11
REMARK    4  A    between atoms: C_18  and  C_27
REMARK    5  A    between atoms: C_30  and  O_34
REMARK    6  A    between atoms: C_32  and  O_33
REMARK                            x       y       z     vdW  Elec       q    Type
REMARK                         _______ _______ _______ _____ _____    ______ ____
ROOT
ATOM      1  C   UNL     1      -1.983   3.467   1.911  0.00  0.00    +0.058 A 
ATOM      2  C   UNL     1      -2.112   4.854   1.986  0.00  0.00    +0.015 A 
ATOM      3  C   UNL     1      -1.111   5.660   1.492  0.00  0.00    +0.001 A 
ATOM      4  C   UNL     1       0.018   5.098   0.922  0.00  0.00    +0.006 A 
ATOM      5  C   UNL     1       0.165   3.721   0.838  0.00  0.00    -0.019 A 
ATOM      6  C   UNL     1      -0.832   2.900   1.331  0.00  0.00    +0.044 A 
ATOM      7  N   UNL     1      -0.731   1.518   1.305  0.00  0.00    -0.336 N 
ATOM      8  C   UNL     1       0.068   1.070   0.163  0.00  0.00    +0.108 C 
ATOM      9  C   UNL     1       1.471   1.651   0.252  0.00  0.00    +0.029 C 
ATOM     10  C   UNL     1       1.422   3.192   0.201  0.00  0.00    +0.049 C 
ATOM     11  C   UNL     1       2.611   3.606   1.051  0.00  0.00    -0.023 C 
ATOM     12  C   UNL     1       2.958   2.638   1.860  0.00  0.00    -0.030 C 
ATOM     13  C   UNL     1       2.052   1.436   1.671  0.00  0.00    +0.033 C 
ATOM     14  H   UNL     1      -1.649   1.099   1.291  0.00  0.00    +0.147 HD
ENDROOT
BRANCH   8  15
ATOM     15  C   UNL     1      -0.585   1.533  -1.114  0.00  0.00    +0.015 A 
ATOM     16  C   UNL     1       0.175   2.134  -2.099  0.00  0.00    +0.012 A 
ATOM     17  C   UNL     1      -0.421   2.559  -3.271  0.00  0.00    +0.046 A 
ATOM     18  C   UNL     1      -1.784   2.383  -3.462  0.00  0.00    +0.120 A 
ATOM     19  C   UNL     1      -2.549   1.780  -2.474  0.00  0.00    +0.091 A 
ATOM     20  C   UNL     1      -1.948   1.350  -1.301  0.00  0.00    +0.125 A 
BRANCH  20  21
ATOM     21  O   UNL     1      -2.693   0.754  -0.334  0.00  0.00    -0.506 OA
ATOM     22  H   UNL     1      -3.065   1.370   0.311  0.00  0.00    +0.292 HD
ENDBRANCH  20  21
BRANCH  18  23
ATOM     23  O   UNL     1      -2.370   2.801  -4.614  0.00  0.00    -0.507 OA
ATOM     24  H   UNL     1      -2.386   2.132  -5.312  0.00  0.00    +0.292 HD
ENDBRANCH  18  23
ENDBRANCH   8  15
BRANCH   1  26
ATOM     25  N   UNL     1      -4.335   3.000   2.388  0.00  0.00    -0.307 N 
ATOM     26  C   UNL     1      -3.050   2.597   2.438  0.00  0.00    +0.246 C 
ATOM     27  O   UNL     1      -2.770   1.515   2.918  0.00  0.00    -0.270 OA
ATOM     28  H   UNL     1      -4.558   3.863   2.006  0.00  0.00    +0.149 HD
BRANCH  25  29
ATOM     29  C   UNL     1      -5.395   2.135   2.912  0.00  0.00    +0.139 C 
BRANCH  29  33
ATOM     30  C   UNL     1      -9.177   4.058   2.418  0.00  0.00    +0.000 A 
ATOM     31  C   UNL     1      -8.682   3.239   1.420  0.00  0.00    +0.000 A 
ATOM     32  C   UNL     1      -7.458   2.616   1.580  0.00  0.00    +0.005 A 
ATOM     33  C   UNL     1      -6.729   2.813   2.737  0.00  0.00    -0.030 A 
ATOM     34  C   UNL     1      -7.226   3.628   3.737  0.00  0.00    +0.005 A 
ATOM     35  C   UNL     1      -8.447   4.255   3.575  0.00  0.00    +0.000 A 
ENDBRANCH  29  33
ENDBRANCH  25  29
ENDBRANCH   1  26
TORSDOF 6
