REMARK  Name = ZINC12004516
REMARK  10 active torsions:
REMARK  status: ('A' for Active; 'I' for Inactive)
REMARK    1  A    between atoms: C_3  and  C_19
REMARK    2  A    between atoms: C_5  and  O_7
REMARK    3  A    between atoms: O_7  and  C_8
REMARK    4  A    between atoms: C_8  and  C_9
REMARK    5  A    between atoms: C_9  and  C_11
REMARK    6  A    between atoms: C_9  and  O_18
REMARK    7  A    between atoms: C_11  and  N_61
REMARK    8  A    between atoms: C_19  and  N_63
REMARK    9  A    between atoms: C_20  and  N_63
REMARK   10  A    between atoms: C_23  and  O_26
REMARK                            x       y       z     vdW  Elec       q    Type
REMARK                         _______ _______ _______ _____ _____    ______ ____
ROOT
ATOM      1  C   UNL     1       0.495  -1.245  -6.185  0.00  0.00    +0.004 A 
ATOM      2  C   UNL     1      -0.183  -0.793  -5.068  0.00  0.00    +0.002 A 
ATOM      3  C   UNL     1      -0.251   0.561  -4.798  0.00  0.00    -0.061 A 
ATOM      4  C   UNL     1       0.354   1.467  -5.648  0.00  0.00    +0.047 A 
ATOM      5  C   UNL     1       1.039   1.016  -6.767  0.00  0.00    +0.121 A 
ATOM      6  C   UNL     1       1.106  -0.344  -7.035  0.00  0.00    +0.045 A 
ENDROOT
BRANCH   5   7
ATOM      7  O   UNL     1       1.640   1.905  -7.601  0.00  0.00    -0.489 OA
BRANCH   7   8
ATOM      8  C   UNL     1       2.323   1.370  -8.736  0.00  0.00    +0.258 C 
BRANCH   8   9
ATOM      9  C   UNL     1       2.931   2.513  -9.552  0.00  0.00    +0.135 C 
BRANCH   9  10
ATOM     10  O   UNL     1       1.884   3.324 -10.088  0.00  0.00    -0.390 OA
ATOM     11  H   UNL     1       1.277   2.848 -10.672  0.00  0.00    +0.210 HD
ENDBRANCH   9  10
BRANCH   9  12
ATOM     12  C   UNL     1       3.766   1.935 -10.696  0.00  0.00    -0.044 C 
BRANCH  12  19
ATOM     13  C   UNL     1       3.466   3.967 -11.995  0.00  0.00    -0.079 C 
ATOM     14  C   UNL     1       4.096   4.942 -12.953  0.00  0.00    -0.019 C 
ATOM     15  C   UNL     1       3.983   4.367 -14.380  0.00  0.00    -0.002 C 
ATOM     16  C   UNL     1       4.985   3.340 -14.641  0.00  0.00    -0.002 C 
ATOM     17  C   UNL     1       4.843   2.132 -13.691  0.00  0.00    -0.019 C 
ATOM     18  C   UNL     1       5.444   2.498 -12.361  0.00  0.00    -0.079 C 
ATOM     19  N   UNL     1       4.468   3.045 -11.359  0.00  0.00    +0.381 N 
ATOM     20  H   UNL     1       4.992   3.575 -10.652  0.00  0.00    -0.082 HD
ENDBRANCH  12  19
ENDBRANCH   9  12
ENDBRANCH   8   9
ENDBRANCH   7   8
ENDBRANCH   5   7
BRANCH   3  21
ATOM     21  C   UNL     1      -0.990   1.050  -3.579  0.00  0.00    -0.046 C 
BRANCH  21  22
ATOM     22  N   UNL     1      -0.055   1.116  -2.441  0.00  0.00    +0.384 N 
ATOM     23  H   UNL     1       0.710   1.763  -2.667  0.00  0.00    -0.085 HD
ATOM     24  H   UNL     1       0.330   0.181  -2.263  0.00  0.00    -0.085 HD
BRANCH  22  25
ATOM     25  C   UNL     1      -0.753   1.593  -1.232  0.00  0.00    -0.071 C 
ATOM     26  C   UNL     1      -0.013   1.086   0.008  0.00  0.00    -0.013 C 
ATOM     27  C   UNL     1      -0.729   1.579   1.267  0.00  0.00    +0.030 C 
ATOM     28  C   UNL     1      -0.750   3.109   1.275  0.00  0.00    +0.114 C 
ATOM     29  C   UNL     1      -1.490   3.616   0.036  0.00  0.00    +0.030 C 
ATOM     30  C   UNL     1      -0.773   3.123  -1.223  0.00  0.00    -0.013 C 
BRANCH  28  31
ATOM     31  O   UNL     1       0.591   3.604   1.265  0.00  0.00    -0.392 OA
ATOM     32  H   UNL     1       1.120   3.321   2.024  0.00  0.00    +0.210 HD
ENDBRANCH  28  31
ENDBRANCH  22  25
ENDBRANCH  21  22
ENDBRANCH   3  21
TORSDOF 10
