REMARK  Name = ZINC64502375
REMARK  7 active torsions:
REMARK  status: ('A' for Active; 'I' for Inactive)
REMARK    1  A    between atoms: C_1  and  C_2
REMARK    2  A    between atoms: C_8  and  C_11
REMARK    3  A    between atoms: C_11  and  C_12
REMARK    4  A    between atoms: C_12  and  N_13
REMARK    5  A    between atoms: C_14  and  C_16
REMARK    6  A    between atoms: N_21  and  C_23
REMARK    7  A    between atoms: N_27  and  C_35
REMARK                            x       y       z     vdW  Elec       q    Type
REMARK                         _______ _______ _______ _____ _____    ______ ____
ROOT
ATOM      1  C   UNL     1      -2.534  -2.338   7.783  0.00  0.00    +0.058 C 
ATOM      2  C   UNL     1      -1.692  -3.405   8.489  0.00  0.00    +0.009 C 
ATOM      3  C   UNL     1      -1.759  -3.177  10.002  0.00  0.00    -0.018 C 
ATOM      4  C   UNL     1      -3.222  -3.203  10.451  0.00  0.00    -0.075 C 
ATOM      5  N   UNL     1      -3.969  -2.144   9.761  0.00  0.00    +0.398 N 
ATOM      6  C   UNL     1      -3.969  -2.395   8.315  0.00  0.00    -0.063 C 
ATOM      7  H   UNL     1      -3.534  -1.253   9.946  0.00  0.00    -0.078 HD
ENDROOT
BRANCH   5   8
ATOM      8  C   UNL     1      -5.353  -2.123  10.252  0.00  0.00    +0.105 C 
ATOM      9  C   UNL     1      -5.364  -1.740  11.710  0.00  0.00    +0.223 C 
ATOM     10  O   UNL     1      -5.435  -0.570  12.022  0.00  0.00    -0.275 OA
ATOM     11  N   UNL     1      -5.298  -2.681  12.671  0.00  0.00    -0.273 N 
ATOM     12  C   UNL     1      -5.266  -4.041  12.338  0.00  0.00    +0.057 A 
ATOM     13  C   UNL     1      -4.908  -4.992  13.279  0.00  0.00    +0.025 A 
ATOM     14  C   UNL     1      -4.889  -6.331  12.931  0.00  0.00    +0.002 A 
ATOM     15  C   UNL     1      -5.226  -6.725  11.649  0.00  0.00    +0.002 A 
ATOM     16  C   UNL     1      -5.583  -5.781  10.702  0.00  0.00    +0.025 A 
ATOM     17  C   UNL     1      -5.602  -4.441  11.043  0.00  0.00    +0.048 A 
ATOM     18  N   UNL     1      -5.949  -3.459  10.101  0.00  0.00    -0.348 N 
ATOM     19  C   UNL     1      -5.256  -2.279  14.079  0.00  0.00    +0.138 C 
ATOM     20  H   UNL     1      -6.562  -3.654   9.376  0.00  0.00    +0.145 HD
ENDBRANCH   5   8
BRANCH   1  22
ATOM     21  N   UNL     1      -1.377  -2.600   5.613  0.00  0.00    -0.315 N 
ATOM     22  C   UNL     1      -2.537  -2.599   6.299  0.00  0.00    +0.214 C 
ATOM     23  O   UNL     1      -3.583  -2.808   5.722  0.00  0.00    -0.276 OA
ATOM     24  H   UNL     1      -0.540  -2.433   6.075  0.00  0.00    +0.149 HD
BRANCH  21  25
ATOM     25  C   UNL     1      -1.379  -2.854   4.170  0.00  0.00    +0.108 C 
BRANCH  25  26
ATOM     26  C   UNL     1       0.055  -2.799   3.641  0.00  0.00    +0.052 C 
BRANCH  26  34
ATOM     27  C   UNL     1      -0.018   1.503   0.010  0.00  0.00    +0.044 C 
ATOM     28  C   UNL     1       0.002  -0.004   0.002  0.00  0.00    -0.050 A 
ATOM     29  C   UNL     1       0.005  -0.680  -1.226  0.00  0.00    +0.005 A 
ATOM     30  C   UNL     1       0.023  -2.026  -1.317  0.00  0.00    +0.026 A 
ATOM     31  C   UNL     1       0.039  -2.826  -0.141  0.00  0.00    +0.043 A 
ATOM     32  N   UNL     1       0.057  -4.126   0.030  0.00  0.00    -0.380 N 
ATOM     33  C   UNL     1       0.067  -4.408   1.470  0.00  0.00    +0.144 C 
ATOM     34  C   UNL     1       0.052  -3.060   2.156  0.00  0.00    -0.040 C 
ATOM     35  C   UNL     1       0.036  -2.137   1.168  0.00  0.00    -0.001 A 
ATOM     36  C   UNL     1       0.022  -0.669   1.180  0.00  0.00    +0.013 A 
ATOM     37  H   UNL     1       0.062  -4.790  -0.677  0.00  0.00    +0.160 HD
ENDBRANCH  26  34
ENDBRANCH  25  26
ENDBRANCH  21  25
ENDBRANCH   1  22
TORSDOF 5
