REMARK  Name = ZINC22936760
REMARK  11 active torsions:
REMARK  status: ('A' for Active; 'I' for Inactive)
REMARK    1  A    between atoms: C_1  and  N_2
REMARK    2  A    between atoms: N_2  and  C_3
REMARK    3  A    between atoms: N_2  and  C_4
REMARK    4  A    between atoms: C_7  and  C_10
REMARK    5  A    between atoms: C_10  and  N_11
REMARK    6  A    between atoms: N_11  and  C_12
REMARK    7  A    between atoms: C_21  and  C_25
REMARK    8  A    between atoms: C_25  and  C_26
REMARK    9  A    between atoms: C_26  and  C_27
REMARK   10  A    between atoms: N_29  and  C_30
REMARK   11  A    between atoms: C_30  and  C_31
REMARK                            x       y       z     vdW  Elec       q    Type
REMARK                         _______ _______ _______ _____ _____    ______ ____
ROOT
ATOM      1  C   UNL     1      -1.589  -3.614  -6.531  0.00  0.00    -0.055 C 
ATOM      2  C   UNL     1      -3.015  -4.007  -7.012  0.00  0.00    +0.014 C 
ATOM      3  C   UNL     1      -2.885  -3.860  -8.536  0.00  0.00    +0.142 C 
ATOM      4  C   UNL     1      -4.175  -3.642  -9.260  0.00  0.00    +0.230 C 
ATOM      5  O   UNL     1      -5.188  -4.195  -8.889  0.00  0.00    -0.274 OA
ATOM      6  N   UNL     1      -4.198  -2.824 -10.329  0.00  0.00    -0.313 N 
ATOM      7  C   UNL     1      -3.074  -2.014 -10.780  0.00  0.00    +0.123 C 
ATOM      8  C   UNL     1      -1.771  -2.381 -10.053  0.00  0.00    +0.075 C 
ATOM      9  N   UNL     1      -2.076  -2.618  -8.656  0.00  0.00    -0.289 NA
ATOM     10  C   UNL     1      -0.997  -2.761  -7.682  0.00  0.00    +0.070 C 
ATOM     11  H   UNL     1      -5.024  -2.769 -10.835  0.00  0.00    +0.149 HD
ENDROOT
BRANCH   1  12
ATOM     12  N   UNL     1      -1.667  -2.821  -5.296  0.00  0.00    +0.384 N 
ATOM     13  H   UNL     1      -2.171  -3.342  -4.593  0.00  0.00    -0.085 HD
ATOM     14  H   UNL     1      -2.150  -1.955  -5.483  0.00  0.00    -0.085 HD
BRANCH  12  15
ATOM     15  C   UNL     1      -0.310  -2.532  -4.814  0.00  0.00    -0.046 C 
BRANCH  15  19
ATOM     16  C   UNL     1      -0.536  -0.226  -1.222  0.00  0.00    +0.029 A 
ATOM     17  C   UNL     1      -0.515  -1.614  -1.158  0.00  0.00    +0.023 A 
ATOM     18  C   UNL     1      -0.442  -2.356  -2.321  0.00  0.00    +0.003 A 
ATOM     19  C   UNL     1      -0.390  -1.719  -3.547  0.00  0.00    -0.064 A 
ATOM     20  C   UNL     1      -0.411  -0.338  -3.614  0.00  0.00    +0.003 A 
ATOM     21  C   UNL     1      -0.489   0.410  -2.456  0.00  0.00    +0.023 A 
BRANCH  16  23
ATOM     22  C   UNL     1      -0.638   1.991  -0.118  0.00  0.00    +0.129 C 
ATOM     23  N   UNL     1      -0.610   0.527  -0.049  0.00  0.00    -0.336 N 
ATOM     24  C   UNL     1      -0.658  -0.145   1.252  0.00  0.00    +0.129 C 
ENDBRANCH  16  23
ENDBRANCH  15  19
ENDBRANCH  12  15
ENDBRANCH   1  12
BRANCH   8  25
ATOM     25  C   UNL     1      -0.766  -1.234 -10.177  0.00  0.00    +0.029 C 
BRANCH  25  26
ATOM     26  C   UNL     1      -0.361  -1.066 -11.643  0.00  0.00    +0.097 C 
BRANCH  26  27
ATOM     27  C   UNL     1       0.720  -0.021 -11.749  0.00  0.00    +0.213 C 
ATOM     28  O   UNL     1       1.126   0.535 -10.750  0.00  0.00    -0.276 OA
ATOM     29  N   UNL     1       1.234   0.296 -12.953  0.00  0.00    -0.311 N 
ATOM     30  H   UNL     1       0.910  -0.148 -13.752  0.00  0.00    +0.149 HD
BRANCH  29  31
ATOM     31  C   UNL     1       2.285   1.312 -13.056  0.00  0.00    +0.139 C 
BRANCH  31  32
ATOM     32  C   UNL     1       2.684   1.477 -14.500  0.00  0.00    -0.030 A 
ATOM     33  C   UNL     1       3.697   0.700 -15.030  0.00  0.00    +0.008 A 
ATOM     34  C   UNL     1       4.063   0.851 -16.354  0.00  0.00    +0.038 A 
ATOM     35  C   UNL     1       3.415   1.780 -17.150  0.00  0.00    +0.123 A 
ATOM     36  C   UNL     1       2.401   2.558 -16.618  0.00  0.00    +0.038 A 
ATOM     37  C   UNL     1       2.032   2.402 -15.295  0.00  0.00    +0.008 A 
ATOM     38  F   UNL     1       3.773   1.929 -18.444  0.00  0.00    -0.205 F 
ENDBRANCH  31  32
ENDBRANCH  29  31
ENDBRANCH  26  27
ENDBRANCH  25  26
ENDBRANCH   8  25
TORSDOF 9
