REMARK  Name = ZINC39436160
REMARK  9 active torsions:
REMARK  status: ('A' for Active; 'I' for Inactive)
REMARK    1  A    between atoms: C_1  and  O_2
REMARK    2  A    between atoms: O_2  and  C_3
REMARK    3  A    between atoms: C_8  and  C_13
REMARK    4  A    between atoms: C_13  and  C_34
REMARK    5  A    between atoms: C_14  and  C_15
REMARK    6  A    between atoms: C_18  and  O_22
REMARK    7  A    between atoms: O_22  and  C_23
REMARK    8  A    between atoms: C_23  and  C_24
REMARK    9  A    between atoms: C_27  and  C_30
REMARK                            x       y       z     vdW  Elec       q    Type
REMARK                         _______ _______ _______ _____ _____    ______ ____
ROOT
ATOM      1  C   UNL     1       5.132  -6.546   3.974  0.00  0.00    -0.021 A 
ATOM      2  C   UNL     1       6.090  -6.071   3.072  0.00  0.00    +0.031 A 
ATOM      3  C   UNL     1       7.244  -6.792   2.853  0.00  0.00    +0.085 A 
ATOM      4  C   UNL     1       7.458  -7.988   3.529  0.00  0.00    +0.157 A 
ATOM      5  C   UNL     1       6.508  -8.464   4.427  0.00  0.00    +0.085 A 
ATOM      6  C   UNL     1       5.353  -7.748   4.655  0.00  0.00    +0.031 A 
ATOM      7 CL   UNL     1       6.782  -9.959   5.265  0.00  0.00    -0.080 Cl
ATOM      8 CL   UNL     1       8.434  -6.204   1.734  0.00  0.00    -0.080 Cl
ENDROOT
BRANCH   1  10
ATOM      9  C   UNL     1       3.301  -5.131   3.190  0.00  0.00    +0.072 C 
ATOM     10  C   UNL     1       3.898  -5.781   4.211  0.00  0.00    +0.026 C 
BRANCH   9  16
ATOM     11  C   UNL     1      -0.574  -2.414   0.199  0.00  0.00    +0.122 A 
ATOM     12  C   UNL     1       0.347  -1.299   0.375  0.00  0.00    +0.048 A 
ATOM     13  C   UNL     1       1.362  -1.348   1.258  0.00  0.00    +0.031 A 
ATOM     14  C   UNL     1       1.560  -2.553   2.077  0.00  0.00    +0.061 A 
ATOM     15  N   UNL     1       2.441  -2.859   2.985  0.00  0.00    -0.359 N 
ATOM     16  C   UNL     1       2.135  -4.215   3.459  0.00  0.00    +0.216 C 
ATOM     17  N   UNL     1       0.957  -4.661   2.706  0.00  0.00    -0.359 N 
ATOM     18  C   UNL     1       0.620  -3.692   1.899  0.00  0.00    +0.064 A 
ATOM     19  C   UNL     1      -0.461  -3.556   0.920  0.00  0.00    +0.073 A 
ATOM     20  H   UNL     1       3.167  -2.295   3.293  0.00  0.00    +0.162 HD
ATOM     21  H   UNL     1       0.511  -5.518   2.793  0.00  0.00    +0.162 HD
BRANCH  11  23
ATOM     22  C   UNL     1      -1.655  -1.081  -1.444  0.00  0.00    +0.277 C 
ATOM     23  O   UNL     1      -1.577  -2.304  -0.708  0.00  0.00    -0.495 OA
ENDBRANCH  11  23
ENDBRANCH   9  16
BRANCH   9  24
ATOM     24  C   UNL     1       3.773  -5.314   1.851  0.00  0.00    +0.099 C 
ATOM     25  N   UNL     1       4.149  -5.459   0.788  0.00  0.00    -0.191 NA
ENDBRANCH   9  24
ENDBRANCH   1  10
BRANCH   4  26
ATOM     26  O   UNL     1       8.597  -8.695   3.310  0.00  0.00    -0.484 OA
BRANCH  26  27
ATOM     27  C   UNL     1       9.715  -8.398   4.148  0.00  0.00    +0.264 C 
BRANCH  27  28
ATOM     28  C   UNL     1      10.879  -9.274   3.762  0.00  0.00    -0.010 A 
ATOM     29  C   UNL     1      11.042 -10.509   4.364  0.00  0.00    +0.008 A 
ATOM     30  C   UNL     1      12.105 -11.316   4.016  0.00  0.00    +0.015 A 
ATOM     31  C   UNL     1      13.018 -10.883   3.051  0.00  0.00    +0.063 A 
ATOM     32  C   UNL     1      12.848  -9.635   2.447  0.00  0.00    +0.015 A 
ATOM     33  C   UNL     1      11.777  -8.842   2.802  0.00  0.00    +0.008 A 
BRANCH  31  34
ATOM     34  C   UNL     1      14.158 -11.740   2.674  0.00  0.00    +0.387 C 
ATOM     35  O   UNL     1      14.305 -12.832   3.205  0.00  0.00    -0.241 OA
ATOM     36  O   UNL     1      14.957 -11.359   1.829  0.00  0.00    -0.241 OA
ENDBRANCH  31  34
ENDBRANCH  27  28
ENDBRANCH  26  27
ENDBRANCH   4  26
TORSDOF 8
