REMARK  Name = ZINC39545712
REMARK  8 active torsions:
REMARK  status: ('A' for Active; 'I' for Inactive)
REMARK    1  A    between atoms: C_1  and  S_2
REMARK    2  A    between atoms: S_2  and  N_3
REMARK    3  A    between atoms: N_3  and  S_28
REMARK    4  A    between atoms: C_4  and  C_6
REMARK    5  A    between atoms: C_9  and  C_21
REMARK    6  A    between atoms: C_21  and  C_22
REMARK    7  A    between atoms: S_28  and  O_31
REMARK    8  A    between atoms: O_31  and  C_32
REMARK                            x       y       z     vdW  Elec       q    Type
REMARK                         _______ _______ _______ _____ _____    ______ ____
ROOT
ATOM      1  C   UNL     1      -1.430  -0.361  -2.426  0.00  0.00    +0.173 C 
ATOM      2  C   UNL     1      -0.289  -1.382  -2.635  0.00  0.00    +0.045 C 
ATOM      3  C   UNL     1      -0.464  -1.717  -4.135  0.00  0.00    +0.057 C 
ATOM      4  C   UNL     1      -1.913  -1.395  -4.411  0.00  0.00    +0.079 C 
ATOM      5  N   UNL     1      -2.629  -1.810  -5.514  0.00  0.00    -0.304 N 
ATOM      6  C   UNL     1      -3.848  -1.171  -5.779  0.00  0.00    +0.037 A 
ATOM      7  C   UNL     1      -4.456  -1.335  -7.017  0.00  0.00    +0.023 A 
ATOM      8  C   UNL     1      -5.655  -0.705  -7.284  0.00  0.00    +0.002 A 
ATOM      9  C   UNL     1      -6.247   0.089  -6.319  0.00  0.00    +0.000 A 
ATOM     10  C   UNL     1      -5.645   0.252  -5.086  0.00  0.00    +0.007 A 
ATOM     11  C   UNL     1      -4.444  -0.379  -4.808  0.00  0.00    -0.007 A 
ATOM     12  C   UNL     1      -3.814  -0.198  -3.454  0.00  0.00    +0.155 C 
ATOM     13  N   UNL     1      -2.421  -0.660  -3.470  0.00  0.00    -0.346 N 
ATOM     14  H   UNL     1      -2.299  -2.519  -6.088  0.00  0.00    +0.153 HD
ENDROOT
BRANCH   1  16
ATOM     15  N   UNL     1      -1.297  -0.336   0.044  0.00  0.00    -0.081 N 
ATOM     16  C   UNL     1      -2.043  -0.537  -1.060  0.00  0.00    +0.269 C 
ATOM     17  O   UNL     1      -3.208  -0.858  -0.955  0.00  0.00    -0.271 OA
BRANCH  15  18
ATOM     18  S   UNL     1      -1.971  -0.529   1.545  0.00  0.00    +0.222 S 
ATOM     19  O   UNL     1      -3.078  -1.404   1.383  0.00  0.00    -0.114 OA
ATOM     20  O   UNL     1      -0.901  -0.810   2.437  0.00  0.00    -0.114 OA
BRANCH  18  21
ATOM     21  O   UNL     1      -2.539   0.821   1.959  0.00  0.00    -0.330 OA
BRANCH  21  22
ATOM     22  C   UNL     1      -3.695   1.152   1.324  0.00  0.00    +0.158 A 
ATOM     23  C   UNL     1      -3.654   1.850   0.126  0.00  0.00    +0.048 A 
ATOM     24  C   UNL     1      -4.830   2.185  -0.517  0.00  0.00    +0.004 A 
ATOM     25  C   UNL     1      -6.046   1.825   0.032  0.00  0.00    +0.000 A 
ATOM     26  C   UNL     1      -6.090   1.131   1.227  0.00  0.00    +0.004 A 
ATOM     27  C   UNL     1      -4.917   0.788   1.871  0.00  0.00    +0.048 A 
ENDBRANCH  21  22
ENDBRANCH  18  21
ENDBRANCH  15  18
BRANCH  15  29
ATOM     28  C   UNL     1       0.248   1.915  -0.130  0.00  0.00    +0.108 C 
ATOM     29  S   UNL     1       0.293   0.102  -0.100  0.00  0.00    -0.033 S 
ENDBRANCH  15  29
ENDBRANCH   1  16
BRANCH   3  30
ATOM     30  C   UNL     1      -0.181  -3.199  -4.391  0.00  0.00    +0.046 C 
BRANCH  30  31
ATOM     31  C   UNL     1       1.271  -3.489  -4.112  0.00  0.00    -0.047 A 
ATOM     32  C   UNL     1       2.222  -3.258  -5.088  0.00  0.00    +0.003 A 
ATOM     33  C   UNL     1       3.554  -3.524  -4.832  0.00  0.00    +0.000 A 
ATOM     34  C   UNL     1       3.936  -4.020  -3.600  0.00  0.00    +0.000 A 
ATOM     35  C   UNL     1       2.985  -4.250  -2.623  0.00  0.00    +0.000 A 
ATOM     36  C   UNL     1       1.653  -3.980  -2.877  0.00  0.00    +0.003 A 
ENDBRANCH  30  31
ENDBRANCH   3  30
TORSDOF 7
