REMARK  Name = ZINC63339757
REMARK  14 active torsions:
REMARK  status: ('A' for Active; 'I' for Inactive)
REMARK    1  A    between atoms: C_1  and  C_2
REMARK    2  A    between atoms: C_5  and  C_37
REMARK    3  A    between atoms: C_6  and  C_8
REMARK    4  A    between atoms: C_8  and  S_9
REMARK    5  A    between atoms: S_9  and  C_10
REMARK    6  A    between atoms: C_14  and  C_17
REMARK    7  A    between atoms: C_17  and  C_19
REMARK    8  A    between atoms: C_17  and  N_29
REMARK    9  A    between atoms: C_19  and  C_20
REMARK   10  A    between atoms: C_30  and  O_32
REMARK   11  A    between atoms: O_32  and  C_33
REMARK   12  A    between atoms: C_33  and  C_34
REMARK   13  A    between atoms: C_33  and  C_35
REMARK   14  A    between atoms: C_33  and  C_36
REMARK                            x       y       z     vdW  Elec       q    Type
REMARK                         _______ _______ _______ _____ _____    ______ ____
ROOT
ATOM      1  C   UNL     1       0.890  -6.250   6.583  0.00  0.00    +0.133 C 
ENDROOT
BRANCH   1   5
ATOM      2  C   UNL     1       1.614  -4.317   4.290  0.00  0.00    +0.319 C 
ATOM      3  N   UNL     1       1.077  -3.373   5.279  0.00  0.00    -0.146 NA
ATOM      4  N   UNL     1       0.255  -3.943   6.008  0.00  0.00    -0.155 NA
ATOM      5  C   UNL     1       0.121  -5.351   5.613  0.00  0.00    +0.280 C 
ATOM      6  O   UNL     1       0.698  -5.431   4.291  0.00  0.00    -0.316 OA
BRANCH   2   7
ATOM      7  S   UNL     1       1.665  -3.546   2.648  0.00  0.00    -0.100 S 
BRANCH   7   8
ATOM      8  C   UNL     1      -0.053  -3.050   2.343  0.00  0.00    +0.109 C 
BRANCH   8  14
ATOM      9  C   UNL     1       0.114   1.078  -0.482  0.00  0.00    +0.044 C 
ATOM     10  C   UNL     1      -0.072  -0.413  -0.359  0.00  0.00    -0.050 A 
ATOM     11  C   UNL     1      -0.334  -1.172  -1.484  0.00  0.00    +0.003 A 
ATOM     12  C   UNL     1      -0.505  -2.539  -1.371  0.00  0.00    +0.004 A 
ATOM     13  C   UNL     1      -0.414  -3.147  -0.132  0.00  0.00    -0.046 A 
ATOM     14  C   UNL     1      -0.151  -2.388   0.993  0.00  0.00    -0.034 A 
ATOM     15  C   UNL     1       0.024  -1.021   0.878  0.00  0.00    +0.008 A 
ATOM     16  C   UNL     1      -0.602  -4.637  -0.008  0.00  0.00    +0.044 C 
ENDBRANCH   8  14
ENDBRANCH   7   8
ENDBRANCH   2   7
ENDBRANCH   1   5
BRANCH   1  17
ATOM     17  N   UNL     1       2.256  -5.743   6.739  0.00  0.00    -0.274 N 
ATOM     18  C   UNL     1       3.303  -6.497   6.348  0.00  0.00    +0.401 C 
ATOM     19  O   UNL     1       3.112  -7.558   5.787  0.00  0.00    -0.226 OA
ATOM     20  H   UNL     1       2.407  -4.866   7.124  0.00  0.00    +0.152 HD
BRANCH  18  21
ATOM     21  O   UNL     1       4.560  -6.074   6.579  0.00  0.00    -0.445 OA
BRANCH  21  22
ATOM     22  C   UNL     1       5.621  -6.923   6.138  0.00  0.00    +0.107 C 
ATOM     23  C   UNL     1       5.524  -7.116   4.623  0.00  0.00    +0.055 C 
ATOM     24  C   UNL     1       6.966  -6.282   6.485  0.00  0.00    +0.055 C 
ATOM     25  C   UNL     1       5.510  -8.282   6.833  0.00  0.00    +0.055 C 
ENDBRANCH  21  22
ENDBRANCH  18  21
ENDBRANCH   1  17
BRANCH   1  26
ATOM     26  C   UNL     1       0.188  -6.251   7.942  0.00  0.00    +0.060 C 
BRANCH  26  27
ATOM     27  C   UNL     1       0.874  -7.229   8.861  0.00  0.00    -0.040 C 
ATOM     28  C   UNL     1       1.837  -6.954   9.770  0.00  0.00    -0.001 A 
ATOM     29  C   UNL     1       2.510  -5.709  10.159  0.00  0.00    +0.010 A 
ATOM     30  C   UNL     1       3.458  -5.750  11.123  0.00  0.00    +0.001 A 
ATOM     31  C   UNL     1       3.812  -6.948  11.758  0.00  0.00    +0.002 A 
ATOM     32  C   UNL     1       3.238  -8.132  11.455  0.00  0.00    +0.026 A 
ATOM     33  C   UNL     1       2.229  -8.206  10.456  0.00  0.00    +0.043 A 
ATOM     34  N   UNL     1       1.535  -9.216   9.990  0.00  0.00    -0.380 N 
ATOM     35  C   UNL     1       0.619  -8.717   8.958  0.00  0.00    +0.144 C 
ATOM     36  H   UNL     1       1.611 -10.138  10.281  0.00  0.00    +0.160 HD
ENDBRANCH  26  27
ENDBRANCH   1  26
TORSDOF 9
