REMARK  Name = ZINC06781833
REMARK  11 active torsions:
REMARK  status: ('A' for Active; 'I' for Inactive)
REMARK    1  A    between atoms: C_1  and  C_2
REMARK    2  A    between atoms: C_2  and  C_3
REMARK    3  A    between atoms: C_2  and  N_4
REMARK    4  A    between atoms: C_11  and  C_23
REMARK    5  A    between atoms: C_13  and  C_19
REMARK    6  A    between atoms: C_13  and  C_21
REMARK    7  A    between atoms: C_14  and  N_18
REMARK    8  A    between atoms: C_15  and  C_16
REMARK    9  A    between atoms: C_26  and  C_29
REMARK   10  A    between atoms: C_29  and  O_31
REMARK   11  A    between atoms: O_31  and  C_32
REMARK                            x       y       z     vdW  Elec       q    Type
REMARK                         _______ _______ _______ _____ _____    ______ ____
ROOT
ATOM      1  N   UNL     1      -3.167   3.867   2.639  0.00  0.00    -0.296 NA
ATOM      2  C   UNL     1      -3.625   4.841   1.632  0.00  0.00    +0.112 C 
ATOM      3  C   UNL     1      -3.179   4.342   0.280  0.00  0.00    -0.006 C 
ATOM      4  C   UNL     1      -2.046   3.674   0.164  0.00  0.00    -0.026 C 
ATOM      5  C   UNL     1      -1.125   3.421   1.323  0.00  0.00    +0.044 C 
ATOM      6  C   UNL     1      -1.703   3.816   2.663  0.00  0.00    +0.094 C 
ATOM      7  C   UNL     1      -0.711   1.950   1.285  0.00  0.00    +0.067 C 
ATOM      8  C   UNL     1       0.075   1.690  -0.000  0.00  0.00    +0.188 C 
ATOM      9  C   UNL     1      -0.651   2.198  -1.208  0.00  0.00    +0.054 C 
ATOM     10  C   UNL     1      -1.635   3.132  -1.155  0.00  0.00    +0.074 C 
ENDROOT
BRANCH   7  11
ATOM     11  C   UNL     1       0.157   1.640   2.478  0.00  0.00    -0.041 A 
ATOM     12  C   UNL     1       1.162   2.517   2.845  0.00  0.00    +0.005 A 
ATOM     13  C   UNL     1       1.955   2.243   3.940  0.00  0.00    +0.015 A 
ATOM     14  C   UNL     1       1.750   1.072   4.671  0.00  0.00    +0.059 A 
ATOM     15  C   UNL     1       0.737   0.188   4.292  0.00  0.00    +0.015 A 
ATOM     16  C   UNL     1      -0.053   0.477   3.199  0.00  0.00    +0.005 A 
BRANCH  14  17
ATOM     17  C   UNL     1       2.600   0.768   5.841  0.00  0.00    +0.339 C 
ATOM     18  O   UNL     1       2.418  -0.251   6.475  0.00  0.00    -0.245 OA
BRANCH  17  19
ATOM     19  O   UNL     1       3.576   1.623   6.204  0.00  0.00    -0.464 OA
ATOM     20  C   UNL     1       4.372   1.261   7.363  0.00  0.00    +0.280 C 
ENDBRANCH  17  19
ENDBRANCH  14  17
ENDBRANCH   7  11
BRANCH   1  22
ATOM     21  C   UNL     1      -5.232   4.235   3.902  0.00  0.00    +0.024 C 
ATOM     22  C   UNL     1      -3.705   4.191   3.967  0.00  0.00    +0.051 C 
ATOM     23  C   UNL     1      -3.268   3.120   4.969  0.00  0.00    +0.024 C 
ENDBRANCH   1  22
BRANCH   9  24
ATOM     24  N   UNL     1      -0.305   1.694  -2.430  0.00  0.00    -0.358 N 
ATOM     25  H   UNL     1      -0.819   2.046  -3.337  0.00  0.00    +0.142 HD
ATOM     26  H   UNL     1       0.488   0.936  -2.508  0.00  0.00    +0.142 HD
ENDBRANCH   9  24
BRANCH  10  27
ATOM     27  C   UNL     1      -2.269   3.587  -2.356  0.00  0.00    +0.101 C 
ATOM     28  N   UNL     1      -2.771   3.949  -3.308  0.00  0.00    -0.191 NA
ENDBRANCH  10  27
BRANCH   8  29
ATOM     29  C   UNL     1       0.292   0.241  -0.145  0.00  0.00    +0.091 C 
ATOM     30  N   UNL     1       0.459  -0.877  -0.257  0.00  0.00    -0.194 NA
ENDBRANCH   8  29
BRANCH   8  31
ATOM     31  C   UNL     1       1.381   2.362   0.092  0.00  0.00    +0.091 C 
ATOM     32  N   UNL     1       2.389   2.882   0.163  0.00  0.00    -0.194 NA
ENDBRANCH   8  31
TORSDOF 8
