REMARK  Name = ZINC38696287
REMARK  6 active torsions:
REMARK  status: ('A' for Active; 'I' for Inactive)
REMARK    1  A    between atoms: C_1  and  C_2
REMARK    2  A    between atoms: N_4  and  C_5
REMARK    3  A    between atoms: C_5  and  C_6
REMARK    4  A    between atoms: C_6  and  C_7
REMARK    5  A    between atoms: C_15  and  C_17
REMARK    6  A    between atoms: N_24  and  C_27
REMARK                            x       y       z     vdW  Elec       q    Type
REMARK                         _______ _______ _______ _____ _____    ______ ____
ROOT
ATOM      1  C   UNL     1      -2.434  -4.239   0.188  0.00  0.00    -0.033 C 
ATOM      2  C   UNL     1      -1.430  -5.140   0.090  0.00  0.00    -0.000 A 
ATOM      3  C   UNL     1       0.030  -5.015   0.172  0.00  0.00    +0.010 A 
ATOM      4  C   UNL     1       0.792  -6.124   0.030  0.00  0.00    +0.001 A 
ATOM      5  C   UNL     1       0.224  -7.385  -0.192  0.00  0.00    +0.002 A 
ATOM      6  C   UNL     1      -1.109  -7.580  -0.280  0.00  0.00    +0.026 A 
ATOM      7  C   UNL     1      -2.006  -6.484  -0.145  0.00  0.00    +0.043 A 
ATOM      8  N   UNL     1      -3.314  -6.415  -0.191  0.00  0.00    -0.374 N 
ATOM      9  C   UNL     1      -3.717  -5.020   0.017  0.00  0.00    +0.130 C 
ATOM     10  H   UNL     1      -3.915  -7.163  -0.334  0.00  0.00    +0.161 HD
ENDROOT
BRANCH   9  11
ATOM     11  C   UNL     1      -4.567  -4.901   1.255  0.00  0.00    +0.020 C 
ATOM     12  C   UNL     1      -5.856  -4.513   1.154  0.00  0.00    +0.098 C 
ATOM     13  C   UNL     1      -6.661  -4.175   2.353  0.00  0.00    +0.256 C 
ATOM     14  O   UNL     1      -6.180  -4.238   3.468  0.00  0.00    -0.270 OA
ATOM     15  N   UNL     1      -7.942  -3.794   2.170  0.00  0.00    -0.236 N 
ATOM     16  C   UNL     1      -8.485  -3.720   0.948  0.00  0.00    +0.316 C 
ATOM     17  O   UNL     1      -9.646  -3.371   0.857  0.00  0.00    -0.252 OA
ATOM     18  N   UNL     1      -7.822  -4.009  -0.180  0.00  0.00    -0.218 N 
ATOM     19  C   UNL     1      -6.531  -4.398  -0.162  0.00  0.00    +0.259 C 
ATOM     20  O   UNL     1      -5.939  -4.653  -1.192  0.00  0.00    -0.269 OA
ATOM     21  H   UNL     1      -8.484  -3.570   2.943  0.00  0.00    +0.159 HD
BRANCH  18  22
ATOM     22  C   UNL     1      -8.515  -3.893  -1.466  0.00  0.00    +0.086 C 
ATOM     23  C   UNL     1      -8.991  -2.452  -1.661  0.00  0.00    +0.023 C 
ATOM     24  C   UNL     1      -9.715  -2.332  -3.004  0.00  0.00    +0.002 C 
ATOM     25  C   UNL     1     -10.921  -3.273  -3.019  0.00  0.00    +0.000 C 
ATOM     26  C   UNL     1     -10.445  -4.714  -2.824  0.00  0.00    +0.002 C 
ATOM     27  C   UNL     1      -9.722  -4.835  -1.481  0.00  0.00    +0.023 C 
ENDBRANCH  18  22
ENDBRANCH   9  11
BRANCH   1  28
ATOM     28  C   UNL     1      -2.300  -2.756   0.426  0.00  0.00    +0.052 C 
BRANCH  28  29
ATOM     29  C   UNL     1      -0.819  -2.390   0.540  0.00  0.00    +0.108 C 
BRANCH  29  33
ATOM     30  C   UNL     1       0.666   1.087   1.144  0.00  0.00    +0.109 C 
ATOM     31  C   UNL     1       0.532  -0.395   0.905  0.00  0.00    +0.210 C 
ATOM     32  O   UNL     1       1.524  -1.089   0.833  0.00  0.00    -0.276 OA
ATOM     33  N   UNL     1      -0.689  -0.949   0.772  0.00  0.00    -0.315 N 
ATOM     34  H   UNL     1      -1.483  -0.394   0.830  0.00  0.00    +0.149 HD
ENDBRANCH  29  33
ENDBRANCH  28  29
ENDBRANCH   1  28
TORSDOF 5
