REMARK  Name = ZINC08740273
REMARK  9 active torsions:
REMARK  status: ('A' for Active; 'I' for Inactive)
REMARK    1  A    between atoms: C_1  and  C_2
REMARK    2  A    between atoms: C_13  and  O_15
REMARK    3  A    between atoms: N_21  and  O_22
REMARK    4  A    between atoms: O_22  and  C_23
REMARK    5  A    between atoms: C_23  and  C_24
REMARK    6  A    between atoms: N_26  and  C_27
REMARK    7  A    between atoms: C_27  and  C_28
REMARK    8  A    between atoms: C_28  and  C_29
REMARK    9  A    between atoms: C_37  and  C_38
REMARK                            x       y       z     vdW  Elec       q    Type
REMARK                         _______ _______ _______ _____ _____    ______ ____
ROOT
ATOM      1  C   UNL     1      -0.916   3.969  -0.449  0.00  0.00    +0.014 C 
ATOM      2  C   UNL     1      -1.726   2.687  -0.644  0.00  0.00    -0.003 C 
ATOM      3  C   UNL     1      -2.961   2.958  -1.474  0.00  0.00    +0.010 C 
ATOM      4  C   UNL     1      -4.190   3.018  -0.547  0.00  0.00    +0.005 C 
ATOM      5  C   UNL     1      -3.841   3.815   0.706  0.00  0.00    +0.002 C 
ATOM      6  C   UNL     1      -2.857   3.067   1.579  0.00  0.00    -0.003 C 
ATOM      7  C   UNL     1      -2.128   2.053   0.705  0.00  0.00    +0.001 C 
ATOM      8  C   UNL     1      -0.768   1.598   1.261  0.00  0.00    +0.007 C 
ATOM      9  C   UNL     1      -0.013   1.086   0.008  0.00  0.00    +0.032 C 
ATOM     10  C   UNL     1      -0.792   1.609  -1.224  0.00  0.00    +0.121 C 
ATOM     11  C   UNL     1      -3.519   2.297   2.718  0.00  0.00    +0.008 C 
ATOM     12  C   UNL     1      -4.433   3.191   3.545  0.00  0.00    +0.031 C 
ATOM     13  C   UNL     1      -5.477   3.783   2.619  0.00  0.00    -0.062 C 
ATOM     14  C   UNL     1      -6.754   3.658   2.963  0.00  0.00    +0.026 C 
ATOM     15  C   UNL     1      -7.815   4.299   2.170  0.00  0.00    +0.080 C 
ATOM     16  N   UNL     1      -9.069   4.056   2.410  0.00  0.00    -0.089 NA
ATOM     17  C   UNL     1      -7.403   5.253   1.068  0.00  0.00    +0.059 C 
ATOM     18  C   UNL     1      -6.162   4.689   0.383  0.00  0.00    +0.017 C 
ATOM     19  C   UNL     1      -5.026   4.461   1.369  0.00  0.00    -0.007 C 
ATOM     20  C   UNL     1      -4.548   5.856   1.794  0.00  0.00    +0.016 C 
ENDROOT
BRANCH  10  21
ATOM     21  O   UNL     1       0.104   2.197  -2.166  0.00  0.00    -0.391 OA
ATOM     22  H   UNL     1       0.762   1.582  -2.519  0.00  0.00    +0.210 HD
ENDBRANCH  10  21
BRANCH  16  23
ATOM     23  O   UNL     1      -9.432   3.163   3.448  0.00  0.00    -0.384 OA
BRANCH  23  24
ATOM     24  C   UNL     1     -10.842   2.991   3.599  0.00  0.00    +0.358 C 
BRANCH  24  25
ATOM     25  C   UNL     1     -11.112   2.026   4.725  0.00  0.00    +0.253 C 
ATOM     26  O   UNL     1     -10.187   1.534   5.337  0.00  0.00    -0.272 OA
ATOM     27  N   UNL     1     -12.380   1.709   5.052  0.00  0.00    -0.312 N 
ATOM     28  H   UNL     1     -13.120   2.102   4.562  0.00  0.00    +0.149 HD
BRANCH  27  29
ATOM     29  C   UNL     1     -12.642   0.771   6.146  0.00  0.00    +0.110 C 
BRANCH  29  30
ATOM     30  C   UNL     1     -14.152   0.586   6.308  0.00  0.00    +0.075 C 
BRANCH  30  31
ATOM     31  C   UNL     1     -14.422  -0.379   7.434  0.00  0.00    +0.060 A 
ATOM     32  C   UNL     1     -15.195  -0.143   8.511  0.00  0.00    +0.107 A 
ATOM     33  N   UNL     1     -15.169  -1.278   9.275  0.00  0.00    -0.351 N 
ATOM     34  H   UNL     1     -15.650  -1.423  10.140  0.00  0.00    +0.166 HD
ATOM     35  C   UNL     1     -14.372  -2.167   8.642  0.00  0.00    +0.196 A 
ATOM     36  N   UNL     1     -13.929  -1.622   7.542  0.00  0.00    -0.241 NA
ENDBRANCH  30  31
ENDBRANCH  29  30
ENDBRANCH  27  29
ENDBRANCH  24  25
ENDBRANCH  23  24
ENDBRANCH  16  23
TORSDOF 7
