REMARK  Name = ZINC06443714
REMARK  12 active torsions:
REMARK  status: ('A' for Active; 'I' for Inactive)
REMARK    1  A    between atoms: C_1  and  C_2
REMARK    2  A    between atoms: C_12  and  C_14
REMARK    3  A    between atoms: C_14  and  C_16
REMARK    4  A    between atoms: C_14  and  N_64
REMARK    5  A    between atoms: N_20  and  C_21
REMARK    6  A    between atoms: C_21  and  C_22
REMARK    7  A    between atoms: C_22  and  O_23
REMARK    8  A    between atoms: O_23  and  C_24
REMARK    9  A    between atoms: C_25  and  C_26
REMARK   10  A    between atoms: C_25  and  N_64
REMARK   11  A    between atoms: C_33  and  C_34
REMARK   12  A    between atoms: C_33  and  N_64
REMARK                            x       y       z     vdW  Elec       q    Type
REMARK                         _______ _______ _______ _____ _____    ______ ____
ROOT
ATOM      1  C   UNL     1       0.378  -2.828   4.353  0.00  0.00    +0.040 C 
ENDROOT
BRANCH   1  13
ATOM      2  C   UNL     1      -1.398  -1.114  -1.739  0.00  0.00    +0.046 C 
ATOM      3  C   UNL     1      -1.017  -2.449  -1.152  0.00  0.00    -0.026 A 
ATOM      4  C   UNL     1      -1.011  -3.577  -1.944  0.00  0.00    +0.005 A 
ATOM      5  C   UNL     1      -0.656  -4.811  -1.417  0.00  0.00    +0.001 A 
ATOM      6  C   UNL     1      -0.317  -4.932  -0.099  0.00  0.00    +0.010 A 
ATOM      7  C   UNL     1      -0.322  -3.802   0.725  0.00  0.00    -0.001 A 
ATOM      8  C   UNL     1      -0.675  -2.548   0.192  0.00  0.00    +0.052 A 
ATOM      9  N   UNL     1      -0.677  -1.437   1.008  0.00  0.00    -0.322 N 
ATOM     10  H   UNL     1      -0.920  -0.573   0.640  0.00  0.00    +0.169 HD
ATOM     11  C   UNL     1      -0.347  -1.533   2.308  0.00  0.00    +0.251 A 
ATOM     12  O   UNL     1      -0.360  -0.530   3.001  0.00  0.00    -0.268 OA
ATOM     13  C   UNL     1       0.015  -2.766   2.891  0.00  0.00    +0.011 A 
ATOM     14  C   UNL     1       0.037  -3.896   2.142  0.00  0.00    +0.017 A 
ENDBRANCH   1  13
BRANCH   1  15
ATOM     15  C   UNL     1       1.588  -1.967   4.607  0.00  0.00    +0.143 A 
ATOM     16  N   UNL     1       1.636  -0.657   4.583  0.00  0.00    -0.115 NA
ATOM     17  N   UNL     1       2.844  -0.298   4.852  0.00  0.00    -0.023 NA
ATOM     18  N   UNL     1       3.569  -1.345   5.039  0.00  0.00    -0.044 NA
ATOM     19  N   UNL     1       2.831  -2.393   4.897  0.00  0.00    -0.228 N 
BRANCH  19  20
ATOM     20  C   UNL     1       3.265  -3.787   5.026  0.00  0.00    +0.175 C 
BRANCH  20  21
ATOM     21  C   UNL     1       3.848  -4.265   3.695  0.00  0.00    +0.183 C 
BRANCH  21  22
ATOM     22  O   UNL     1       4.271  -5.625   3.822  0.00  0.00    -0.381 OA
ATOM     23  C   UNL     1       4.835  -6.171   2.628  0.00  0.00    +0.194 C 
ENDBRANCH  21  22
ENDBRANCH  20  21
ENDBRANCH  19  20
ENDBRANCH   1  15
BRANCH   1  24
ATOM     24  N   UNL     1      -0.753  -2.311   5.152  0.00  0.00    +0.397 N 
ATOM     25  H   UNL     1      -0.909  -1.325   4.910  0.00  0.00    -0.079 HD
BRANCH  24  26
ATOM     26  C   UNL     1      -0.441  -2.410   6.593  0.00  0.00    -0.039 C 
BRANCH  26  27
ATOM     27  C   UNL     1       0.436  -1.245   6.976  0.00  0.00    -0.046 A 
ATOM     28  C   UNL     1       1.772  -1.452   7.265  0.00  0.00    +0.003 A 
ATOM     29  C   UNL     1       2.577  -0.383   7.613  0.00  0.00    +0.000 A 
ATOM     30  C   UNL     1       2.044   0.891   7.681  0.00  0.00    +0.001 A 
ATOM     31  C   UNL     1       0.708   1.098   7.397  0.00  0.00    +0.020 A 
ATOM     32  C   UNL     1      -0.098   0.029   7.045  0.00  0.00    +0.042 A 
ATOM     33 CL   UNL     1      -1.777   0.288   6.689  0.00  0.00    -0.083 Cl
ENDBRANCH  26  27
ENDBRANCH  24  26
BRANCH  24  34
ATOM     34  C   UNL     1      -1.979  -3.079   4.847  0.00  0.00    -0.001 C 
BRANCH  34  35
ATOM     35  C   UNL     1      -2.695  -2.406   3.704  0.00  0.00    +0.089 A 
ATOM     36  C   UNL     1      -2.672  -2.801   2.419  0.00  0.00    +0.042 A 
ATOM     37  C   UNL     1      -3.474  -1.890   1.695  0.00  0.00    +0.041 A 
ATOM     38  C   UNL     1      -3.939  -0.991   2.581  0.00  0.00    +0.195 A 
ATOM     39  O   UNL     1      -3.469  -1.312   3.798  0.00  0.00    -0.470 OA
ENDBRANCH  34  35
ENDBRANCH  24  34
ENDBRANCH   1  24
TORSDOF 10
