REMARK  Name = ZINC39443585
REMARK  8 active torsions:
REMARK  status: ('A' for Active; 'I' for Inactive)
REMARK    1  A    between atoms: C_1  and  C_2
REMARK    2  A    between atoms: C_4  and  N_17
REMARK    3  A    between atoms: N_7  and  C_8
REMARK    4  A    between atoms: C_8  and  C_9
REMARK    5  A    between atoms: C_18  and  C_20
REMARK    6  A    between atoms: C_20  and  C_21
REMARK    7  A    between atoms: C_21  and  C_22
REMARK    8  A    between atoms: C_22  and  C_23
REMARK                            x       y       z     vdW  Elec       q    Type
REMARK                         _______ _______ _______ _____ _____    ______ ____
ROOT
ATOM      1  N   UNL     1       1.239  -2.851  -1.138  0.00  0.00    -0.295 N 
ATOM      2  C   UNL     1       1.160  -4.089  -1.665  0.00  0.00    +0.214 C 
ATOM      3  O   UNL     1       0.088  -4.651  -1.735  0.00  0.00    -0.276 OA
ATOM      4  H   UNL     1       2.097  -2.402  -1.082  0.00  0.00    +0.151 HD
ENDROOT
BRANCH   1   8
ATOM      5  C   UNL     1      -0.018   1.503   0.010  0.00  0.00    +0.062 C 
ATOM      6  C   UNL     1       0.002  -0.004   0.002  0.00  0.00    +0.018 C 
ATOM      7  C   UNL     1       0.007  -0.737  -1.093  0.00  0.00    +0.032 C 
ATOM      8  C   UNL     1       0.029  -2.184  -0.650  0.00  0.00    +0.183 C 
ATOM      9  N   UNL     1       0.035  -2.114   0.825  0.00  0.00    -0.216 NA
ATOM     10  N   UNL     1       0.024  -0.785   1.141  0.00  0.00    -0.265 N 
ATOM     11  H   UNL     1      -0.767  -2.588   1.213  0.00  0.00    +0.147 HD
BRANCH  10  12
ATOM     12  C   UNL     1       0.030  -0.258   2.507  0.00  0.00    +0.159 C 
BRANCH  12  13
ATOM     13  C   UNL     1      -1.389  -0.096   2.990  0.00  0.00    -0.027 A 
ATOM     14  C   UNL     1      -2.060   1.094   2.775  0.00  0.00    +0.007 A 
ATOM     15  C   UNL     1      -3.361   1.243   3.217  0.00  0.00    +0.022 A 
ATOM     16  C   UNL     1      -3.992   0.203   3.875  0.00  0.00    +0.059 A 
ATOM     17  C   UNL     1      -3.320  -0.988   4.090  0.00  0.00    +0.060 A 
ATOM     18  C   UNL     1      -2.020  -1.139   3.642  0.00  0.00    +0.026 A 
ATOM     19 CL   UNL     1      -4.111  -2.295   4.915  0.00  0.00    -0.082 Cl
ATOM     20 CL   UNL     1      -5.626   0.391   4.431  0.00  0.00    -0.082 Cl
ENDBRANCH  12  13
ENDBRANCH  10  12
ENDBRANCH   1   8
BRANCH   2  21
ATOM     21  C   UNL     1       2.404  -4.775  -2.167  0.00  0.00    +0.096 C 
BRANCH  21  22
ATOM     22  C   UNL     1       2.040  -6.158  -2.711  0.00  0.00    +0.014 C 
BRANCH  22  23
ATOM     23  C   UNL     1       3.304  -6.854  -3.221  0.00  0.00    +0.038 C 
BRANCH  23  24
ATOM     24  C   UNL     1       2.945  -8.217  -3.757  0.00  0.00    -0.022 A 
ATOM     25  C   UNL     1       2.465  -8.524  -5.107  0.00  0.00    +0.003 A 
ATOM     26  C   UNL     1       2.202  -7.754  -6.241  0.00  0.00    +0.010 A 
ATOM     27  C   UNL     1       1.751  -8.358  -7.381  0.00  0.00    +0.001 A 
ATOM     28  C   UNL     1       1.552  -9.731  -7.420  0.00  0.00    +0.002 A 
ATOM     29  C   UNL     1       1.805 -10.510  -6.311  0.00  0.00    +0.026 A 
ATOM     30  C   UNL     1       2.265  -9.916  -5.141  0.00  0.00    +0.047 A 
ATOM     31  N   UNL     1       2.602 -10.405  -3.898  0.00  0.00    -0.360 N 
ATOM     32  C   UNL     1       3.010  -9.380  -3.089  0.00  0.00    +0.087 A 
ATOM     33  H   UNL     1       2.560 -11.338  -3.637  0.00  0.00    +0.165 HD
ENDBRANCH  23  24
ENDBRANCH  22  23
ENDBRANCH  21  22
ENDBRANCH   2  21
TORSDOF 7
