REMARK  Name = ZINC61888096
REMARK  5 active torsions:
REMARK  status: ('A' for Active; 'I' for Inactive)
REMARK    1  A    between atoms: C_4  and  S_8
REMARK    2  A    between atoms: S_8  and  N_11
REMARK    3  A    between atoms: N_11  and  C_12
REMARK    4  A    between atoms: C_17  and  C_19
REMARK    5  A    between atoms: N_20  and  O_21
REMARK                            x       y       z     vdW  Elec       q    Type
REMARK                         _______ _______ _______ _____ _____    ______ ____
ROOT
ATOM      1  N   UNL     1       4.492  -0.453  -1.634  0.00  0.00    -0.186 NA
ATOM      2  H   UNL     1       4.972  -1.116  -2.155  0.00  0.00    +0.148 HD
ENDROOT
BRANCH   1   3
ATOM      3  C   UNL     1       4.889   0.956  -1.696  0.00  0.00    +0.087 C 
ATOM      4  C   UNL     1       6.400   1.091  -1.415  0.00  0.00    +0.021 C 
ATOM      5  C   UNL     1       7.046   1.128  -2.822  0.00  0.00    +0.002 C 
ATOM      6  C   UNL     1       6.030   1.960  -3.643  0.00  0.00    +0.013 C 
ATOM      7  C   UNL     1       4.653   1.508  -3.112  0.00  0.00    +0.074 C 
BRANCH   7   8
ATOM      8  C   UNL     1       3.709   2.682  -3.058  0.00  0.00    +0.136 C 
ATOM      9  N   UNL     1       2.856   2.869  -4.010  0.00  0.00    -0.076 NA
ATOM     10  N   UNL     1       3.756   3.555  -1.994  0.00  0.00    -0.344 N 
ATOM     11  H   UNL     1       4.397   3.414  -1.279  0.00  0.00    +0.144 HD
ATOM     12  H   UNL     1       3.149   4.310  -1.959  0.00  0.00    +0.144 HD
BRANCH   9  13
ATOM     13  O   UNL     1       2.734   1.915  -5.049  0.00  0.00    -0.408 OA
ATOM     14  H   UNL     1       2.126   2.177  -5.754  0.00  0.00    +0.328 HD
ENDBRANCH   9  13
ENDBRANCH   7   8
ENDBRANCH   1   3
BRANCH   1  15
ATOM     15  S   UNL     1       3.223  -0.914  -0.675  0.00  0.00    +0.060 S 
ATOM     16  O   UNL     1       3.134  -2.329  -0.771  0.00  0.00    -0.153 OA
ATOM     17  O   UNL     1       2.136  -0.059  -1.001  0.00  0.00    -0.153 OA
BRANCH  15  21
ATOM     18  C   UNL     1       4.370   0.023   3.604  0.00  0.00    +0.016 A 
ATOM     19  C   UNL     1       5.087  -0.917   2.886  0.00  0.00    +0.018 A 
ATOM     20  C   UNL     1       4.736  -1.204   1.579  0.00  0.00    +0.044 A 
ATOM     21  C   UNL     1       3.668  -0.550   0.990  0.00  0.00    +0.120 A 
ATOM     22  C   UNL     1       2.952   0.389   1.708  0.00  0.00    +0.045 A 
ATOM     23  C   UNL     1       3.303   0.676   3.015  0.00  0.00    +0.020 A 
ATOM     24 BR   UNL     1       2.323   1.962   3.996  0.00  0.00    -0.050 Br
ATOM     25 BR   UNL     1       5.716  -2.489   0.598  0.00  0.00    -0.048 Br
ENDBRANCH  15  21
ENDBRANCH   1  15
TORSDOF 5
