REMARK  Name = ZINC23566318
REMARK  7 active torsions:
REMARK  status: ('A' for Active; 'I' for Inactive)
REMARK    1  A    between atoms: C_1  and  C_2
REMARK    2  A    between atoms: C_2  and  C_3
REMARK    3  A    between atoms: C_8  and  N_9
REMARK    4  A    between atoms: C_12  and  C_17
REMARK    5  A    between atoms: C_17  and  S_18
REMARK    6  A    between atoms: S_18  and  C_19
REMARK    7  A    between atoms: N_23  and  C_24
REMARK                            x       y       z     vdW  Elec       q    Type
REMARK                         _______ _______ _______ _____ _____    ______ ____
ROOT
ATOM      1  N   UNL     1       2.411   6.221   2.360  0.00  0.00    -0.283 N 
ATOM      2  C   UNL     1       2.299   5.546   1.159  0.00  0.00    +0.224 A 
ATOM      3  N   UNL     1       2.115   4.228   1.150  0.00  0.00    -0.198 NA
ATOM      4  C   UNL     1       2.008   3.582   0.003  0.00  0.00    +0.146 A 
ATOM      5  N   UNL     1       2.088   4.240  -1.140  0.00  0.00    -0.199 NA
ATOM      6  C   UNL     1       2.266   5.560  -1.139  0.00  0.00    +0.217 A 
ATOM      7  N   UNL     1       2.375   6.213   0.013  0.00  0.00    -0.181 NA
ATOM      8  N   UNL     1       2.344   6.247  -2.333  0.00  0.00    -0.327 N 
ATOM      9  H   UNL     1       2.252   5.686   3.308  0.00  0.00    +0.155 HD
ATOM     10  H   UNL     1       2.491   7.337  -2.332  0.00  0.00    +0.145 HD
ATOM     11  H   UNL     1       2.259   5.705  -3.287  0.00  0.00    +0.145 HD
ENDROOT
BRANCH   1  17
ATOM     12  C   UNL     1       2.356   8.375   3.449  0.00  0.00    -0.026 A 
ATOM     13  C   UNL     1       2.669   9.720   3.455  0.00  0.00    +0.005 A 
ATOM     14  C   UNL     1       3.349  10.279   2.389  0.00  0.00    +0.000 A 
ATOM     15  C   UNL     1       3.719   9.493   1.313  0.00  0.00    +0.002 A 
ATOM     16  C   UNL     1       3.414   8.146   1.303  0.00  0.00    +0.023 A 
ATOM     17  C   UNL     1       2.726   7.583   2.370  0.00  0.00    +0.037 A 
BRANCH  12  19
ATOM     18  C   UNL     1       2.616   7.155   5.592  0.00  0.00    +0.009 C 
ATOM     19  C   UNL     1       1.614   7.767   4.611  0.00  0.00    +0.033 C 
ENDBRANCH  12  19
ENDBRANCH   1  17
BRANCH   4  20
ATOM     20  C   UNL     1       1.800   2.089  -0.003  0.00  0.00    +0.153 C 
BRANCH  20  21
ATOM     21  S   UNL     1       0.027   1.727   0.020  0.00  0.00    -0.078 S 
BRANCH  21  22
ATOM     22  C   UNL     1       0.074  -0.034   0.009  0.00  0.00    +0.196 A 
ATOM     23  N   UNL     1       1.150  -0.786  -0.016  0.00  0.00    -0.122 NA
ATOM     24  N   UNL     1       0.817  -2.028  -0.014  0.00  0.00    -0.137 NA
ATOM     25  C   UNL     1      -0.481  -2.144   0.004  0.00  0.00    +0.230 A 
ATOM     26  N   UNL     1      -1.003  -0.877   0.020  0.00  0.00    -0.277 N 
BRANCH  26  27
ATOM     27  C   UNL     1      -2.359  -0.519   0.042  0.00  0.00    +0.051 A 
ATOM     28  C   UNL     1      -2.822   0.395   0.979  0.00  0.00    +0.026 A 
ATOM     29  C   UNL     1      -4.157   0.749   0.996  0.00  0.00    +0.003 A 
ATOM     30  C   UNL     1      -5.035   0.187   0.087  0.00  0.00    +0.020 A 
ATOM     31  C   UNL     1      -4.578  -0.728  -0.844  0.00  0.00    +0.043 A 
ATOM     32  C   UNL     1      -3.242  -1.083  -0.869  0.00  0.00    +0.046 A 
ATOM     33 CL   UNL     1      -5.683  -1.432  -1.983  0.00  0.00    -0.083 Cl
ENDBRANCH  26  27
ENDBRANCH  21  22
ENDBRANCH  20  21
ENDBRANCH   4  20
TORSDOF 6
