REMARK  Name = ZINC38656038
REMARK  11 active torsions:
REMARK  status: ('A' for Active; 'I' for Inactive)
REMARK    1  A    between atoms: C_1  and  C_2
REMARK    2  A    between atoms: C_2  and  C_3
REMARK    3  A    between atoms: C_2  and  C_4
REMARK    4  A    between atoms: C_7  and  O_10
REMARK    5  A    between atoms: O_10  and  C_11
REMARK    6  A    between atoms: C_11  and  C_12
REMARK    7  A    between atoms: C_12  and  O_14
REMARK    8  A    between atoms: O_14  and  C_15
REMARK    9  A    between atoms: C_22  and  N_36
REMARK   10  A    between atoms: C_23  and  C_34
REMARK   11  A    between atoms: C_24  and  C_26
REMARK                            x       y       z     vdW  Elec       q    Type
REMARK                         _______ _______ _______ _____ _____    ______ ____
ROOT
ATOM      1  C   UNL     1       5.997  -4.187  -7.036  0.00  0.00    +0.135 A 
ATOM      2  C   UNL     1       5.442  -3.749  -8.231  0.00  0.00    +0.047 A 
ATOM      3  C   UNL     1       5.979  -4.162  -9.434  0.00  0.00    +0.012 A 
ATOM      4  C   UNL     1       7.071  -5.012  -9.455  0.00  0.00    +0.008 A 
ATOM      5  C   UNL     1       7.629  -5.453  -8.265  0.00  0.00    +0.138 A 
ATOM      6  C   UNL     1       7.093  -5.034  -7.054  0.00  0.00    +0.093 A 
ATOM      7  O   UNL     1       8.698  -6.287  -8.265  0.00  0.00    -0.441 OA
ATOM      8  C   UNL     1       8.995  -6.997  -9.367  0.00  0.00    +0.199 C 
ATOM      9  C   UNL     1       8.524  -6.653 -10.589  0.00  0.00    +0.098 C 
ATOM     10  C   UNL     1       7.642  -5.451 -10.777  0.00  0.00    +0.098 C 
ENDROOT
BRANCH  10  11
ATOM     11  C   UNL     1       8.451  -4.325 -11.369  0.00  0.00    -0.033 A 
ATOM     12  C   UNL     1       9.544  -3.826 -10.685  0.00  0.00    +0.006 A 
ATOM     13  C   UNL     1      10.286  -2.794 -11.227  0.00  0.00    +0.022 A 
ATOM     14  C   UNL     1       9.936  -2.260 -12.454  0.00  0.00    +0.059 A 
ATOM     15  C   UNL     1       8.842  -2.760 -13.139  0.00  0.00    +0.060 A 
ATOM     16  C   UNL     1       8.103  -3.797 -12.598  0.00  0.00    +0.026 A 
ATOM     17 CL   UNL     1       8.402  -2.091 -14.680  0.00  0.00    -0.082 Cl
ATOM     18 CL   UNL     1      10.868  -0.963 -13.135  0.00  0.00    -0.082 Cl
ENDBRANCH  10  11
BRANCH   8  19
ATOM     19  N   UNL     1       9.798  -8.103  -9.249  0.00  0.00    -0.328 N 
ATOM     20  H   UNL     1      10.143  -8.362  -8.381  0.00  0.00    +0.145 HD
ATOM     21  H   UNL     1      10.021  -8.626 -10.035  0.00  0.00    +0.145 HD
ENDBRANCH   8  19
BRANCH   9  22
ATOM     22  C   UNL     1       8.875  -7.450 -11.726  0.00  0.00    +0.101 C 
ATOM     23  N   UNL     1       9.153  -8.083 -12.627  0.00  0.00    -0.191 NA
ENDBRANCH   9  22
BRANCH   1  24
ATOM     24  O   UNL     1       5.469  -3.782  -5.851  0.00  0.00    -0.423 OA
BRANCH  24  25
ATOM     25  C   UNL     1       4.334  -4.365  -5.435  0.00  0.00    +0.350 C 
ATOM     26  O   UNL     1       3.764  -5.157  -6.148  0.00  0.00    -0.247 OA
BRANCH  25  27
ATOM     27  C   UNL     1       3.769  -4.031  -4.078  0.00  0.00    +0.349 C 
BRANCH  27  28
ATOM     28  O   UNL     1       2.566  -4.773  -3.867  0.00  0.00    -0.481 OA
BRANCH  28  32
ATOM     29  C   UNL     1       0.624  -4.208  -0.271  0.00  0.00    -0.045 A 
ATOM     30  C   UNL     1       0.104  -5.085  -1.206  0.00  0.00    +0.007 A 
ATOM     31  C   UNL     1       0.753  -5.275  -2.411  0.00  0.00    +0.046 A 
ATOM     32  C   UNL     1       1.926  -4.587  -2.683  0.00  0.00    +0.121 A 
ATOM     33  C   UNL     1       2.445  -3.708  -1.743  0.00  0.00    +0.046 A 
ATOM     34  C   UNL     1       1.790  -3.517  -0.542  0.00  0.00    +0.007 A 
BRANCH  29  36
ATOM     35  C   UNL     1      -1.499  -3.479   0.782  0.00  0.00    +0.012 C 
ATOM     36  C   UNL     1      -0.085  -4.003   1.042  0.00  0.00    +0.013 C 
ATOM     37  C   UNL     1      -0.165  -5.333   1.793  0.00  0.00    +0.012 C 
ENDBRANCH  29  36
ENDBRANCH  28  32
ENDBRANCH  27  28
ENDBRANCH  25  27
ENDBRANCH  24  25
ENDBRANCH   1  24
TORSDOF 9
