REMARK  Name = ZINC13914599
REMARK  10 active torsions:
REMARK  status: ('A' for Active; 'I' for Inactive)
REMARK    1  A    between atoms: C_1  and  C_2
REMARK    2  A    between atoms: C_3  and  C_23
REMARK    3  A    between atoms: C_4  and  C_10
REMARK    4  A    between atoms: C_12  and  O_21
REMARK    5  A    between atoms: C_13  and  O_17
REMARK    6  A    between atoms: O_17  and  C_18
REMARK    7  A    between atoms: C_18  and  C_19
REMARK    8  A    between atoms: O_21  and  C_22
REMARK    9  A    between atoms: C_23  and  O_25
REMARK   10  A    between atoms: O_25  and  C_26
REMARK                            x       y       z     vdW  Elec       q    Type
REMARK                         _______ _______ _______ _____ _____    ______ ____
ROOT
ATOM      1  C   UNL     1      -3.685   4.374   4.021  0.00  0.00    +0.061 C 
ATOM      2  C   UNL     1      -3.760   4.024   2.558  0.00  0.00    +0.019 C 
ATOM      3  C   UNL     1      -2.880   4.579   1.696  0.00  0.00    +0.078 C 
ATOM      4  C   UNL     1      -2.991   4.200   0.233  0.00  0.00    +0.142 C 
ATOM      5  N   UNL     1      -4.057   3.252  -0.131  0.00  0.00    -0.315 N 
ATOM      6  C   UNL     1      -4.859   2.783   0.845  0.00  0.00    +0.135 C 
ATOM      7  S   UNL     1      -6.102   1.679   0.436  0.00  0.00    -0.019 S 
ATOM      8  N   UNL     1      -4.716   3.152   2.124  0.00  0.00    -0.300 N 
ATOM      9  H   UNL     1      -4.179   2.971  -1.052  0.00  0.00    +0.149 HD
ATOM     10  H   UNL     1      -5.326   2.779   2.779  0.00  0.00    +0.154 HD
ENDROOT
BRANCH   4  11
ATOM     11  C   UNL     1      -1.674   3.606  -0.195  0.00  0.00    -0.005 A 
ATOM     12  C   UNL     1      -1.489   2.236  -0.152  0.00  0.00    +0.056 A 
ATOM     13  C   UNL     1      -0.277   1.689  -0.539  0.00  0.00    +0.162 A 
ATOM     14  C   UNL     1       0.749   2.519  -0.981  0.00  0.00    +0.164 A 
ATOM     15  C   UNL     1       0.556   3.890  -1.027  0.00  0.00    +0.065 A 
ATOM     16  C   UNL     1      -0.655   4.431  -0.634  0.00  0.00    +0.027 A 
ATOM     17 BR   UNL     1      -0.917   6.303  -0.698  0.00  0.00    -0.050 Br
BRANCH  13  18
ATOM     18  O   UNL     1      -0.091   0.342  -0.492  0.00  0.00    -0.491 OA
ATOM     19  C   UNL     1      -1.188  -0.448  -0.027  0.00  0.00    +0.277 C 
ENDBRANCH  13  18
BRANCH  14  20
ATOM     20  O   UNL     1       1.939   1.985  -1.367  0.00  0.00    -0.474 OA
BRANCH  20  21
ATOM     21  C   UNL     1       2.946   2.897  -1.809  0.00  0.00    +0.347 C 
BRANCH  21  22
ATOM     22  C   UNL     1       4.157   2.147  -2.183  0.00  0.00    +0.104 C 
ATOM     23  N   UNL     1       5.091   1.569  -2.472  0.00  0.00    -0.193 NA
ENDBRANCH  21  22
ENDBRANCH  20  21
ENDBRANCH  14  20
ENDBRANCH   4  11
BRANCH   3  24
ATOM     24  C   UNL     1      -1.889   5.483   2.144  0.00  0.00    +0.338 C 
ATOM     25  O   UNL     1      -0.753   5.092   2.341  0.00  0.00    -0.245 OA
BRANCH  24  26
ATOM     26  O   UNL     1      -2.202   6.779   2.354  0.00  0.00    -0.465 OA
ATOM     27  C   UNL     1      -1.183   7.610   2.913  0.00  0.00    +0.280 C 
ENDBRANCH  24  26
ENDBRANCH   3  24
TORSDOF 7
