REMARK  Name = ZINC39956365
REMARK  4 active torsions:
REMARK  status: ('A' for Active; 'I' for Inactive)
REMARK    1  A    between atoms: C_5  and  C_7
REMARK    2  A    between atoms: C_7  and  N_8
REMARK    3  A    between atoms: N_8  and  C_9
REMARK    4  A    between atoms: C_14  and  N_15
REMARK                            x       y       z     vdW  Elec       q    Type
REMARK                         _______ _______ _______ _____ _____    ______ ____
ROOT
ATOM      1  N   UNL     1       0.998  -2.721   1.507  0.00  0.00    -0.338 N 
ATOM      2  H   UNL     1       1.113  -2.108   2.250  0.00  0.00    +0.146 HD
ENDROOT
BRANCH   1   3
ATOM      3  C   UNL     1       1.309  -4.074   1.662  0.00  0.00    +0.059 A 
ATOM      4  C   UNL     1       1.032  -4.974   0.641  0.00  0.00    +0.040 A 
ATOM      5  C   UNL     1       1.341  -6.311   0.799  0.00  0.00    +0.020 A 
ATOM      6  C   UNL     1       1.926  -6.754   1.972  0.00  0.00    +0.017 A 
ATOM      7  C   UNL     1       2.202  -5.860   2.990  0.00  0.00    +0.036 A 
ATOM      8  C   UNL     1       1.902  -4.521   2.836  0.00  0.00    +0.147 A 
ATOM      9 BR   UNL     1       0.964  -7.538  -0.590  0.00  0.00    -0.050 Br
BRANCH   8  10
ATOM     10  N   UNL     1       2.205  -3.564   3.924  0.00  0.00    +0.058 N 
ATOM     11  O   UNL     1       2.598  -2.452   3.659  0.00  0.00    -0.126 OA
ATOM     12  O   UNL     1       2.059  -3.895   5.078  0.00  0.00    -0.126 OA
ENDBRANCH   8  10
ENDBRANCH   1   3
BRANCH   1  13
ATOM     13  C   UNL     1       0.499  -2.228   0.221  0.00  0.00    +0.138 C 
BRANCH  13  18
ATOM     14  C   UNL     1      -1.281   1.081   0.598  0.00  0.00    +0.000 A 
ATOM     15  C   UNL     1      -0.230   1.973   0.492  0.00  0.00    +0.001 A 
ATOM     16  C   UNL     1       1.056   1.507   0.300  0.00  0.00    +0.015 A 
ATOM     17  C   UNL     1       1.293   0.147   0.212  0.00  0.00    +0.023 A 
ATOM     18  C   UNL     1       0.242  -0.746   0.317  0.00  0.00    -0.016 A 
ATOM     19  C   UNL     1      -1.045  -0.278   0.510  0.00  0.00    +0.006 A 
ATOM     20 BR   UNL     1       3.053  -0.492  -0.053  0.00  0.00    -0.050 Br
ENDBRANCH  13  18
ENDBRANCH   1  13
TORSDOF 4
