REMARK  Name = ZINC54426220
REMARK  4 active torsions:
REMARK  status: ('A' for Active; 'I' for Inactive)
REMARK    1  A    between atoms: C_1  and  C_2
REMARK    2  A    between atoms: C_2  and  O_3
REMARK    3  A    between atoms: O_3  and  C_4
REMARK    4  A    between atoms: C_8  and  C_10
REMARK                            x       y       z     vdW  Elec       q    Type
REMARK                         _______ _______ _______ _____ _____    ______ ____
ROOT
ATOM      1  C   UNL     1       2.275  -4.298   3.754  0.00  0.00    +0.209 C 
ATOM      2  N   UNL     1       1.571  -5.504   4.226  0.00  0.00    -0.294 N 
ATOM      3  C   UNL     1       1.797  -6.709   3.615  0.00  0.00    +0.160 C 
ATOM      4  N   UNL     1       2.961  -6.990   3.054  0.00  0.00    -0.302 N 
ATOM      5  C   UNL     1       3.917  -6.031   3.042  0.00  0.00    +0.213 A 
ATOM      6  N   UNL     1       3.629  -4.720   3.381  0.00  0.00    -0.286 N 
ATOM      7  C   UNL     1       4.794  -3.994   3.289  0.00  0.00    +0.076 A 
ATOM      8  C   UNL     1       5.129  -2.666   3.517  0.00  0.00    +0.077 A 
ATOM      9  C   UNL     1       6.431  -2.243   3.329  0.00  0.00    +0.164 A 
ATOM     10  C   UNL     1       7.411  -3.138   2.913  0.00  0.00    +0.164 A 
ATOM     11  C   UNL     1       7.096  -4.461   2.680  0.00  0.00    +0.079 A 
ATOM     12  C   UNL     1       5.782  -4.903   2.866  0.00  0.00    +0.095 A 
ATOM     13  N   UNL     1       5.181  -6.123   2.721  0.00  0.00    -0.212 NA
ATOM     14  O   UNL     1       8.693  -2.700   2.736  0.00  0.00    -0.488 OA
ATOM     15  C   UNL     1       8.902  -1.803   1.644  0.00  0.00    +0.232 C 
ATOM     16  C   UNL     1       8.589  -0.373   2.053  0.00  0.00    +0.082 C 
ATOM     17  C   UNL     1       7.121  -0.176   2.396  0.00  0.00    +0.232 C 
ATOM     18  O   UNL     1       6.763  -0.936   3.552  0.00  0.00    -0.488 OA
ATOM     19  N   UNL     1       0.796  -7.642   3.584  0.00  0.00    -0.332 N 
ATOM     20  H   UNL     1       0.949  -5.445   4.968  0.00  0.00    +0.151 HD
ATOM     21  H   UNL     1      -0.061  -7.447   3.992  0.00  0.00    +0.145 HD
ATOM     22  H   UNL     1       0.945  -8.498   3.153  0.00  0.00    +0.145 HD
ATOM     23  H   UNL     1       3.126  -7.861   2.662  0.00  0.00    +0.171 HD
ENDROOT
BRANCH   1  28
ATOM     24  C   UNL     1       0.802  -1.824   1.306  0.00  0.00    +0.121 A 
ATOM     25  C   UNL     1       0.260  -2.673   0.351  0.00  0.00    +0.045 A 
ATOM     26  C   UNL     1       0.372  -4.041   0.501  0.00  0.00    +0.004 A 
ATOM     27  C   UNL     1       1.024  -4.566   1.602  0.00  0.00    +0.007 A 
ATOM     28  C   UNL     1       1.565  -3.723   2.555  0.00  0.00    -0.003 A 
ATOM     29  C   UNL     1       1.460  -2.353   2.406  0.00  0.00    +0.053 A 
BRANCH  24  30
ATOM     30  O   UNL     1       0.693  -0.477   1.160  0.00  0.00    -0.492 OA
BRANCH  30  32
ATOM     31  C   UNL     1      -0.019   1.526   0.010  0.00  0.00    +0.048 C 
ATOM     32  C   UNL     1       0.002  -0.004   0.002  0.00  0.00    +0.225 C 
ENDBRANCH  30  32
ENDBRANCH  24  30
ENDBRANCH   1  28
TORSDOF 3
