REMARK  Name = ZINC14458848
REMARK  9 active torsions:
REMARK  status: ('A' for Active; 'I' for Inactive)
REMARK    1  A    between atoms: C_1  and  O_2
REMARK    2  A    between atoms: O_2  and  C_3
REMARK    3  A    between atoms: C_6  and  N_9
REMARK    4  A    between atoms: N_9  and  S_10
REMARK    5  A    between atoms: S_10  and  C_13
REMARK    6  A    between atoms: C_26  and  C_29
REMARK    7  A    between atoms: C_32  and  O_37
REMARK    8  A    between atoms: C_33  and  O_35
REMARK    9  A    between atoms: O_35  and  C_36
REMARK                            x       y       z     vdW  Elec       q    Type
REMARK                         _______ _______ _______ _____ _____    ______ ____
ROOT
ATOM      1  C   UNL     1      -2.308   2.086   2.833  0.00  0.00    +0.109 A 
ATOM      2  C   UNL     1      -1.675   3.312   2.921  0.00  0.00    +0.030 A 
ATOM      3  C   UNL     1      -0.572   3.581   2.137  0.00  0.00    +0.025 A 
ATOM      4  C   UNL     1      -0.090   2.624   1.252  0.00  0.00    +0.031 A 
ATOM      5  C   UNL     1      -0.744   1.390   1.158  0.00  0.00    -0.018 A 
ATOM      6  C   UNL     1      -1.841   1.129   1.950  0.00  0.00    +0.034 A 
ATOM      7  C   UNL     1      -0.214   0.409   0.187  0.00  0.00    +0.049 C 
ATOM      8  C   UNL     1      -0.400  -1.054   0.367  0.00  0.00    -0.023 C 
ATOM      9  C   UNL     1       0.642  -1.682  -0.165  0.00  0.00    -0.030 C 
ATOM     10  C   UNL     1       1.639  -0.663  -0.722  0.00  0.00    +0.033 C 
ATOM     11  C   UNL     1       1.335   0.569   0.141  0.00  0.00    +0.029 C 
ATOM     12  C   UNL     1       1.583   1.930  -0.484  0.00  0.00    +0.105 C 
ATOM     13  N   UNL     1       1.040   2.914   0.478  0.00  0.00    -0.336 N 
ATOM     14  H   UNL     1       1.475   3.776   0.574  0.00  0.00    +0.147 HD
ENDROOT
BRANCH  12  15
ATOM     15  C   UNL     1       3.061   2.152  -0.678  0.00  0.00    -0.023 A 
ATOM     16  C   UNL     1       3.845   2.548   0.389  0.00  0.00    +0.009 A 
ATOM     17  C   UNL     1       5.201   2.754   0.215  0.00  0.00    +0.049 A 
ATOM     18  C   UNL     1       5.777   2.563  -1.030  0.00  0.00    +0.158 A 
ATOM     19  C   UNL     1       4.988   2.164  -2.104  0.00  0.00    +0.162 A 
ATOM     20  C   UNL     1       3.630   1.955  -1.923  0.00  0.00    +0.054 A 
BRANCH  19  21
ATOM     21  O   UNL     1       5.548   1.975  -3.329  0.00  0.00    -0.491 OA
ATOM     22  C   UNL     1       4.677   1.566  -4.385  0.00  0.00    +0.277 C 
ENDBRANCH  19  21
BRANCH  18  23
ATOM     23  O   UNL     1       7.111   2.764  -1.202  0.00  0.00    -0.503 OA
ATOM     24  H   UNL     1       7.650   1.976  -1.052  0.00  0.00    +0.292 HD
ENDBRANCH  18  23
ENDBRANCH  12  15
BRANCH   1  25
ATOM     25  S   UNL     1      -3.710   1.743   3.843  0.00  0.00    +0.072 S 
ATOM     26  O   UNL     1      -3.862   0.330   3.861  0.00  0.00    -0.150 OA
ATOM     27  O   UNL     1      -3.552   2.507   5.030  0.00  0.00    -0.150 OA
BRANCH  25  28
ATOM     28  N   UNL     1      -5.037   2.352   3.061  0.00  0.00    -0.216 N 
ATOM     29  H   UNL     1      -5.552   3.068   3.466  0.00  0.00    +0.174 HD
BRANCH  28  33
ATOM     30  C   UNL     1      -6.165   0.809  -0.643  0.00  0.00    +0.120 A 
ATOM     31  C   UNL     1      -6.394   0.076   0.512  0.00  0.00    +0.047 A 
ATOM     32  C   UNL     1      -6.021   0.587   1.740  0.00  0.00    +0.028 A 
ATOM     33  C   UNL     1      -5.416   1.834   1.818  0.00  0.00    +0.048 A 
ATOM     34  C   UNL     1      -5.191   2.570   0.661  0.00  0.00    +0.028 A 
ATOM     35  C   UNL     1      -5.560   2.056  -0.566  0.00  0.00    +0.047 A 
BRANCH  30  37
ATOM     36  C   UNL     1      -6.267   1.115  -3.000  0.00  0.00    +0.277 C 
ATOM     37  O   UNL     1      -6.533   0.307  -1.852  0.00  0.00    -0.495 OA
ENDBRANCH  30  37
ENDBRANCH  28  33
ENDBRANCH  25  28
ENDBRANCH   1  25
TORSDOF 7
