REMARK  Name = ZINC43726744
REMARK  13 active torsions:
REMARK  status: ('A' for Active; 'I' for Inactive)
REMARK    1  A    between atoms: C_1  and  C_2
REMARK    2  A    between atoms: C_2  and  C_4
REMARK    3  A    between atoms: C_2  and  C_10
REMARK    4  A    between atoms: C_4  and  C_5
REMARK    5  A    between atoms: C_5  and  C_6
REMARK    6  A    between atoms: C_6  and  C_7
REMARK    7  A    between atoms: C_7  and  C_8
REMARK    8  A    between atoms: C_7  and  C_9
REMARK    9  A    between atoms: C_16  and  C_37
REMARK   10  A    between atoms: C_24  and  O_36
REMARK   11  A    between atoms: C_26  and  O_35
REMARK   12  A    between atoms: C_27  and  C_34
REMARK   13  A    between atoms: C_30  and  O_33
REMARK                            x       y       z     vdW  Elec       q    Type
REMARK                         _______ _______ _______ _____ _____    ______ ____
ROOT
ATOM      1  C   UNL     1       0.744  -1.082   2.225  0.00  0.00    -0.002 C 
ATOM      2  C   UNL     1       0.773  -2.615   2.446  0.00  0.00    +0.004 C 
ATOM      3  C   UNL     1       0.162  -2.867   3.851  0.00  0.00    +0.004 C 
ATOM      4  C   UNL     1       0.395  -1.534   4.570  0.00  0.00    -0.001 C 
ATOM      5  C   UNL     1       0.048  -0.509   3.455  0.00  0.00    -0.026 C 
ATOM      6  C   UNL     1       0.518   0.853   3.926  0.00  0.00    +0.007 C 
ATOM      7  C   UNL     1      -0.308   1.217   5.172  0.00  0.00    +0.005 C 
ATOM      8  C   UNL     1      -0.163   0.162   6.262  0.00  0.00    +0.001 C 
ATOM      9  C   UNL     1      -0.510  -1.253   5.755  0.00  0.00    -0.001 C 
ATOM     10  C   UNL     1      -0.267  -2.276   6.865  0.00  0.00    +0.038 C 
ATOM     11  C   UNL     1      -1.151  -1.941   8.068  0.00  0.00    +0.147 C 
ATOM     12  C   UNL     1      -0.808  -0.542   8.582  0.00  0.00    +0.100 C 
ATOM     13  C   UNL     1      -1.064   0.507   7.449  0.00  0.00    +0.002 C 
ATOM     14  C   UNL     1      -0.714   1.904   7.965  0.00  0.00    +0.012 C 
ATOM     15  C   UNL     1      -1.610   2.249   9.155  0.00  0.00    +0.032 C 
ATOM     16  C   UNL     1      -1.392   1.225  10.271  0.00  0.00    +0.117 C 
ATOM     17  C   UNL     1      -1.692  -0.208   9.785  0.00  0.00    +0.069 C 
ATOM     18  C   UNL     1      -2.527   0.476   7.004  0.00  0.00    +0.014 C 
ATOM     19  C   UNL     1      -1.465  -0.485   3.229  0.00  0.00    +0.012 C 
ENDROOT
BRANCH   1  21
ATOM     20  C   UNL     1      -0.039   0.772   0.745  0.00  0.00    +0.008 C 
ATOM     21  C   UNL     1      -0.048  -0.743   0.961  0.00  0.00    -0.010 C 
BRANCH  21  22
ATOM     22  C   UNL     1       0.593  -1.434  -0.243  0.00  0.00    +0.003 C 
BRANCH  22  23
ATOM     23  C   UNL     1      -0.269  -1.198  -1.486  0.00  0.00    +0.001 C 
BRANCH  23  24
ATOM     24  C   UNL     1       0.372  -1.889  -2.690  0.00  0.00    +0.003 C 
BRANCH  24  25
ATOM     25  C   UNL     1      -0.489  -1.653  -3.932  0.00  0.00    -0.017 C 
ATOM     26  C   UNL     1      -0.491  -0.162  -4.275  0.00  0.00    +0.007 C 
ATOM     27  C   UNL     1       0.083  -2.446  -5.109  0.00  0.00    +0.007 C 
ENDBRANCH  24  25
ENDBRANCH  23  24
ENDBRANCH  22  23
ENDBRANCH  21  22
ENDBRANCH   1  21
BRANCH  16  28
ATOM     28  O   UNL     1      -0.023   1.251  10.681  0.00  0.00    -0.392 OA
ATOM     29  H   UNL     1       0.270   2.108  11.019  0.00  0.00    +0.210 HD
ENDBRANCH  16  28
BRANCH  12  30
ATOM     30  O   UNL     1       0.565  -0.504   8.977  0.00  0.00    -0.385 OA
ATOM     31  H   UNL     1       0.790  -1.129   9.679  0.00  0.00    +0.210 HD
ENDBRANCH  12  30
BRANCH  11  32
ATOM     32  O   UNL     1      -2.525  -1.980   7.675  0.00  0.00    -0.389 OA
ATOM     33  H   UNL     1      -2.813  -2.839   7.338  0.00  0.00    +0.210 HD
ENDBRANCH  11  32
TORSDOF 8
