REMARK  Name = ZINC08789967
REMARK  8 active torsions:
REMARK  status: ('A' for Active; 'I' for Inactive)
REMARK    1  A    between atoms: C_1  and  C_2
REMARK    2  A    between atoms: C_2  and  O_4
REMARK    3  A    between atoms: O_4  and  C_5
REMARK    4  A    between atoms: C_8  and  N_11
REMARK    5  A    between atoms: C_16  and  C_32
REMARK    6  A    between atoms: C_32  and  C_33
REMARK    7  A    between atoms: C_36  and  O_40
REMARK    8  A    between atoms: C_37  and  O_39
REMARK                            x       y       z     vdW  Elec       q    Type
REMARK                         _______ _______ _______ _____ _____    ______ ____
ROOT
ATOM      1  N   UNL     1      -2.866   1.488  -0.443  0.00  0.00    -0.210 N 
ATOM      2  C   UNL     1      -2.971   0.268   0.098  0.00  0.00    +0.228 C 
ATOM      3  O   UNL     1      -2.093  -0.307   0.704  0.00  0.00    -0.275 OA
ATOM      4  C   UNL     1      -4.355  -0.280  -0.165  0.00  0.00    +0.074 C 
ATOM      5  C   UNL     1      -4.255  -1.468  -1.145  0.00  0.00    -0.053 C 
ATOM      6  C   UNL     1      -5.276   0.241  -2.366  0.00  0.00    +0.050 C 
ATOM      7  C   UNL     1      -5.041   0.852  -0.979  0.00  0.00    +0.088 C 
ATOM      8  C   UNL     1      -3.970   1.917  -1.064  0.00  0.00    +0.229 C 
ATOM      9  O   UNL     1      -4.093   2.992  -1.611  0.00  0.00    -0.275 OA
ATOM     10  C   UNL     1      -5.111   1.264  -3.454  0.00  0.00    -0.028 A 
ATOM     11  C   UNL     1      -4.067   2.072  -3.846  0.00  0.00    +0.004 A 
ATOM     12  C   UNL     1      -4.222   2.935  -4.916  0.00  0.00    +0.000 A 
ATOM     13  C   UNL     1      -5.429   2.986  -5.590  0.00  0.00    +0.002 A 
ATOM     14  C   UNL     1      -6.478   2.179  -5.200  0.00  0.00    +0.023 A 
ATOM     15  C   UNL     1      -6.330   1.306  -4.125  0.00  0.00    +0.036 A 
ATOM     16  N   UNL     1      -7.228   0.405  -3.550  0.00  0.00    -0.286 N 
ATOM     17  C   UNL     1      -6.686  -0.262  -2.513  0.00  0.00    +0.211 C 
ATOM     18  O   UNL     1      -7.229  -1.103  -1.829  0.00  0.00    -0.277 OA
ATOM     19  H   UNL     1      -8.137   0.273  -3.863  0.00  0.00    +0.155 HD
ATOM     20  N   UNL     1      -4.316  -0.843  -2.468  0.00  0.00    +0.394 N 
ATOM     21  H   UNL     1      -4.625  -1.527  -3.169  0.00  0.00    -0.083 HD
ATOM     22  H   UNL     1      -3.393  -0.478  -2.730  0.00  0.00    -0.083 HD
ENDROOT
BRANCH   1  26
ATOM     23  C   UNL     1       0.619   3.768  -0.194  0.00  0.00    +0.132 A 
ATOM     24  C   UNL     1      -0.532   4.186   0.459  0.00  0.00    +0.048 A 
ATOM     25  C   UNL     1      -1.686   3.433   0.374  0.00  0.00    +0.027 A 
ATOM     26  C   UNL     1      -1.694   2.256  -0.361  0.00  0.00    +0.044 A 
ATOM     27  C   UNL     1      -0.544   1.840  -1.018  0.00  0.00    +0.027 A 
ATOM     28  C   UNL     1       0.610   2.593  -0.932  0.00  0.00    +0.048 A 
BRANCH  23  29
ATOM     29  O   UNL     1       1.755   4.509  -0.109  0.00  0.00    -0.426 OA
BRANCH  29  31
ATOM     30  C   UNL     1       3.562   5.447   1.288  0.00  0.00    +0.136 C 
ATOM     31  C   UNL     1       2.373   4.545   1.082  0.00  0.00    +0.309 C 
ATOM     32  O   UNL     1       1.975   3.853   1.990  0.00  0.00    -0.251 OA
ENDBRANCH  29  31
ENDBRANCH  23  29
ENDBRANCH   1  26
BRANCH   5  33
ATOM     33  C   UNL     1      -5.442  -2.416  -0.954  0.00  0.00    +0.020 C 
BRANCH  33  34
ATOM     34  C   UNL     1      -5.071  -3.493   0.032  0.00  0.00    -0.045 A 
ATOM     35  C   UNL     1      -4.504  -4.672  -0.415  0.00  0.00    +0.007 A 
ATOM     36  C   UNL     1      -4.158  -5.662   0.486  0.00  0.00    +0.049 A 
ATOM     37  C   UNL     1      -4.387  -5.477   1.840  0.00  0.00    +0.158 A 
ATOM     38  C   UNL     1      -4.962  -4.293   2.290  0.00  0.00    +0.158 A 
ATOM     39  C   UNL     1      -5.302  -3.303   1.382  0.00  0.00    +0.052 A 
BRANCH  38  40
ATOM     40  O   UNL     1      -5.190  -4.107   3.618  0.00  0.00    -0.503 OA
ATOM     41  H   UNL     1      -6.059  -4.410   3.914  0.00  0.00    +0.292 HD
ENDBRANCH  38  40
BRANCH  37  42
ATOM     42  O   UNL     1      -4.051  -6.452   2.727  0.00  0.00    -0.503 OA
ATOM     43  H   UNL     1      -4.758  -7.090   2.896  0.00  0.00    +0.292 HD
ENDBRANCH  37  42
ENDBRANCH  33  34
ENDBRANCH   5  33
TORSDOF 7
