REMARK  Name = ZINC29040901
REMARK  10 active torsions:
REMARK  status: ('A' for Active; 'I' for Inactive)
REMARK    1  A    between atoms: C_1  and  C_2
REMARK    2  A    between atoms: C_7  and  C_38
REMARK    3  A    between atoms: C_8  and  C_9
REMARK    4  A    between atoms: C_14  and  C_17
REMARK    5  A    between atoms: C_14  and  N_18
REMARK    6  A    between atoms: C_21  and  N_24
REMARK    7  A    between atoms: N_24  and  C_25
REMARK    8  A    between atoms: N_24  and  C_32
REMARK    9  A    between atoms: C_25  and  C_26
REMARK   10  A    between atoms: C_29  and  C_31
REMARK                            x       y       z     vdW  Elec       q    Type
REMARK                         _______ _______ _______ _____ _____    ______ ____
ROOT
ATOM      1  N   UNL     1      -2.178  -2.469  -4.274  0.00  0.00    +0.383 N 
ATOM      2  C   UNL     1      -2.152  -3.936  -4.352  0.00  0.00    -0.076 C 
ATOM      3  C   UNL     1      -3.391  -4.429  -5.103  0.00  0.00    +0.004 C 
ATOM      4  C   UNL     1      -3.403  -3.824  -6.510  0.00  0.00    +0.070 C 
ATOM      5  C   UNL     1      -3.381  -2.297  -6.401  0.00  0.00    +0.004 C 
ATOM      6  C   UNL     1      -2.142  -1.865  -5.612  0.00  0.00    -0.076 C 
ATOM      7  H   UNL     1      -3.125  -2.175  -3.798  0.00  0.00    -0.081 HD
ENDROOT
BRANCH   1  13
ATOM      8  C   UNL     1      -0.000   0.019  -0.010  0.00  0.00    +0.249 C 
ATOM      9  O   UNL     1       0.021  -0.593   1.040  0.00  0.00    -0.270 OA
ATOM     10  N   UNL     1      -0.002  -0.650  -1.180  0.00  0.00    -0.298 N 
ATOM     11  C   UNL     1      -0.034   0.075  -2.457  0.00  0.00    +0.107 C 
ATOM     12  C   UNL     1      -1.197  -0.449  -3.298  0.00  0.00    +0.007 C 
ATOM     13  C   UNL     1      -1.077  -1.968  -3.440  0.00  0.00    -0.066 C 
ATOM     14  C   UNL     1      -1.147  -2.618  -2.057  0.00  0.00    +0.007 C 
ATOM     15  C   UNL     1       0.022  -2.119  -1.202  0.00  0.00    +0.107 C 
ATOM     16  C   UNL     1       0.260  -2.314  -4.099  0.00  0.00    -0.010 C 
BRANCH   8  24
ATOM     17  C   UNL     1       2.504   1.529  -0.031  0.00  0.00    +0.044 C 
ATOM     18  C   UNL     1       1.169   2.228  -0.014  0.00  0.00    -0.035 A 
ATOM     19  C   UNL     1       1.093   3.610  -0.009  0.00  0.00    +0.025 A 
ATOM     20  C   UNL     1      -0.149   4.220   0.007  0.00  0.00    +0.134 A 
ATOM     21  N   UNL     1      -1.259   3.505   0.016  0.00  0.00    -0.143 N 
ATOM     22  O   UNL     1      -2.507   4.172   0.031  0.00  0.00    -0.164 OA
ATOM     23  C   UNL     1      -1.238   2.187   0.006  0.00  0.00    +0.071 A 
ATOM     24  C   UNL     1      -0.024   1.497  -0.004  0.00  0.00    +0.062 A 
ATOM     25  C   UNL     1      -2.534   1.418   0.011  0.00  0.00    +0.068 C 
ENDBRANCH   8  24
ENDBRANCH   1  13
BRANCH   4  26
ATOM     26  N   UNL     1      -4.617  -4.247  -7.214  0.00  0.00    -0.321 N 
BRANCH  26  27
ATOM     27  C   UNL     1      -4.520  -4.875  -8.458  0.00  0.00    +0.030 A 
ATOM     28  C   UNL     1      -5.670  -5.183  -9.173  0.00  0.00    +0.023 A 
ATOM     29  C   UNL     1      -5.570  -5.800 -10.405  0.00  0.00    +0.002 A 
ATOM     30  C   UNL     1      -4.328  -6.120 -10.921  0.00  0.00    +0.000 A 
ATOM     31  C   UNL     1      -3.181  -5.819 -10.209  0.00  0.00    +0.002 A 
ATOM     32  C   UNL     1      -3.273  -5.197  -8.979  0.00  0.00    +0.023 A 
ENDBRANCH  26  27
BRANCH  26  33
ATOM     33  C   UNL     1      -5.932  -4.011  -6.613  0.00  0.00    +0.161 C 
BRANCH  33  34
ATOM     34  C   UNL     1      -6.450  -2.665  -7.051  0.00  0.00    +0.066 A 
ATOM     35  C   UNL     1      -7.282  -2.553  -8.118  0.00  0.00    +0.071 A 
ATOM     36  S   UNL     1      -7.543  -0.786  -8.147  0.00  0.00    -0.080 S 
ATOM     37  C   UNL     1      -6.550  -0.389  -6.779  0.00  0.00    +0.076 A 
ATOM     38  N   UNL     1      -6.110  -1.569  -6.405  0.00  0.00    -0.248 NA
ATOM     39  C   UNL     1      -6.268   0.962  -6.173  0.00  0.00    +0.073 C 
ENDBRANCH  33  34
ENDBRANCH  26  33
ENDBRANCH   4  26
TORSDOF 6
