REMARK  Name = ZINC52069085
REMARK  6 active torsions:
REMARK  status: ('A' for Active; 'I' for Inactive)
REMARK    1  A    between atoms: C_1  and  C_2
REMARK    2  A    between atoms: C_5  and  N_9
REMARK    3  A    between atoms: N_12  and  C_13
REMARK    4  A    between atoms: C_13  and  C_14
REMARK    5  A    between atoms: C_13  and  C_15
REMARK    6  A    between atoms: C_13  and  C_16
REMARK                            x       y       z     vdW  Elec       q    Type
REMARK                         _______ _______ _______ _____ _____    ______ ____
ROOT
ATOM      1  N   UNL     1       0.018  -4.040   0.012  0.00  0.00    -0.213 NA
ATOM      2  C   UNL     1       1.149  -4.708   0.013  0.00  0.00    +0.196 C 
ATOM      3  N   UNL     1       2.340  -4.040   0.148  0.00  0.00    -0.370 N 
ATOM      4  N   UNL     1       1.139  -6.074  -0.122  0.00  0.00    -0.351 N 
ATOM      5  H   UNL     1       2.359  -3.070   0.115  0.00  0.00    +0.159 HD
ATOM      6  H   UNL     1       0.300  -6.543  -0.249  0.00  0.00    +0.163 HD
ATOM      7  H   UNL     1       3.163  -4.537   0.278  0.00  0.00    +0.159 HD
ENDROOT
BRANCH   1  12
ATOM      8  C   UNL     1       0.054   1.580   0.566  0.00  0.00    +0.044 C 
ATOM      9  C   UNL     1       0.045   0.080   0.418  0.00  0.00    -0.048 A 
ATOM     10  C   UNL     1       0.111  -0.488  -0.842  0.00  0.00    +0.020 A 
ATOM     11  C   UNL     1       0.103  -1.861  -0.985  0.00  0.00    +0.045 A 
ATOM     12  C   UNL     1       0.027  -2.677   0.146  0.00  0.00    +0.095 A 
ATOM     13  C   UNL     1      -0.039  -2.096   1.415  0.00  0.00    +0.045 A 
ATOM     14  C   UNL     1      -0.024  -0.722   1.543  0.00  0.00    +0.020 A 
ATOM     15 BR   UNL     1      -0.142  -3.191   2.954  0.00  0.00    -0.048 Br
ATOM     16 BR   UNL     1       0.192  -2.635  -2.707  0.00  0.00    -0.048 Br
ENDBRANCH   1  12
BRANCH   4  17
ATOM     17  C   UNL     1       2.397  -6.823  -0.074  0.00  0.00    +0.033 C 
ATOM     18  C   UNL     1       3.064  -6.613   1.287  0.00  0.00    +0.033 C 
ATOM     19  C   UNL     1       2.111  -8.312  -0.278  0.00  0.00    +0.033 C 
ATOM     20  C   UNL     1       3.329  -6.326  -1.181  0.00  0.00    +0.033 C 
ENDBRANCH   4  17
TORSDOF 2
