REMARK  Name = ZINC14473777
REMARK  4 active torsions:
REMARK  status: ('A' for Active; 'I' for Inactive)
REMARK    1  A    between atoms: C_4  and  N_7
REMARK    2  A    between atoms: N_7  and  C_8
REMARK    3  A    between atoms: C_21  and  C_24
REMARK    4  A    between atoms: C_29  and  O_30
REMARK                            x       y       z     vdW  Elec       q    Type
REMARK                         _______ _______ _______ _____ _____    ______ ____
ROOT
ATOM      1  C   UNL     1       2.624  -2.776  -2.274  0.00  0.00    +0.032 A 
ATOM      2  C   UNL     1       1.988  -3.825  -1.623  0.00  0.00    +0.025 A 
ATOM      3  C   UNL     1       0.669  -3.701  -1.237  0.00  0.00    +0.025 A 
ATOM      4  C   UNL     1      -0.033  -2.530  -1.496  0.00  0.00    +0.031 A 
ATOM      5  C   UNL     1       0.607  -1.482  -2.166  0.00  0.00    -0.018 A 
ATOM      6  C   UNL     1       1.927  -1.606  -2.543  0.00  0.00    +0.029 A 
ATOM      7  C   UNL     1      -0.193  -0.275  -2.465  0.00  0.00    +0.049 C 
ATOM      8  C   UNL     1       0.433   1.061  -2.640  0.00  0.00    -0.023 C 
ATOM      9  C   UNL     1      -0.426   1.988  -2.236  0.00  0.00    -0.030 C 
ATOM     10  C   UNL     1      -1.705   1.327  -1.718  0.00  0.00    +0.033 C 
ATOM     11  C   UNL     1      -1.186  -0.052  -1.286  0.00  0.00    +0.029 C 
ATOM     12  C   UNL     1      -2.165  -1.211  -1.357  0.00  0.00    +0.108 C 
ATOM     13  N   UNL     1      -1.368  -2.424  -1.076  0.00  0.00    -0.336 N 
ATOM     14  H   UNL     1      -1.775  -3.160  -0.593  0.00  0.00    +0.147 HD
ENDROOT
BRANCH  12  15
ATOM     15  C   UNL     1      -3.244  -1.045  -0.318  0.00  0.00    +0.014 A 
ATOM     16  C   UNL     1      -3.088  -1.605   0.936  0.00  0.00    +0.009 A 
ATOM     17  C   UNL     1      -4.075  -1.449   1.891  0.00  0.00    +0.001 A 
ATOM     18  C   UNL     1      -5.225  -0.742   1.591  0.00  0.00    +0.004 A 
ATOM     19  C   UNL     1      -5.388  -0.185   0.338  0.00  0.00    +0.046 A 
ATOM     20  C   UNL     1      -4.396  -0.335  -0.621  0.00  0.00    +0.122 A 
BRANCH  20  21
ATOM     21  O   UNL     1      -4.554   0.211  -1.855  0.00  0.00    -0.506 OA
ATOM     22  H   UNL     1      -4.984  -0.374  -2.493  0.00  0.00    +0.292 HD
ENDBRANCH  20  21
ENDBRANCH  12  15
BRANCH   1  23
ATOM     23  N   UNL     1       3.964  -2.899  -2.659  0.00  0.00    -0.314 N 
ATOM     24  H   UNL     1       4.292  -2.418  -3.435  0.00  0.00    +0.152 HD
BRANCH  23  28
ATOM     25  C   UNL     1       6.545  -5.328  -0.473  0.00  0.00    +0.000 A 
ATOM     26  C   UNL     1       6.737  -5.165  -1.833  0.00  0.00    +0.002 A 
ATOM     27  C   UNL     1       5.883  -4.361  -2.561  0.00  0.00    +0.023 A 
ATOM     28  C   UNL     1       4.830  -3.714  -1.926  0.00  0.00    +0.031 A 
ATOM     29  C   UNL     1       4.643  -3.875  -0.559  0.00  0.00    +0.023 A 
ATOM     30  C   UNL     1       5.498  -4.686   0.162  0.00  0.00    +0.002 A 
ENDBRANCH  23  28
ENDBRANCH   1  23
TORSDOF 4
