REMARK  Name = ZINC38805108
REMARK  15 active torsions:
REMARK  status: ('A' for Active; 'I' for Inactive)
REMARK    1  A    between atoms: C_1  and  C_2
REMARK    2  A    between atoms: C_2  and  O_3
REMARK    3  A    between atoms: O_3  and  C_4
REMARK    4  A    between atoms: C_12  and  N_18
REMARK    5  A    between atoms: C_13  and  C_14
REMARK    6  A    between atoms: C_14  and  O_16
REMARK    7  A    between atoms: O_16  and  C_17
REMARK    8  A    between atoms: C_19  and  C_21
REMARK    9  A    between atoms: C_22  and  C_23
REMARK   10  A    between atoms: C_25  and  O_33
REMARK   11  A    between atoms: C_26  and  O_31
REMARK   12  A    between atoms: C_27  and  O_29
REMARK   13  A    between atoms: O_29  and  C_30
REMARK   14  A    between atoms: O_31  and  C_32
REMARK   15  A    between atoms: O_33  and  C_34
REMARK                            x       y       z     vdW  Elec       q    Type
REMARK                         _______ _______ _______ _____ _____    ______ ____
ROOT
ATOM      1  C   UNL     1      -1.497  -1.836   0.006  0.00  0.00    +0.403 C 
ATOM      2  O   UNL     1      -0.523  -2.563  -0.007  0.00  0.00    -0.226 OA
ATOM      3  N   UNL     1      -2.735  -2.368   0.015  0.00  0.00    -0.262 N 
ATOM      4  C   UNL     1      -2.939  -3.824   0.016  0.00  0.00    +0.116 C 
ATOM      5  C   UNL     1      -3.618  -4.247   1.320  0.00  0.00    +0.056 C 
ATOM      6  C   UNL     1      -4.800  -3.326   1.588  0.00  0.00    -0.018 A 
ATOM      7  C   UNL     1      -4.904  -2.117   0.997  0.00  0.00    +0.013 A 
ATOM      8  S   UNL     1      -6.413  -1.438   1.617  0.00  0.00    -0.076 S 
ATOM      9  C   UNL     1      -6.902  -2.694   2.618  0.00  0.00    +0.087 A 
ATOM     10  C   UNL     1      -5.902  -3.645   2.481  0.00  0.00    +0.091 A 
ATOM     11  C   UNL     1      -3.936  -1.509   0.032  0.00  0.00    +0.153 C 
ENDROOT
BRANCH   9  12
ATOM     12  N   UNL     1      -8.042  -2.764   3.402  0.00  0.00    -0.276 N 
ATOM     13  C   UNL     1      -8.914  -1.737   3.415  0.00  0.00    +0.241 C 
ATOM     14  O   UNL     1      -8.701  -0.748   2.738  0.00  0.00    -0.270 OA
ATOM     15  H   UNL     1      -8.212  -3.552   3.941  0.00  0.00    +0.156 HD
BRANCH  13  16
ATOM     16  C   UNL     1     -10.117  -1.810   4.242  0.00  0.00    +0.068 C 
ATOM     17  C   UNL     1     -10.992  -0.782   4.255  0.00  0.00    +0.013 C 
BRANCH  17  18
ATOM     18  C   UNL     1     -12.201  -0.856   5.087  0.00  0.00    -0.018 A 
ATOM     19  C   UNL     1     -12.446  -1.990   5.870  0.00  0.00    +0.057 A 
ATOM     20  C   UNL     1     -13.584  -2.056   6.651  0.00  0.00    +0.166 A 
ATOM     21  C   UNL     1     -14.488  -0.996   6.659  0.00  0.00    +0.204 A 
ATOM     22  C   UNL     1     -14.248   0.133   5.880  0.00  0.00    +0.166 A 
ATOM     23  C   UNL     1     -13.109   0.210   5.102  0.00  0.00    +0.057 A 
BRANCH  22  24
ATOM     24  O   UNL     1     -15.134   1.165   5.890  0.00  0.00    -0.491 OA
ATOM     25  C   UNL     1     -14.826   2.293   5.068  0.00  0.00    +0.277 C 
ENDBRANCH  22  24
BRANCH  21  26
ATOM     26  O   UNL     1     -15.607  -1.065   7.427  0.00  0.00    -0.488 OA
ATOM     27  C   UNL     1     -15.508  -0.566   8.762  0.00  0.00    +0.277 C 
ENDBRANCH  21  26
BRANCH  20  28
ATOM     28  O   UNL     1     -13.822  -3.157   7.412  0.00  0.00    -0.491 OA
ATOM     29  C   UNL     1     -12.854  -4.207   7.356  0.00  0.00    +0.277 C 
ENDBRANCH  20  28
ENDBRANCH  17  18
ENDBRANCH  13  16
ENDBRANCH   9  12
BRANCH  10  30
ATOM     30  C   UNL     1      -5.954  -4.917   3.204  0.00  0.00    +0.342 C 
ATOM     31  O   UNL     1      -5.451  -5.010   4.308  0.00  0.00    -0.245 OA
BRANCH  30  32
ATOM     32  O   UNL     1      -6.560  -5.985   2.647  0.00  0.00    -0.464 OA
ATOM     33  C   UNL     1      -6.574  -7.194   3.409  0.00  0.00    +0.280 C 
ENDBRANCH  30  32
ENDBRANCH  10  30
BRANCH   1  34
ATOM     34  O   UNL     1      -1.339  -0.499   0.012  0.00  0.00    -0.451 OA
BRANCH  34  36
ATOM     35  C   UNL     1      -0.019   1.526   0.010  0.00  0.00    +0.048 C 
ATOM     36  C   UNL     1       0.002  -0.004   0.002  0.00  0.00    +0.230 C 
ENDBRANCH  34  36
ENDBRANCH   1  34
TORSDOF 10
