REMARK  Name = ZINC63622975
REMARK  9 active torsions:
REMARK  status: ('A' for Active; 'I' for Inactive)
REMARK    1  A    between atoms: C_7  and  C_10
REMARK    2  A    between atoms: C_10  and  C_11
REMARK    3  A    between atoms: C_11  and  C_13
REMARK    4  A    between atoms: C_11  and  N_26
REMARK    5  A    between atoms: C_13  and  O_15
REMARK    6  A    between atoms: O_15  and  C_16
REMARK    7  A    between atoms: C_16  and  C_17
REMARK    8  A    between atoms: C_17  and  C_19
REMARK    9  A    between atoms: C_27  and  C_29
REMARK                            x       y       z     vdW  Elec       q    Type
REMARK                         _______ _______ _______ _____ _____    ______ ____
ROOT
ATOM      1  C   UNL     1       0.576  -3.621  -1.486  0.00  0.00    +0.186 C 
ENDROOT
BRANCH   1   2
ATOM      2  N   UNL     1       1.860  -4.164  -1.937  0.00  0.00    -0.298 N 
ATOM      3  C   UNL     1       2.854  -3.329  -2.298  0.00  0.00    +0.245 C 
ATOM      4  O   UNL     1       2.686  -2.127  -2.251  0.00  0.00    -0.270 OA
ATOM      5  H   UNL     1       1.994  -5.124  -1.974  0.00  0.00    +0.150 HD
BRANCH   3   6
ATOM      6  C   UNL     1       4.150  -3.877  -2.752  0.00  0.00    +0.037 A 
ATOM      7  C   UNL     1       4.344  -5.258  -2.813  0.00  0.00    +0.014 A 
ATOM      8  C   UNL     1       5.554  -5.763  -3.239  0.00  0.00    +0.021 A 
ATOM      9  C   UNL     1       6.577  -4.904  -3.604  0.00  0.00    +0.041 A 
ATOM     10  C   UNL     1       6.390  -3.532  -3.546  0.00  0.00    +0.021 A 
ATOM     11  C   UNL     1       5.182  -3.015  -3.128  0.00  0.00    +0.014 A 
ATOM     12 CL   UNL     1       8.099  -5.547  -4.137  0.00  0.00    -0.084 Cl
ENDBRANCH   3   6
ENDBRANCH   1   2
BRANCH   1  13
ATOM     13  C   UNL     1      -0.522  -4.607  -1.792  0.00  0.00    +0.328 C 
ATOM     14  O   UNL     1      -0.259  -5.656  -2.331  0.00  0.00    -0.249 OA
BRANCH  13  15
ATOM     15  O   UNL     1      -1.792  -4.321  -1.466  0.00  0.00    -0.455 OA
BRANCH  15  16
ATOM     16  C   UNL     1      -2.781  -5.302  -1.785  0.00  0.00    +0.311 C 
BRANCH  16  17
ATOM     17  C   UNL     1      -4.136  -4.809  -1.348  0.00  0.00    +0.200 C 
ATOM     18  O   UNL     1      -4.245  -3.725  -0.816  0.00  0.00    -0.288 OA
BRANCH  17  19
ATOM     19  C   UNL     1      -5.328  -5.643  -1.567  0.00  0.00    +0.021 A 
ATOM     20  C   UNL     1      -5.206  -6.897  -2.176  0.00  0.00    +0.013 A 
ATOM     21  C   UNL     1      -6.327  -7.673  -2.377  0.00  0.00    +0.021 A 
ATOM     22  C   UNL     1      -7.572  -7.215  -1.979  0.00  0.00    +0.041 A 
ATOM     23  C   UNL     1      -7.700  -5.974  -1.376  0.00  0.00    +0.021 A 
ATOM     24  C   UNL     1      -6.588  -5.189  -1.163  0.00  0.00    +0.013 A 
ATOM     25 CL   UNL     1      -8.978  -8.199  -2.239  0.00  0.00    -0.084 Cl
ENDBRANCH  17  19
ENDBRANCH  16  17
ENDBRANCH  15  16
ENDBRANCH  13  15
ENDBRANCH   1  13
BRANCH   1  26
ATOM     26  C   UNL     1       0.629  -3.369   0.022  0.00  0.00    +0.067 C 
BRANCH  26  33
ATOM     27  C   UNL     1       4.574  -5.189   1.499  0.00  0.00    +0.001 A 
ATOM     28  C   UNL     1       4.419  -6.433   2.125  0.00  0.00    +0.002 A 
ATOM     29  C   UNL     1       3.218  -7.030   2.274  0.00  0.00    +0.026 A 
ATOM     30  C   UNL     1       2.038  -6.402   1.789  0.00  0.00    +0.043 A 
ATOM     31  N   UNL     1       0.780  -6.771   1.811  0.00  0.00    -0.380 N 
ATOM     32  C   UNL     1      -0.024  -5.730   1.161  0.00  0.00    +0.144 C 
ATOM     33  C   UNL     1       0.952  -4.656   0.735  0.00  0.00    -0.039 C 
ATOM     34  C   UNL     1       2.175  -5.086   1.123  0.00  0.00    -0.001 A 
ATOM     35  C   UNL     1       3.517  -4.506   1.003  0.00  0.00    +0.010 A 
ATOM     36  H   UNL     1       0.439  -7.594   2.192  0.00  0.00    +0.160 HD
ENDBRANCH  26  33
ENDBRANCH   1  26
TORSDOF 9
