REMARK  Name = ZINC20968903
REMARK  11 active torsions:
REMARK  status: ('A' for Active; 'I' for Inactive)
REMARK    1  A    between atoms: C_1  and  C_2
REMARK    2  A    between atoms: C_2  and  C_3
REMARK    3  A    between atoms: C_2  and  C_4
REMARK    4  A    between atoms: C_4  and  N_5
REMARK    5  A    between atoms: C_6  and  N_27
REMARK    6  A    between atoms: C_7  and  N_14
REMARK    7  A    between atoms: N_14  and  C_15
REMARK    8  A    between atoms: C_15  and  C_16
REMARK    9  A    between atoms: C_16  and  C_17
REMARK   10  A    between atoms: C_16  and  C_18
REMARK   11  A    between atoms: C_19  and  C_21
REMARK                            x       y       z     vdW  Elec       q    Type
REMARK                         _______ _______ _______ _____ _____    ______ ____
ROOT
ATOM      1  N   UNL     1       4.093   8.057   0.583  0.00  0.00    -0.280 N 
ATOM      2  C   UNL     1       3.353   6.920   0.354  0.00  0.00    +0.127 A 
ATOM      3  C   UNL     1       1.978   7.013   0.292  0.00  0.00    +0.140 A 
ATOM      4  C   UNL     1       1.373   8.270   0.475  0.00  0.00    +0.277 A 
ATOM      5  O   UNL     1       0.159   8.379   0.430  0.00  0.00    -0.266 OA
ATOM      6  N   UNL     1       2.143   9.352   0.702  0.00  0.00    -0.273 N 
ATOM      7  H   UNL     1       1.678  10.338   0.846  0.00  0.00    +0.173 HD
ATOM      8  C   UNL     1       3.483   9.243   0.754  0.00  0.00    +0.331 A 
ATOM      9  O   UNL     1       4.154  10.236   0.960  0.00  0.00    -0.246 OA
ENDROOT
BRANCH   3  10
ATOM     10  N   UNL     1       1.192   5.866   0.054  0.00  0.00    -0.257 N 
ATOM     11  C   UNL     1       1.184   5.295  -1.167  0.00  0.00    +0.286 C 
ATOM     12  O   UNL     1       0.438   4.361  -1.398  0.00  0.00    -0.266 OA
BRANCH  11  13
ATOM     13  C   UNL     1       2.073   5.800  -2.217  0.00  0.00    +0.191 A 
ATOM     14  C   UNL     1       2.229   5.263  -3.463  0.00  0.00    +0.056 A 
ATOM     15  C   UNL     1       3.170   6.059  -4.132  0.00  0.00    +0.058 A 
ATOM     16  C   UNL     1       3.549   7.034  -3.273  0.00  0.00    +0.171 A 
ATOM     17  O   UNL     1       2.880   6.877  -2.123  0.00  0.00    -0.444 OA
ATOM     18 BR   UNL     1       4.809   8.395  -3.638  0.00  0.00    -0.008 Br
ENDBRANCH  11  13
BRANCH  10  19
ATOM     19  C   UNL     1       0.384   5.294   1.135  0.00  0.00    +0.117 C 
BRANCH  19  20
ATOM     20  C   UNL     1       1.247   4.346   1.970  0.00  0.00    +0.001 C 
ATOM     21  C   UNL     1       0.451   3.869   3.185  0.00  0.00    +0.009 C 
ATOM     22  C   UNL     1       1.651   3.140   1.119  0.00  0.00    +0.009 C 
ENDBRANCH  19  20
ENDBRANCH  10  19
ENDBRANCH   3  10
BRANCH   2  23
ATOM     23  N   UNL     1       3.977   5.707   0.184  0.00  0.00    -0.343 N 
ATOM     24  H   UNL     1       3.380   4.802   0.001  0.00  0.00    +0.144 HD
ATOM     25  H   UNL     1       5.074   5.641   0.231  0.00  0.00    +0.144 HD
ENDBRANCH   2  23
BRANCH   1  26
ATOM     26  C   UNL     1       5.555   7.974   0.646  0.00  0.00    +0.131 C 
BRANCH  26  28
ATOM     27  C   UNL     1       5.486   6.323   2.520  0.00  0.00    +0.009 C 
ATOM     28  C   UNL     1       5.988   7.702   2.088  0.00  0.00    +0.003 C 
ATOM     29  C   UNL     1       7.515   7.739   2.177  0.00  0.00    +0.009 C 
ENDBRANCH  26  28
ENDBRANCH   1  26
TORSDOF 7
