REMARK  Name = ZINC39638554
REMARK  8 active torsions:
REMARK  status: ('A' for Active; 'I' for Inactive)
REMARK    1  A    between atoms: C_1  and  C_2
REMARK    2  A    between atoms: C_2  and  O_3
REMARK    3  A    between atoms: O_3  and  C_4
REMARK    4  A    between atoms: C_9  and  C_10
REMARK    5  A    between atoms: C_10  and  N_11
REMARK    6  A    between atoms: C_12  and  C_14
REMARK    7  A    between atoms: C_25  and  C_27
REMARK    8  A    between atoms: C_33  and  C_35
REMARK                            x       y       z     vdW  Elec       q    Type
REMARK                         _______ _______ _______ _____ _____    ______ ____
ROOT
ATOM      1  C   UNL     1      -5.551   0.325  -2.947  0.00  0.00    +0.100 C 
ATOM      2  C   UNL     1      -5.765  -0.859  -3.916  0.00  0.00    +0.121 C 
ATOM      3  N   UNL     1      -7.235  -1.039  -3.967  0.00  0.00    -0.299 N 
ATOM      4  C   UNL     1      -7.776   0.341  -3.967  0.00  0.00    +0.115 C 
ATOM      5  C   UNL     1      -6.871   1.112  -2.986  0.00  0.00    -0.004 C 
ATOM      6  C   UNL     1      -7.507   1.147  -1.600  0.00  0.00    -0.010 C 
ATOM      7  C   UNL     1      -8.789   1.982  -1.652  0.00  0.00    -0.082 C 
ATOM      8  N   UNL     1      -8.470   3.343  -2.100  0.00  0.00    +0.379 N 
ATOM      9  C   UNL     1      -7.945   3.309  -3.471  0.00  0.00    -0.082 C 
ATOM     10  C   UNL     1      -6.628   2.530  -3.495  0.00  0.00    -0.010 C 
ATOM     11  C   UNL     1      -7.925  -2.197  -4.004  0.00  0.00    +0.236 C 
ATOM     12  O   UNL     1      -9.137  -2.180  -4.044  0.00  0.00    -0.274 OA
ATOM     13  H   UNL     1      -9.306   3.908  -2.076  0.00  0.00    -0.086 HD
ATOM     14  H   UNL     1      -7.778   3.745  -1.486  0.00  0.00    -0.086 HD
ENDROOT
BRANCH  11  15
ATOM     15  C   UNL     1      -7.189  -3.512  -3.995  0.00  0.00    +0.162 C 
ATOM     16  C   UNL     1      -6.673  -3.834  -5.413  0.00  0.00    +0.033 C 
ATOM     17  C   UNL     1      -6.887  -5.367  -5.522  0.00  0.00    +0.021 C 
ATOM     18  C   UNL     1      -8.202  -5.554  -4.724  0.00  0.00    +0.109 C 
ATOM     19  N   UNL     1      -8.105  -4.594  -3.605  0.00  0.00    -0.283 N 
ATOM     20  C   UNL     1      -8.748  -4.692  -2.424  0.00  0.00    +0.320 C 
ATOM     21  O   UNL     1      -8.591  -3.840  -1.576  0.00  0.00    -0.266 OA
BRANCH  20  22
ATOM     22  C   UNL     1      -9.661  -5.861  -2.158  0.00  0.00    +0.470 C 
ATOM     23  F   UNL     1     -10.208  -5.742  -0.876  0.00  0.00    -0.162 F 
ATOM     24  F   UNL     1     -10.691  -5.873  -3.105  0.00  0.00    -0.162 F 
ATOM     25  F   UNL     1      -8.932  -7.052  -2.246  0.00  0.00    -0.162 F 
ENDBRANCH  20  22
ENDBRANCH  11  15
BRANCH   1  27
ATOM     26  N   UNL     1      -4.532   0.551  -0.704  0.00  0.00    -0.311 N 
ATOM     27  C   UNL     1      -5.282  -0.180  -1.552  0.00  0.00    +0.218 C 
ATOM     28  O   UNL     1      -5.741  -1.243  -1.194  0.00  0.00    -0.275 OA
ATOM     29  H   UNL     1      -4.164   1.402  -0.991  0.00  0.00    +0.149 HD
BRANCH  26  30
ATOM     30  C   UNL     1      -4.270   0.060   0.651  0.00  0.00    +0.143 C 
BRANCH  30  36
ATOM     31  C   UNL     1      -3.990   2.188   1.948  0.00  0.00    +0.125 A 
ATOM     32  C   UNL     1      -3.199   3.100   2.632  0.00  0.00    +0.046 A 
ATOM     33  C   UNL     1      -1.840   2.882   2.751  0.00  0.00    +0.004 A 
ATOM     34  C   UNL     1      -1.268   1.756   2.189  0.00  0.00    +0.001 A 
ATOM     35  C   UNL     1      -2.053   0.846   1.506  0.00  0.00    +0.009 A 
ATOM     36  C   UNL     1      -3.414   1.056   1.390  0.00  0.00    +0.011 A 
BRANCH  31  37
ATOM     37  O   UNL     1      -5.327   2.400   1.830  0.00  0.00    -0.492 OA
BRANCH  37  39
ATOM     38  C   UNL     1      -7.361   3.652   2.196  0.00  0.00    +0.048 C 
ATOM     39  C   UNL     1      -5.851   3.586   2.430  0.00  0.00    +0.225 C 
ENDBRANCH  37  39
ENDBRANCH  31  37
ENDBRANCH  30  36
ENDBRANCH  26  30
ENDBRANCH   1  27
TORSDOF 7
