REMARK  Name = ZINC13808139
REMARK  3 active torsions:
REMARK  status: ('A' for Active; 'I' for Inactive)
REMARK    1  A    between atoms: C_6  and  S_7
REMARK    2  A    between atoms: S_7  and  N_10
REMARK    3  A    between atoms: N_10  and  N_11
REMARK                            x       y       z     vdW  Elec       q    Type
REMARK                         _______ _______ _______ _____ _____    ______ ____
ROOT
ATOM      1  S   UNL     1      -1.512  -0.905   0.012  0.00  0.00    +0.075 S 
ATOM      2  O   UNL     1      -1.218  -2.186   0.553  0.00  0.00    -0.152 OA
ATOM      3  O   UNL     1      -2.493  -0.046   0.577  0.00  0.00    -0.152 OA
ENDROOT
BRANCH   1   9
ATOM      4  C   UNL     1      -0.017   1.378   0.010  0.00  0.00    +0.029 A 
ATOM      5  C   UNL     1       1.171   2.086   0.002  0.00  0.00    +0.017 A 
ATOM      6  C   UNL     1       2.378   1.411  -0.013  0.00  0.00    +0.018 A 
ATOM      7  C   UNL     1       2.396   0.027  -0.021  0.00  0.00    +0.017 A 
ATOM      8  C   UNL     1       1.208  -0.679  -0.013  0.00  0.00    +0.029 A 
ATOM      9  C   UNL     1       0.002  -0.004   0.002  0.00  0.00    +0.107 A 
ATOM     10 BR   UNL     1       4.003   2.378  -0.024  0.00  0.00    -0.050 Br
ENDBRANCH   1   9
BRANCH   1  11
ATOM     11  N   UNL     1      -1.948  -1.147  -1.567  0.00  0.00    -0.100 NA
ATOM     12  H   UNL     1      -2.791  -0.799  -1.897  0.00  0.00    +0.174 HD
BRANCH  11  13
ATOM     13  N   UNL     1      -1.098  -1.855  -2.428  0.00  0.00    -0.272 N 
ATOM     14  C   UNL     1      -1.570  -2.952  -3.111  0.00  0.00    +0.203 C 
ATOM     15  N   UNL     1      -2.807  -3.333  -2.957  0.00  0.00    -0.268 NA
ATOM     16  N   UNL     1      -0.736  -3.646  -3.955  0.00  0.00    -0.369 N 
ATOM     17  H   UNL     1      -0.178  -1.572  -2.542  0.00  0.00    +0.185 HD
ATOM     18  H   UNL     1       0.184  -3.363  -4.069  0.00  0.00    +0.159 HD
ATOM     19  H   UNL     1      -1.069  -4.420  -4.437  0.00  0.00    +0.159 HD
ATOM     20  H   UNL     1      -3.395  -2.843  -2.361  0.00  0.00    +0.190 HD
ENDBRANCH  11  13
ENDBRANCH   1  11
TORSDOF 3
