REMARK  Name = ZINC36730437
REMARK  6 active torsions:
REMARK  status: ('A' for Active; 'I' for Inactive)
REMARK    1  A    between atoms: C_1  and  N_2
REMARK    2  A    between atoms: N_2  and  C_3
REMARK    3  A    between atoms: N_2  and  C_4
REMARK    4  A    between atoms: C_7  and  N_10
REMARK    5  A    between atoms: C_11  and  C_13
REMARK    6  A    between atoms: C_13  and  N_14
REMARK                            x       y       z     vdW  Elec       q    Type
REMARK                         _______ _______ _______ _____ _____    ______ ____
ROOT
ATOM      1  N   UNL     1      -0.350  -1.886  -8.405  0.00  0.00    -0.215 N 
ATOM      2  C   UNL     1      -1.519  -1.399  -8.869  0.00  0.00    +0.251 C 
ATOM      3  O   UNL     1      -2.633  -1.658  -8.466  0.00  0.00    -0.272 OA
ATOM      4  C   UNL     1      -1.148  -0.464  -9.998  0.00  0.00    +0.138 C 
ATOM      5  C   UNL     1      -1.602   0.955  -9.678  0.00  0.00    +0.040 C 
ATOM      6  C   UNL     1      -3.130   1.014  -9.805  0.00  0.00    +0.008 C 
ATOM      7  C   UNL     1      -3.499   0.865 -11.280  0.00  0.00    +0.035 C 
ATOM      8  C   UNL     1      -2.826  -0.342 -11.879  0.00  0.00    -0.042 A 
ATOM      9  C   UNL     1      -1.739  -0.951 -11.291  0.00  0.00    -0.012 A 
ATOM     10  C   UNL     1      -1.157  -2.055 -11.899  0.00  0.00    +0.006 A 
ATOM     11  C   UNL     1      -1.662  -2.550 -13.085  0.00  0.00    +0.000 A 
ATOM     12  C   UNL     1      -2.756  -1.942 -13.672  0.00  0.00    +0.000 A 
ATOM     13  C   UNL     1      -3.334  -0.843 -13.070  0.00  0.00    +0.004 A 
ATOM     14  N   UNL     1       0.319  -0.533 -10.049  0.00  0.00    -0.281 N 
ATOM     15  C   UNL     1       0.694  -1.385  -9.076  0.00  0.00    +0.310 C 
ATOM     16  O   UNL     1       1.851  -1.671  -8.838  0.00  0.00    -0.252 OA
ATOM     17  H   UNL     1       0.902  -0.057 -10.660  0.00  0.00    +0.152 HD
ENDROOT
BRANCH   1  18
ATOM     18  C   UNL     1      -0.236  -2.839  -7.298  0.00  0.00    +0.214 C 
BRANCH  18  20
ATOM     19  N   UNL     1      -0.005  -2.763  -4.837  0.00  0.00    -0.284 N 
ATOM     20  C   UNL     1      -0.121  -2.087  -5.997  0.00  0.00    +0.235 C 
ATOM     21  O   UNL     1      -0.133  -0.875  -5.995  0.00  0.00    -0.274 OA
ATOM     22  H   UNL     1       0.081  -3.729  -4.844  0.00  0.00    +0.155 HD
BRANCH  19  26
ATOM     23  C   UNL     1      -0.018  -0.699  -1.212  0.00  0.00    +0.029 A 
ATOM     24  C   UNL     1      -0.775  -0.233  -2.280  0.00  0.00    +0.025 A 
ATOM     25  C   UNL     1      -0.770  -0.916  -3.479  0.00  0.00    +0.025 A 
ATOM     26  C   UNL     1      -0.009  -2.069  -3.619  0.00  0.00    +0.034 A 
ATOM     27  C   UNL     1       0.747  -2.535  -2.552  0.00  0.00    +0.025 A 
ATOM     28  C   UNL     1       0.748  -1.849  -1.354  0.00  0.00    +0.025 A 
BRANCH  23  30
ATOM     29  C   UNL     1       0.780  -0.495   1.127  0.00  0.00    +0.129 C 
ATOM     30  N   UNL     1      -0.023  -0.007   0.003  0.00  0.00    -0.336 N 
ATOM     31  C   UNL     1      -0.830   1.207   0.153  0.00  0.00    +0.129 C 
ENDBRANCH  23  30
ENDBRANCH  19  26
ENDBRANCH  18  20
ENDBRANCH   1  18
TORSDOF 4
