REMARK  Name = ZINC39711613
REMARK  8 active torsions:
REMARK  status: ('A' for Active; 'I' for Inactive)
REMARK    1  A    between atoms: C_1  and  O_2
REMARK    2  A    between atoms: O_2  and  C_3
REMARK    3  A    between atoms: C_3  and  C_4
REMARK    4  A    between atoms: C_4  and  N_5
REMARK    5  A    between atoms: C_6  and  C_10
REMARK    6  A    between atoms: C_10  and  C_12
REMARK    7  A    between atoms: C_10  and  N_27
REMARK    8  A    between atoms: N_30  and  C_33
REMARK                            x       y       z     vdW  Elec       q    Type
REMARK                         _______ _______ _______ _____ _____    ______ ____
ROOT
ATOM      1  C   UNL     1      -0.752  -2.832  -3.744  0.00  0.00    +0.142 C 
ENDROOT
BRANCH   1   2
ATOM      2  C   UNL     1      -1.443  -4.198  -3.722  0.00  0.00    +0.123 C 
ATOM      3  C   UNL     1      -1.230  -4.805  -2.349  0.00  0.00    -0.003 C 
ATOM      4  C   UNL     1      -2.337  -5.131  -1.631  0.00  0.00    -0.003 A 
ATOM      5  C   UNL     1      -2.216  -5.723  -0.297  0.00  0.00    +0.059 A 
ATOM      6  C   UNL     1      -3.343  -6.039   0.394  0.00  0.00    +0.167 A 
ATOM      7  C   UNL     1      -4.624  -5.806  -0.151  0.00  0.00    +0.168 A 
ATOM      8  C   UNL     1      -4.791  -5.251  -1.402  0.00  0.00    +0.073 A 
ATOM      9  C   UNL     1      -3.684  -4.896  -2.183  0.00  0.00    +0.044 A 
ATOM     10  N   UNL     1      -3.868  -4.360  -3.393  0.00  0.00    -0.284 N 
ATOM     11  C   UNL     1      -2.870  -4.003  -4.181  0.00  0.00    +0.226 C 
ATOM     12  O   UNL     1      -3.100  -3.519  -5.274  0.00  0.00    -0.275 OA
ATOM     13  O   UNL     1      -5.554  -6.218   0.758  0.00  0.00    -0.453 OA
ATOM     14  C   UNL     1      -4.851  -7.079   1.671  0.00  0.00    +0.466 C 
ATOM     15  O   UNL     1      -3.497  -6.593   1.634  0.00  0.00    -0.453 OA
ATOM     16  H   UNL     1      -4.776  -4.226  -3.706  0.00  0.00    +0.155 HD
ENDBRANCH   1   2
BRANCH   1  17
ATOM     17  N   UNL     1      -0.859  -2.251  -5.088  0.00  0.00    -0.289 NA
ATOM     18  C   UNL     1      -0.206  -3.110  -6.086  0.00  0.00    +0.104 C 
ATOM     19  C   UNL     1      -0.494  -2.566  -7.489  0.00  0.00    +0.120 C 
ATOM     20  N   UNL     1      -0.097  -1.150  -7.532  0.00  0.00    -0.325 N 
ATOM     21  C   UNL     1      -0.603  -0.254  -6.482  0.00  0.00    +0.120 C 
ATOM     22  C   UNL     1      -0.311  -0.889  -5.118  0.00  0.00    +0.104 C 
BRANCH  20  23
ATOM     23  C   UNL     1       0.739  -0.669  -8.545  0.00  0.00    +0.065 A 
ATOM     24  C   UNL     1       0.192  -0.176  -9.722  0.00  0.00    +0.026 A 
ATOM     25  C   UNL     1       1.020   0.299 -10.721  0.00  0.00    +0.002 A 
ATOM     26  C   UNL     1       2.392   0.283 -10.551  0.00  0.00    +0.003 A 
ATOM     27  C   UNL     1       2.942  -0.208  -9.381  0.00  0.00    +0.040 A 
ATOM     28  C   UNL     1       2.119  -0.679  -8.374  0.00  0.00    +0.144 A 
ATOM     29  F   UNL     1       2.655  -1.154  -7.228  0.00  0.00    -0.204 F 
ENDBRANCH  20  23
ENDBRANCH   1  17
BRANCH   1  31
ATOM     30  N   UNL     1       1.279  -2.677  -2.210  0.00  0.00    -0.225 N 
ATOM     31  C   UNL     1       0.701  -2.999  -3.382  0.00  0.00    +0.170 A 
ATOM     32  N   UNL     1       1.647  -3.486  -4.147  0.00  0.00    -0.112 NA
ATOM     33  N   UNL     1       2.749  -3.464  -3.480  0.00  0.00    -0.023 NA
ATOM     34  N   UNL     1       2.531  -2.971  -2.311  0.00  0.00    -0.044 NA
BRANCH  30  35
ATOM     35  C   UNL     1       0.613  -2.097  -1.041  0.00  0.00    +0.175 C 
BRANCH  35  36
ATOM     36  C   UNL     1       0.652  -0.570  -1.138  0.00  0.00    +0.183 C 
BRANCH  36  38
ATOM     37  C   UNL     1      -0.017   1.425   0.010  0.00  0.00    +0.194 C 
ATOM     38  O   UNL     1       0.002  -0.004   0.002  0.00  0.00    -0.381 OA
ENDBRANCH  36  38
ENDBRANCH  35  36
ENDBRANCH  30  35
ENDBRANCH   1  31
TORSDOF 7
