REMARK  Name = ZINC39938022
REMARK  10 active torsions:
REMARK  status: ('A' for Active; 'I' for Inactive)
REMARK    1  A    between atoms: C_1  and  C_2
REMARK    2  A    between atoms: C_5  and  C_21
REMARK    3  A    between atoms: C_7  and  C_20
REMARK    4  A    between atoms: N_9  and  N_10
REMARK    5  A    between atoms: C_11  and  C_13
REMARK    6  A    between atoms: C_22  and  C_23
REMARK    7  A    between atoms: C_22  and  C_25
REMARK    8  A    between atoms: N_27  and  C_28
REMARK    9  A    between atoms: C_28  and  C_29
REMARK   10  A    between atoms: C_29  and  C_30
REMARK                            x       y       z     vdW  Elec       q    Type
REMARK                         _______ _______ _______ _____ _____    ______ ____
ROOT
ATOM      1  C   UNL     1       2.442  -2.425  -1.483  0.00  0.00    +0.002 C 
ATOM      2  C   UNL     1       2.326  -3.149  -2.613  0.00  0.00    +0.110 C 
ENDROOT
BRANCH   1   6
ATOM      3  C   UNL     1       0.040   0.811   1.231  0.00  0.00    +0.026 C 
ATOM      4  C   UNL     1       0.073  -0.652   0.782  0.00  0.00    +0.074 C 
ATOM      5  C   UNL     1       0.759  -0.775  -0.602  0.00  0.00    +0.029 C 
ATOM      6  C   UNL     1       1.251  -2.246  -0.577  0.00  0.00    +0.033 C 
ATOM      7  C   UNL     1       1.648  -2.455   0.899  0.00  0.00    +0.080 C 
ATOM      8  N   UNL     1       0.915  -1.452   1.696  0.00  0.00    -0.221 NA
ATOM      9  C   UNL     1       1.258  -3.865   1.349  0.00  0.00    +0.026 C 
BRANCH   8  10
ATOM     10  N   UNL     1       0.158  -2.049   2.663  0.00  0.00    -0.244 N 
ATOM     11  C   UNL     1       0.384  -1.774   3.963  0.00  0.00    +0.258 C 
ATOM     12  O   UNL     1       1.263  -0.995   4.275  0.00  0.00    -0.269 OA
ATOM     13  H   UNL     1      -0.544  -2.671   2.414  0.00  0.00    +0.170 HD
BRANCH  11  14
ATOM     14  C   UNL     1      -0.436  -2.421   5.009  0.00  0.00    +0.038 A 
ATOM     15  C   UNL     1      -1.442  -3.321   4.654  0.00  0.00    +0.014 A 
ATOM     16  C   UNL     1      -2.203  -3.921   5.634  0.00  0.00    +0.021 A 
ATOM     17  C   UNL     1      -1.972  -3.632   6.969  0.00  0.00    +0.041 A 
ATOM     18  C   UNL     1      -0.975  -2.740   7.327  0.00  0.00    +0.021 A 
ATOM     19  C   UNL     1      -0.203  -2.138   6.356  0.00  0.00    +0.014 A 
ATOM     20 CL   UNL     1      -2.935  -4.391   8.197  0.00  0.00    -0.084 Cl
ENDBRANCH  11  14
ENDBRANCH   8  10
ENDBRANCH   1   6
BRANCH   2  21
ATOM     21  C   UNL     1       0.988  -3.474  -3.147  0.00  0.00    +0.254 C 
ATOM     22  O   UNL     1      -0.003  -2.970  -2.655  0.00  0.00    -0.269 OA
ATOM     23  N   UNL     1       0.865  -4.330  -4.181  0.00  0.00    -0.310 N 
ATOM     24  H   UNL     1       1.655  -4.732  -4.574  0.00  0.00    +0.149 HD
BRANCH  23  25
ATOM     25  C   UNL     1      -0.462  -4.653  -4.712  0.00  0.00    +0.109 C 
BRANCH  25  26
ATOM     26  C   UNL     1      -0.321  -5.639  -5.873  0.00  0.00    +0.056 C 
BRANCH  26  27
ATOM     27  C   UNL     1      -1.686  -5.971  -6.418  0.00  0.00    -0.021 A 
ATOM     28  C   UNL     1      -2.436  -5.205  -7.416  0.00  0.00    +0.003 A 
ATOM     29  C   UNL     1      -2.182  -4.033  -8.131  0.00  0.00    +0.010 A 
ATOM     30  C   UNL     1      -3.111  -3.563  -9.015  0.00  0.00    +0.001 A 
ATOM     31  C   UNL     1      -4.307  -4.240  -9.208  0.00  0.00    +0.002 A 
ATOM     32  C   UNL     1      -4.579  -5.399  -8.512  0.00  0.00    +0.026 A 
ATOM     33  C   UNL     1      -3.646  -5.896  -7.608  0.00  0.00    +0.047 A 
ATOM     34  N   UNL     1      -3.620  -6.997  -6.782  0.00  0.00    -0.360 N 
ATOM     35  C   UNL     1      -2.443  -7.029  -6.086  0.00  0.00    +0.087 A 
ATOM     36  H   UNL     1      -4.329  -7.655  -6.708  0.00  0.00    +0.165 HD
ENDBRANCH  26  27
ENDBRANCH  25  26
ENDBRANCH  23  25
ENDBRANCH   2  21
BRANCH   2  37
ATOM     37  C   UNL     1       3.500  -3.603  -3.296  0.00  0.00    +0.104 C 
ATOM     38  N   UNL     1       4.431  -3.964  -3.837  0.00  0.00    -0.191 NA
ENDBRANCH   2  37
TORSDOF 8
