REMARK  Name = ZINC44870316
REMARK  7 active torsions:
REMARK  status: ('A' for Active; 'I' for Inactive)
REMARK    1  A    between atoms: C_1  and  C_2
REMARK    2  A    between atoms: C_2  and  C_3
REMARK    3  A    between atoms: C_3  and  C_5
REMARK    4  A    between atoms: C_3  and  C_9
REMARK    5  A    between atoms: N_6  and  O_7
REMARK    6  A    between atoms: N_11  and  C_12
REMARK    7  A    between atoms: C_17  and  C_18
REMARK                            x       y       z     vdW  Elec       q    Type
REMARK                         _______ _______ _______ _____ _____    ______ ____
ROOT
ATOM      1  C   UNL     1       0.632  -2.000  -1.331  0.00  0.00    +0.228 C 
ATOM      2  O   UNL     1       1.645  -2.666  -1.334  0.00  0.00    -0.275 OA
ATOM      3  N   UNL     1      -0.572  -2.604  -1.380  0.00  0.00    -0.284 N 
ATOM      4  H   UNL     1      -1.383  -2.078  -1.296  0.00  0.00    +0.155 HD
ENDROOT
BRANCH   3   5
ATOM      5  C   UNL     1      -0.652  -3.991  -1.551  0.00  0.00    +0.045 A 
ATOM      6  C   UNL     1       0.386  -4.677  -2.168  0.00  0.00    +0.025 A 
ATOM      7  C   UNL     1       0.304  -6.045  -2.335  0.00  0.00    +0.017 A 
ATOM      8  C   UNL     1      -0.811  -6.733  -1.889  0.00  0.00    +0.019 A 
ATOM      9  C   UNL     1      -1.846  -6.052  -1.274  0.00  0.00    +0.029 A 
ATOM     10  C   UNL     1      -1.767  -4.684  -1.099  0.00  0.00    +0.077 A 
ATOM     11 BR   UNL     1      -0.920  -8.607  -2.120  0.00  0.00    -0.050 Br
BRANCH  10  12
ATOM     12  C   UNL     1      -2.893  -3.944  -0.423  0.00  0.00    +0.419 C 
ATOM     13  F   UNL     1      -3.895  -4.850  -0.060  0.00  0.00    -0.166 F 
ATOM     14  F   UNL     1      -2.408  -3.301   0.721  0.00  0.00    -0.166 F 
ATOM     15  F   UNL     1      -3.420  -2.993  -1.304  0.00  0.00    -0.166 F 
ENDBRANCH  10  12
ENDBRANCH   3   5
BRANCH   1  16
ATOM     16  C   UNL     1       0.718  -0.496  -1.272  0.00  0.00    +0.141 C 
BRANCH  16  17
ATOM     17  C   UNL     1       2.165  -0.078  -1.225  0.00  0.00    +0.144 C 
ATOM     18  N   UNL     1       2.734   0.153  -0.088  0.00  0.00    -0.076 NA
ATOM     19  N   UNL     1       2.881   0.058  -2.394  0.00  0.00    -0.343 N 
ATOM     20  H   UNL     1       2.454  -0.115  -3.247  0.00  0.00    +0.144 HD
ATOM     21  H   UNL     1       3.812   0.328  -2.363  0.00  0.00    +0.144 HD
BRANCH  18  22
ATOM     22  O   UNL     1       4.094   0.546  -0.044  0.00  0.00    -0.408 OA
ATOM     23  H   UNL     1       4.431   0.696   0.850  0.00  0.00    +0.328 HD
ENDBRANCH  18  22
ENDBRANCH  16  17
BRANCH  16  25
ATOM     24  C   UNL     1      -0.020   1.537  -0.022  0.00  0.00    +0.005 C 
ATOM     25  C   UNL     1       0.000   0.007  -0.018  0.00  0.00    +0.017 C 
ENDBRANCH  16  25
ENDBRANCH   1  16
TORSDOF 6
