REMARK  Name = ZINC14270565
REMARK  6 active torsions:
REMARK  status: ('A' for Active; 'I' for Inactive)
REMARK    1  A    between atoms: C_9  and  C_11
REMARK    2  A    between atoms: C_15  and  N_17
REMARK    3  A    between atoms: N_17  and  C_18
REMARK    4  A    between atoms: C_18  and  N_20
REMARK    5  A    between atoms: C_21  and  C_23
REMARK    6  A    between atoms: C_24  and  C_25
REMARK                            x       y       z     vdW  Elec       q    Type
REMARK                         _______ _______ _______ _____ _____    ______ ____
ROOT
ATOM      1  C   UNL     1       1.367  -6.210   0.132  0.00  0.00    +0.019 A 
ATOM      2  C   UNL     1       2.615  -6.830   0.212  0.00  0.00    +0.013 A 
ATOM      3  C   UNL     1       3.765  -6.068   0.209  0.00  0.00    +0.022 A 
ATOM      4  C   UNL     1       3.687  -4.689   0.127  0.00  0.00    +0.062 A 
ATOM      5  C   UNL     1       2.448  -4.063   0.047  0.00  0.00    +0.052 A 
ATOM      6  C   UNL     1       1.287  -4.820   0.054  0.00  0.00    +0.036 A 
ATOM      7 CL   UNL     1       5.139  -3.738   0.126  0.00  0.00    -0.082 Cl
ENDROOT
BRANCH   1  16
ATOM      8  C   UNL     1      -3.278 -10.013   0.187  0.00  0.00    +0.002 A 
ATOM      9  C   UNL     1      -4.007  -8.835   0.092  0.00  0.00    +0.002 A 
ATOM     10  C   UNL     1      -3.374  -7.626   0.044  0.00  0.00    +0.030 A 
ATOM     11  C   UNL     1      -1.977  -7.568   0.091  0.00  0.00    +0.089 A 
ATOM     12  C   UNL     1      -1.239  -8.761   0.187  0.00  0.00    +0.066 A 
ATOM     13  C   UNL     1      -1.901  -9.980   0.235  0.00  0.00    +0.028 A 
ATOM     14  N   UNL     1       0.092  -8.391   0.207  0.00  0.00    -0.338 N 
ATOM     15  H   UNL     1       0.878  -9.006   0.264  0.00  0.00    +0.167 HD
ATOM     16  C   UNL     1       0.133  -7.025   0.135  0.00  0.00    +0.139 A 
ATOM     17  N   UNL     1      -1.086  -6.548   0.064  0.00  0.00    -0.228 NA
ENDBRANCH   1  16
BRANCH   5  18
ATOM     18  N   UNL     1       2.373  -2.667  -0.035  0.00  0.00    -0.295 N 
ATOM     19  H   UNL     1       2.933  -2.188  -0.664  0.00  0.00    +0.154 HD
BRANCH  18  20
ATOM     20  C   UNL     1       1.521  -1.991   0.761  0.00  0.00    +0.141 C 
ATOM     21  S   UNL     1       0.454  -2.843   1.793  0.00  0.00    -0.018 S 
BRANCH  20  22
ATOM     22  N   UNL     1       1.511  -0.643   0.745  0.00  0.00    -0.264 N 
ATOM     23  C   UNL     1       0.659   0.034   1.540  0.00  0.00    +0.242 C 
ATOM     24  O   UNL     1      -0.100  -0.572   2.274  0.00  0.00    -0.270 OA
ATOM     25  H   UNL     1       2.116  -0.160   0.160  0.00  0.00    +0.157 HD
BRANCH  23  26
ATOM     26  C   UNL     1       0.648   1.496   1.522  0.00  0.00    +0.068 C 
ATOM     27  C   UNL     1      -0.208   2.174   2.315  0.00  0.00    +0.013 C 
BRANCH  27  28
ATOM     28  C   UNL     1      -0.220   3.645   2.297  0.00  0.00    -0.025 A 
ATOM     29  C   UNL     1       0.659   4.345   1.464  0.00  0.00    +0.009 A 
ATOM     30  C   UNL     1       0.639   5.723   1.448  0.00  0.00    +0.020 A 
ATOM     31  C   UNL     1      -0.242   6.415   2.263  0.00  0.00    +0.041 A 
ATOM     32  C   UNL     1      -1.112   5.729   3.095  0.00  0.00    +0.020 A 
ATOM     33  C   UNL     1      -1.107   4.351   3.118  0.00  0.00    +0.009 A 
ATOM     34 CL   UNL     1      -0.256   8.151   2.242  0.00  0.00    -0.084 Cl
ENDBRANCH  27  28
ENDBRANCH  23  26
ENDBRANCH  20  22
ENDBRANCH  18  20
ENDBRANCH   5  18
TORSDOF 6
