REMARK  Name = ZINC08586292
REMARK  12 active torsions:
REMARK  status: ('A' for Active; 'I' for Inactive)
REMARK    1  A    between atoms: C_1  and  C_2
REMARK    2  A    between atoms: C_5  and  C_8
REMARK    3  A    between atoms: C_8  and  N_65
REMARK    4  A    between atoms: C_9  and  C_10
REMARK    5  A    between atoms: C_9  and  N_65
REMARK    6  A    between atoms: C_14  and  O_21
REMARK    7  A    between atoms: C_19  and  O_20
REMARK    8  A    between atoms: O_21  and  C_22
REMARK    9  A    between atoms: C_23  and  C_24
REMARK   10  A    between atoms: C_23  and  N_65
REMARK   11  A    between atoms: N_28  and  C_29
REMARK   12  A    between atoms: C_29  and  C_30
REMARK                            x       y       z     vdW  Elec       q    Type
REMARK                         _______ _______ _______ _____ _____    ______ ____
ROOT
ATOM      1  N   UNL     1      -1.562   7.777   5.776  0.00  0.00    +0.390 N 
ATOM      2  H   UNL     1      -0.935   8.502   5.409  0.00  0.00    -0.080 HD
ENDROOT
BRANCH   1   3
ATOM      3  C   UNL     1      -0.773   6.562   6.070  0.00  0.00    -0.042 C 
BRANCH   3   8
ATOM      4  C   UNL     1       4.060   8.116   8.830  0.00  0.00    +0.044 C 
ATOM      5  C   UNL     1       2.800   7.710   8.110  0.00  0.00    -0.050 A 
ATOM      6  C   UNL     1       1.721   7.225   8.826  0.00  0.00    +0.003 A 
ATOM      7  C   UNL     1       0.565   6.854   8.165  0.00  0.00    +0.002 A 
ATOM      8  C   UNL     1       0.487   6.967   6.790  0.00  0.00    -0.064 A 
ATOM      9  C   UNL     1       1.568   7.448   6.074  0.00  0.00    +0.002 A 
ATOM     10  C   UNL     1       2.723   7.823   6.735  0.00  0.00    +0.003 A 
ENDBRANCH   3   8
ENDBRANCH   1   3
BRANCH   1  11
ATOM     11  C   UNL     1      -2.593   7.475   4.760  0.00  0.00    -0.037 C 
BRANCH  11  12
ATOM     12  C   UNL     1      -1.916   7.255   3.432  0.00  0.00    -0.002 A 
ATOM     13  C   UNL     1      -1.818   5.996   2.916  0.00  0.00    +0.017 A 
ATOM     14  C   UNL     1      -1.177   5.833   1.672  0.00  0.00    +0.004 A 
ATOM     15  C   UNL     1      -1.042   4.567   1.084  0.00  0.00    +0.055 A 
ATOM     16  C   UNL     1      -0.413   4.447  -0.124  0.00  0.00    +0.121 A 
ATOM     17  C   UNL     1       0.101   5.571  -0.776  0.00  0.00    +0.048 A 
ATOM     18  C   UNL     1      -0.021   6.813  -0.233  0.00  0.00    +0.032 A 
ATOM     19  C   UNL     1      -0.661   6.973   1.008  0.00  0.00    +0.075 A 
ATOM     20  N   UNL     1      -0.788   8.183   1.566  0.00  0.00    -0.213 NA
ATOM     21  C   UNL     1      -1.385   8.341   2.727  0.00  0.00    +0.214 A 
BRANCH  21  22
ATOM     22  O   UNL     1      -1.490   9.586   3.253  0.00  0.00    -0.492 OA
ATOM     23  H   UNL     1      -0.747   9.838   3.819  0.00  0.00    +0.294 HD
ENDBRANCH  21  22
BRANCH  16  24
ATOM     24  O   UNL     1      -0.282   3.220  -0.694  0.00  0.00    -0.495 OA
ATOM     25  C   UNL     1       0.385   3.160  -1.957  0.00  0.00    +0.277 C 
ENDBRANCH  16  24
ENDBRANCH  11  12
ENDBRANCH   1  11
BRANCH   1  26
ATOM     26  C   UNL     1      -2.202   8.275   7.012  0.00  0.00    +0.001 C 
BRANCH  26  27
ATOM     27  C   UNL     1      -1.172   9.022   7.820  0.00  0.00    +0.135 A 
ATOM     28  N   UNL     1      -0.040   9.516   7.381  0.00  0.00    -0.115 NA
ATOM     29  N   UNL     1       0.559  10.080   8.372  0.00  0.00    -0.023 NA
ATOM     30  N   UNL     1      -0.160   9.958   9.432  0.00  0.00    -0.044 NA
ATOM     31  N   UNL     1      -1.239   9.316   9.132  0.00  0.00    -0.229 N 
BRANCH  31  32
ATOM     32  C   UNL     1      -2.329   8.970  10.047  0.00  0.00    +0.178 C 
BRANCH  32  33
ATOM     33  C   UNL     1      -2.053   7.602  10.674  0.00  0.00    +0.140 C 
ATOM     34  C   UNL     1      -3.175   7.234  11.677  0.00  0.00    +0.035 C 
ATOM     35  C   UNL     1      -3.078   5.683  11.671  0.00  0.00    +0.031 C 
ATOM     36  C   UNL     1      -2.677   5.384  10.211  0.00  0.00    +0.160 C 
ATOM     37  O   UNL     1      -2.095   6.576   9.669  0.00  0.00    -0.375 OA
ENDBRANCH  32  33
ENDBRANCH  31  32
ENDBRANCH  26  27
ENDBRANCH   1  26
TORSDOF 10
