REMARK  Name = ZINC18052860
REMARK  10 active torsions:
REMARK  status: ('A' for Active; 'I' for Inactive)
REMARK    1  A    between atoms: C_1  and  C_2
REMARK    2  A    between atoms: C_6  and  C_8
REMARK    3  A    between atoms: N_14  and  C_15
REMARK    4  A    between atoms: C_15  and  C_16
REMARK    5  A    between atoms: C_16  and  C_17
REMARK    6  A    between atoms: N_19  and  N_20
REMARK    7  A    between atoms: C_21  and  C_23
REMARK    8  A    between atoms: C_23  and  C_25
REMARK    9  A    between atoms: C_23  and  O_26
REMARK   10  A    between atoms: O_26  and  C_27
REMARK                            x       y       z     vdW  Elec       q    Type
REMARK                         _______ _______ _______ _____ _____    ______ ____
ROOT
ATOM      1  C   UNL     1      -7.059  -0.169  -1.177  0.00  0.00    +0.231 C 
ATOM      2  O   UNL     1      -7.250   0.960  -0.779  0.00  0.00    -0.274 OA
ATOM      3  N   UNL     1      -5.832  -0.720  -1.077  0.00  0.00    -0.234 N 
ATOM      4  H   UNL     1      -5.679  -1.623  -1.395  0.00  0.00    +0.173 HD
ENDROOT
BRANCH   3   5
ATOM      5  N   UNL     1      -4.779   0.013  -0.514  0.00  0.00    -0.231 N 
ATOM      6  C   UNL     1      -3.553  -0.538  -0.414  0.00  0.00    +0.270 C 
ATOM      7  O   UNL     1      -3.361  -1.668  -0.811  0.00  0.00    -0.270 OA
ATOM      8  H   UNL     1      -4.933   0.916  -0.196  0.00  0.00    +0.173 HD
BRANCH   6   9
ATOM      9  C   UNL     1      -2.420   0.250   0.192  0.00  0.00    +0.257 C 
ATOM     10  C   UNL     1      -2.719   0.521   1.668  0.00  0.00    +0.062 C 
BRANCH   9  11
ATOM     11  O   UNL     1      -1.207  -0.497   0.080  0.00  0.00    -0.480 OA
BRANCH  11  12
ATOM     12  C   UNL     1      -0.045   0.206   0.112  0.00  0.00    +0.122 A 
ATOM     13  C   UNL     1      -0.084   1.603   0.165  0.00  0.00    +0.046 A 
ATOM     14  C   UNL     1       1.062   2.334   0.197  0.00  0.00    +0.012 A 
ATOM     15  C   UNL     1       2.307   1.680   0.178  0.00  0.00    -0.018 A 
ATOM     16  C   UNL     1       3.510   2.404   0.210  0.00  0.00    +0.008 A 
ATOM     17  C   UNL     1       4.698   1.739   0.189  0.00  0.00    +0.001 A 
ATOM     18  C   UNL     1       4.740   0.347   0.135  0.00  0.00    +0.001 A 
ATOM     19  C   UNL     1       3.594  -0.388   0.103  0.00  0.00    +0.008 A 
ATOM     20  C   UNL     1       2.349   0.264   0.124  0.00  0.00    -0.014 A 
ATOM     21  C   UNL     1       1.147  -0.461   0.091  0.00  0.00    +0.054 A 
ENDBRANCH  11  12
ENDBRANCH   9  11
ENDBRANCH   6   9
ENDBRANCH   3   5
BRANCH   1  22
ATOM     22  C   UNL     1      -8.191  -0.958  -1.782  0.00  0.00    +0.119 C 
BRANCH  22  23
ATOM     23  C   UNL     1      -9.464  -0.108  -1.776  0.00  0.00    +0.135 C 
BRANCH  23  30
ATOM     24  C   UNL     1     -11.488  -1.630  -1.668  0.00  0.00    +0.163 A 
ATOM     25  N   UNL     1     -12.315  -2.165  -2.522  0.00  0.00    -0.153 NA
ATOM     26  N   UNL     1     -11.934  -1.757  -3.808  0.00  0.00    -0.254 N 
ATOM     27  H   UNL     1     -12.370  -2.002  -4.640  0.00  0.00    +0.191 HD
ATOM     28  C   UNL     1     -10.855  -0.958  -3.678  0.00  0.00    +0.176 A 
ATOM     29  S   UNL     1     -10.005  -0.192  -4.952  0.00  0.00    -0.011 S 
ATOM     30  N   UNL     1     -10.565  -0.875  -2.365  0.00  0.00    -0.303 N 
BRANCH  24  36
ATOM     31  C   UNL     1     -14.025  -2.789   2.470  0.00  0.00    +0.044 C 
ATOM     32  C   UNL     1     -12.748  -2.359   1.795  0.00  0.00    -0.050 A 
ATOM     33  C   UNL     1     -11.612  -2.126   2.550  0.00  0.00    +0.003 A 
ATOM     34  C   UNL     1     -10.437  -1.732   1.937  0.00  0.00    +0.001 A 
ATOM     35  C   UNL     1     -10.388  -1.575   0.567  0.00  0.00    +0.011 A 
ATOM     36  C   UNL     1     -11.531  -1.803  -0.199  0.00  0.00    +0.019 A 
ATOM     37  C   UNL     1     -12.714  -2.200   0.425  0.00  0.00    +0.015 A 
ENDBRANCH  24  36
ENDBRANCH  23  30
ENDBRANCH  22  23
ENDBRANCH   1  22
TORSDOF 8
