REMARK  Name = ZINC10124772
REMARK  7 active torsions:
REMARK  status: ('A' for Active; 'I' for Inactive)
REMARK    1  A    between atoms: C_1  and  C_2
REMARK    2  A    between atoms: C_10  and  C_11
REMARK    3  A    between atoms: N_13  and  N_14
REMARK    4  A    between atoms: C_15  and  C_17
REMARK    5  A    between atoms: C_17  and  C_18
REMARK    6  A    between atoms: C_18  and  C_19
REMARK    7  A    between atoms: C_22  and  C_24
REMARK                            x       y       z     vdW  Elec       q    Type
REMARK                         _______ _______ _______ _____ _____    ______ ____
ROOT
ATOM      1  N   UNL     1       2.366   1.218  -0.014  0.00  0.00    -0.234 N 
ATOM      2  C   UNL     1       3.524   1.908  -0.021  0.00  0.00    +0.230 C 
ATOM      3  O   UNL     1       3.508   3.120  -0.015  0.00  0.00    -0.274 OA
ATOM      4  H   UNL     1       2.379   0.248  -0.019  0.00  0.00    +0.173 HD
ENDROOT
BRANCH   1   7
ATOM      5  C   UNL     1      -0.014   1.212   0.009  0.00  0.00    +0.296 C 
ATOM      6  O   UNL     1       0.002  -0.004   0.002  0.00  0.00    -0.265 OA
ATOM      7  N   UNL     1       1.143   1.902   0.001  0.00  0.00    -0.228 N 
ATOM      8  H   UNL     1       1.130   2.872   0.007  0.00  0.00    +0.173 HD
BRANCH   5  18
ATOM      9  C   UNL     1      -2.817  -0.136   0.003  0.00  0.00    +0.048 C 
ATOM     10  C   UNL     1      -2.521   1.342   0.016  0.00  0.00    +0.008 A 
ATOM     11  C   UNL     1      -3.495   2.433   0.031  0.00  0.00    +0.024 A 
ATOM     12  C   UNL     1      -4.891   2.494   0.037  0.00  0.00    +0.012 A 
ATOM     13  C   UNL     1      -5.516   3.708   0.046  0.00  0.00    +0.001 A 
ATOM     14  C   UNL     1      -4.774   4.881   0.049  0.00  0.00    +0.004 A 
ATOM     15  C   UNL     1      -3.397   4.844   0.043  0.00  0.00    +0.047 A 
ATOM     16  C   UNL     1      -2.738   3.620   0.034  0.00  0.00    +0.136 A 
ATOM     17  O   UNL     1      -1.436   3.272   0.026  0.00  0.00    -0.450 OA
ATOM     18  C   UNL     1      -1.297   1.930   0.019  0.00  0.00    +0.195 A 
ENDBRANCH   5  18
ENDBRANCH   1   7
BRANCH   2  19
ATOM     19  C   UNL     1       4.839   1.172  -0.038  0.00  0.00    +0.106 C 
BRANCH  19  20
ATOM     20  C   UNL     1       5.988   2.182  -0.043  0.00  0.00    +0.105 C 
BRANCH  20  21
ATOM     21  C   UNL     1       7.304   1.446  -0.060  0.00  0.00    +0.197 A 
ATOM     22  N   UNL     1       7.954   1.083  -1.130  0.00  0.00    -0.221 NA
ATOM     23  C   UNL     1       9.080   0.453  -0.761  0.00  0.00    +0.161 A 
ATOM     24  C   UNL     1       9.112   0.435   0.596  0.00  0.00    +0.157 A 
ATOM     25  O   UNL     1       7.995   1.066   1.023  0.00  0.00    -0.440 OA
BRANCH  24  26
ATOM     26  C   UNL     1      10.168  -0.157   1.445  0.00  0.00    +0.037 A 
ATOM     27  C   UNL     1      10.735   0.588   2.479  0.00  0.00    +0.014 A 
ATOM     28  C   UNL     1      11.716   0.028   3.271  0.00  0.00    +0.021 A 
ATOM     29  C   UNL     1      12.147  -1.266   3.034  0.00  0.00    +0.042 A 
ATOM     30  C   UNL     1      11.592  -2.010   2.007  0.00  0.00    +0.040 A 
ATOM     31  C   UNL     1      10.606  -1.463   1.210  0.00  0.00    +0.053 A 
ATOM     32 CL   UNL     1       9.911  -2.396  -0.078  0.00  0.00    -0.083 Cl
ATOM     33 CL   UNL     1      13.388  -1.960   4.031  0.00  0.00    -0.083 Cl
ENDBRANCH  24  26
ENDBRANCH  20  21
ENDBRANCH  19  20
ENDBRANCH   2  19
TORSDOF 6
