REMARK  Name = ZINC10812339
REMARK  14 active torsions:
REMARK  status: ('A' for Active; 'I' for Inactive)
REMARK    1  A    between atoms: C_1  and  C_2
REMARK    2  A    between atoms: C_2  and  N_3
REMARK    3  A    between atoms: N_3  and  C_4
REMARK    4  A    between atoms: N_3  and  S_6
REMARK    5  A    between atoms: C_4  and  C_5
REMARK    6  A    between atoms: S_6  and  C_9
REMARK    7  A    between atoms: C_12  and  C_15
REMARK    8  A    between atoms: N_17  and  C_18
REMARK    9  A    between atoms: C_18  and  C_19
REMARK   10  A    between atoms: C_19  and  N_63
REMARK   11  A    between atoms: C_20  and  N_63
REMARK   12  A    between atoms: C_21  and  N_63
REMARK   13  A    between atoms: C_30  and  S_31
REMARK   14  A    between atoms: S_31  and  C_32
REMARK                            x       y       z     vdW  Elec       q    Type
REMARK                         _______ _______ _______ _____ _____    ______ ____
ROOT
ATOM      1  C   UNL     1       1.957  -4.294  -0.440  0.00  0.00    +0.252 C 
ATOM      2  O   UNL     1       0.983  -3.818   0.111  0.00  0.00    -0.270 OA
ATOM      3  N   UNL     1       3.035  -3.523  -0.686  0.00  0.00    -0.248 N 
ATOM      4  C   UNL     1       2.984  -2.161  -0.438  0.00  0.00    +0.168 A 
ATOM      5  N   UNL     1       1.988  -1.446   0.028  0.00  0.00    -0.223 NA
ATOM      6  C   UNL     1       2.080  -0.112   0.221  0.00  0.00    +0.094 A 
ATOM      7  C   UNL     1       3.322   0.471  -0.112  0.00  0.00    +0.042 A 
ATOM      8  S   UNL     1       4.258  -0.931  -0.674  0.00  0.00    -0.052 S 
ATOM      9  C   UNL     1       3.573   1.815   0.027  0.00  0.00    +0.017 A 
ATOM     10  C   UNL     1       2.584   2.651   0.512  0.00  0.00    +0.002 A 
ATOM     11  C   UNL     1       1.349   2.118   0.852  0.00  0.00    +0.017 A 
ATOM     12  C   UNL     1       1.086   0.773   0.717  0.00  0.00    +0.034 A 
ENDROOT
BRANCH   1  16
ATOM     13  C   UNL     1       1.961  -8.382  -1.590  0.00  0.00    +0.106 A 
ATOM     14  C   UNL     1       0.772  -7.676  -1.563  0.00  0.00    +0.029 A 
ATOM     15  C   UNL     1       0.763  -6.348  -1.190  0.00  0.00    +0.015 A 
ATOM     16  C   UNL     1       1.958  -5.716  -0.840  0.00  0.00    +0.037 A 
ATOM     17  C   UNL     1       3.156  -6.434  -0.876  0.00  0.00    +0.015 A 
ATOM     18  C   UNL     1       3.149  -7.763  -1.245  0.00  0.00    +0.029 A 
BRANCH  13  19
ATOM     19  S   UNL     1       1.963 -10.078  -2.068  0.00  0.00    +0.061 S 
ATOM     20  O   UNL     1       3.121 -10.662  -1.488  0.00  0.00    -0.153 OA
ATOM     21  O   UNL     1       0.654 -10.572  -1.817  0.00  0.00    -0.153 OA
BRANCH  19  22
ATOM     22  N   UNL     1       2.180 -10.125  -3.709  0.00  0.00    -0.177 NA
BRANCH  22  24
ATOM     23  C   UNL     1       3.899 -11.651  -4.544  0.00  0.00    +0.022 C 
ATOM     24  C   UNL     1       3.533 -10.192  -4.267  0.00  0.00    +0.106 C 
ENDBRANCH  22  24
BRANCH  22  25
ATOM     25  C   UNL     1       1.020 -10.100  -4.602  0.00  0.00    +0.106 C 
ATOM     26  C   UNL     1       0.749  -8.661  -5.046  0.00  0.00    +0.022 C 
ENDBRANCH  22  25
ENDBRANCH  19  22
ENDBRANCH  13  19
ENDBRANCH   1  16
BRANCH  12  27
ATOM     27  S   UNL     1      -0.499   0.144   1.162  0.00  0.00    -0.126 S 
ATOM     28  C   UNL     1      -1.409   1.608   1.725  0.00  0.00    +0.090 C 
ENDBRANCH  12  27
BRANCH   3  29
ATOM     29  C   UNL     1       4.261  -4.127  -1.214  0.00  0.00    +0.097 C 
BRANCH  29  30
ATOM     30  C   UNL     1       5.260  -4.335  -0.074  0.00  0.00    -0.060 C 
BRANCH  30  33
ATOM     31  C   UNL     1       7.577  -4.843   0.412  0.00  0.00    -0.097 C 
ATOM     32  C   UNL     1       6.368  -6.154  -1.226  0.00  0.00    -0.097 C 
ATOM     33  N   UNL     1       6.540  -4.807  -0.641  0.00  0.00    +0.377 N 
ATOM     34  H   UNL     1       6.838  -4.158  -1.379  0.00  0.00    -0.083 HD
ENDBRANCH  30  33
ENDBRANCH  29  30
ENDBRANCH   3  29
TORSDOF 9
