REMARK  Name = ZINC35887271
REMARK  10 active torsions:
REMARK  status: ('A' for Active; 'I' for Inactive)
REMARK    1  A    between atoms: C_1  and  C_2
REMARK    2  A    between atoms: C_2  and  C_3
REMARK    3  A    between atoms: C_2  and  C_4
REMARK    4  A    between atoms: C_2  and  N_6
REMARK    5  A    between atoms: C_4  and  O_5
REMARK    6  A    between atoms: C_8  and  C_23
REMARK    7  A    between atoms: C_10  and  C_13
REMARK    8  A    between atoms: C_17  and  C_19
REMARK    9  A    between atoms: C_23  and  N_24
REMARK   10  A    between atoms: N_27  and  C_30
REMARK                            x       y       z     vdW  Elec       q    Type
REMARK                         _______ _______ _______ _____ _____    ______ ____
ROOT
ATOM      1  N   UNL     1       0.127  -0.599  -1.213  0.00  0.00    +0.385 N 
ATOM      2  C   UNL     1       1.502  -0.090  -0.971  0.00  0.00    -0.073 C 
ATOM      3  C   UNL     1       2.137  -0.005  -2.376  0.00  0.00    -0.008 C 
ATOM      4  C   UNL     1       0.946   0.120  -3.348  0.00  0.00    +0.005 C 
ATOM      5  C   UNL     1      -0.309   0.100  -2.449  0.00  0.00    -0.070 C 
ATOM      6  H   UNL     1       0.139  -1.597  -1.358  0.00  0.00    -0.081 HD
ENDROOT
BRANCH   4   7
ATOM      7  C   UNL     1       1.027   1.418  -4.110  0.00  0.00    -0.045 A 
ATOM      8  C   UNL     1       1.402   1.417  -5.440  0.00  0.00    +0.004 A 
ATOM      9  C   UNL     1       1.476   2.607  -6.139  0.00  0.00    +0.001 A 
ATOM     10  C   UNL     1       1.174   3.799  -5.507  0.00  0.00    +0.012 A 
ATOM     11  C   UNL     1       0.797   3.801  -4.177  0.00  0.00    +0.055 A 
ATOM     12  C   UNL     1       0.720   2.610  -3.479  0.00  0.00    +0.016 A 
BRANCH  11  13
ATOM     13  C   UNL     1       0.469   5.100  -3.489  0.00  0.00    +0.417 C 
ATOM     14  F   UNL     1       0.615   6.157  -4.393  0.00  0.00    -0.166 F 
ATOM     15  F   UNL     1      -0.851   5.062  -3.026  0.00  0.00    -0.166 F 
ATOM     16  F   UNL     1       1.337   5.287  -2.407  0.00  0.00    -0.166 F 
ENDBRANCH  11  13
ENDBRANCH   4   7
BRANCH   1  18
ATOM     17  C   UNL     1      -0.686   1.254   0.166  0.00  0.00    -0.008 C 
ATOM     18  C   UNL     1      -0.754  -0.253  -0.089  0.00  0.00    -0.048 C 
ATOM     19  C   UNL     1      -0.300  -1.003   1.164  0.00  0.00    -0.008 C 
BRANCH  18  20
ATOM     20  C   UNL     1      -2.192  -0.648  -0.428  0.00  0.00    +0.143 C 
BRANCH  20  21
ATOM     21  O   UNL     1      -3.049  -0.312   0.665  0.00  0.00    -0.396 OA
ATOM     22  H   UNL     1      -3.978  -0.535   0.519  0.00  0.00    +0.209 HD
ENDBRANCH  20  21
ENDBRANCH  18  20
ENDBRANCH   1  18
BRANCH   3  23
ATOM     23  C   UNL     1       3.040   1.226  -2.477  0.00  0.00    +0.086 C 
BRANCH  23  24
ATOM     24  N   UNL     1       4.129   1.116  -1.496  0.00  0.00    -0.299 NA
ATOM     25  C   UNL     1       5.019  -0.006  -1.821  0.00  0.00    +0.103 C 
ATOM     26  C   UNL     1       6.029  -0.199  -0.685  0.00  0.00    +0.120 C 
ATOM     27  N   UNL     1       6.708   1.083  -0.441  0.00  0.00    -0.327 N 
ATOM     28  C   UNL     1       5.880   2.282  -0.242  0.00  0.00    +0.120 C 
ATOM     29  C   UNL     1       4.876   2.377  -1.396  0.00  0.00    +0.103 C 
BRANCH  27  30
ATOM     30  C   UNL     1       8.103   1.159  -0.398  0.00  0.00    +0.030 A 
ATOM     31  C   UNL     1       8.724   2.347  -0.038  0.00  0.00    +0.026 A 
ATOM     32  C   UNL     1      10.103   2.420   0.004  0.00  0.00    +0.040 A 
ATOM     33  C   UNL     1      10.866   1.308  -0.313  0.00  0.00    +0.124 A 
ATOM     34  C   UNL     1      10.249   0.122  -0.672  0.00  0.00    +0.040 A 
ATOM     35  C   UNL     1       8.870   0.043  -0.710  0.00  0.00    +0.026 A 
ATOM     36  F   UNL     1      12.214   1.382  -0.271  0.00  0.00    -0.205 F 
ENDBRANCH  27  30
ENDBRANCH  23  24
ENDBRANCH   3  23
TORSDOF 8
