REMARK  Name = ZINC12899896
REMARK  6 active torsions:
REMARK  status: ('A' for Active; 'I' for Inactive)
REMARK    1  A    between atoms: C_7  and  C_11
REMARK    2  A    between atoms: C_11  and  C_12
REMARK    3  A    between atoms: C_12  and  N_13
REMARK    4  A    between atoms: C_14  and  C_16
REMARK    5  A    between atoms: C_16  and  O_17
REMARK    6  A    between atoms: O_17  and  C_18
REMARK                            x       y       z     vdW  Elec       q    Type
REMARK                         _______ _______ _______ _____ _____    ______ ____
ROOT
ATOM      1  C   UNL     1      -4.836   1.415   7.178  0.00  0.00    +0.324 C 
ENDROOT
BRANCH   1   3
ATOM      2  N   UNL     1      -6.261   1.294   9.196  0.00  0.00    -0.312 N 
ATOM      3  C   UNL     1      -5.505   2.046   8.372  0.00  0.00    +0.251 C 
ATOM      4  O   UNL     1      -5.364   3.230   8.591  0.00  0.00    -0.272 OA
ATOM      5  H   UNL     1      -6.375   0.347   9.021  0.00  0.00    +0.149 HD
BRANCH   2   6
ATOM      6  C   UNL     1      -6.912   1.907  10.356  0.00  0.00    +0.109 C 
BRANCH   6   7
ATOM      7  C   UNL     1      -7.703   0.843  11.119  0.00  0.00    +0.056 C 
BRANCH   7  14
ATOM      8  C   UNL     1     -11.755   3.130  11.688  0.00  0.00    +0.001 A 
ATOM      9  C   UNL     1     -11.965   3.542  12.997  0.00  0.00    +0.002 A 
ATOM     10  C   UNL     1     -11.034   3.273  13.976  0.00  0.00    +0.026 A 
ATOM     11  C   UNL     1      -9.872   2.580  13.652  0.00  0.00    +0.047 A 
ATOM     12  C   UNL     1      -9.664   2.164  12.324  0.00  0.00    +0.003 A 
ATOM     13  C   UNL     1     -10.621   2.449  11.348  0.00  0.00    +0.010 A 
ATOM     14  C   UNL     1      -8.372   1.474  12.313  0.00  0.00    -0.021 A 
ATOM     15  C   UNL     1      -7.900   1.506  13.569  0.00  0.00    +0.087 A 
ATOM     16  N   UNL     1      -8.780   2.167  14.382  0.00  0.00    -0.360 N 
ATOM     17  H   UNL     1      -8.655   2.318  15.332  0.00  0.00    +0.165 HD
ENDBRANCH   7  14
ENDBRANCH   6   7
ENDBRANCH   2   6
ENDBRANCH   1   3
BRANCH   1  18
ATOM     18  O   UNL     1      -4.097   2.409   6.465  0.00  0.00    -0.483 OA
BRANCH  18  19
ATOM     19  C   UNL     1      -3.429   2.002   5.353  0.00  0.00    +0.122 A 
ATOM     20  C   UNL     1      -3.488   0.667   4.959  0.00  0.00    +0.048 A 
ATOM     21  C   UNL     1      -2.826   0.233   3.846  0.00  0.00    +0.032 A 
ATOM     22  C   UNL     1      -2.079   1.135   3.085  0.00  0.00    +0.078 A 
ATOM     23  C   UNL     1      -2.017   2.489   3.481  0.00  0.00    +0.068 A 
ATOM     24  C   UNL     1      -2.696   2.917   4.620  0.00  0.00    +0.061 A 
ATOM     25  C   UNL     1      -1.225   3.412   2.655  0.00  0.00    +0.262 A 
ATOM     26  O   UNL     1      -1.123   4.590   2.943  0.00  0.00    -0.267 OA
ATOM     27  N   UNL     1      -0.612   2.901   1.568  0.00  0.00    -0.296 N 
ATOM     28  C   UNL     1      -0.724   1.575   1.250  0.00  0.00    +0.113 A 
ATOM     29  N   UNL     1      -1.413   0.742   1.970  0.00  0.00    -0.234 NA
ATOM     30  C   UNL     1      -0.013   1.086   0.008  0.00  0.00    +0.074 C 
ATOM     31  C   UNL     1      -0.754   1.593  -1.226  0.00  0.00    +0.008 C 
ATOM     32  C   UNL     1      -0.256   2.966  -1.641  0.00  0.00    +0.002 C 
ATOM     33  C   UNL     1      -0.563   4.027  -0.598  0.00  0.00    +0.022 C 
ATOM     34  C   UNL     1       0.200   3.761   0.698  0.00  0.00    +0.126 C 
ENDBRANCH  18  19
ENDBRANCH   1  18
TORSDOF 6
