REMARK  Name = ZINC13151216
REMARK  14 active torsions:
REMARK  status: ('A' for Active; 'I' for Inactive)
REMARK    1  A    between atoms: C_1  and  C_2
REMARK    2  A    between atoms: C_2  and  C_3
REMARK    3  A    between atoms: C_3  and  C_5
REMARK    4  A    between atoms: C_3  and  N_19
REMARK    5  A    between atoms: N_9  and  C_10
REMARK    6  A    between atoms: C_10  and  C_11
REMARK    7  A    between atoms: C_14  and  O_17
REMARK    8  A    between atoms: O_17  and  C_18
REMARK    9  A    between atoms: N_19  and  C_20
REMARK   10  A    between atoms: N_19  and  C_24
REMARK   11  A    between atoms: C_20  and  C_21
REMARK   12  A    between atoms: C_21  and  C_22
REMARK   13  A    between atoms: C_22  and  O_23
REMARK   14  A    between atoms: C_24  and  C_25
REMARK                            x       y       z     vdW  Elec       q    Type
REMARK                         _______ _______ _______ _____ _____    ______ ____
ROOT
ATOM      1  N   UNL     1      -2.773  -1.128  -1.288  0.00  0.00    +0.389 N 
ATOM      2  H   UNL     1      -2.257  -1.665  -1.970  0.00  0.00    -0.080 HD
ENDROOT
BRANCH   1   3
ATOM      3  C   UNL     1      -1.842  -0.573  -0.297  0.00  0.00    +0.003 C 
BRANCH   3   4
ATOM      4  C   UNL     1      -2.594   0.326   0.650  0.00  0.00    +0.138 A 
ATOM      5  N   UNL     1      -3.883   0.309   0.887  0.00  0.00    -0.115 NA
ATOM      6  N   UNL     1      -4.140   1.227   1.755  0.00  0.00    -0.023 NA
ATOM      7  N   UNL     1      -3.049   1.828   2.077  0.00  0.00    -0.044 NA
ATOM      8  N   UNL     1      -2.072   1.298   1.422  0.00  0.00    -0.226 N 
BRANCH   8   9
ATOM      9  C   UNL     1      -0.661   1.683   1.499  0.00  0.00    +0.182 C 
BRANCH   9  10
ATOM     10  C   UNL     1      -0.435   2.930   0.684  0.00  0.00    -0.026 A 
ATOM     11  C   UNL     1       0.059   2.833  -0.604  0.00  0.00    +0.009 A 
ATOM     12  C   UNL     1       0.267   3.975  -1.353  0.00  0.00    +0.046 A 
ATOM     13  C   UNL     1      -0.020   5.220  -0.812  0.00  0.00    +0.120 A 
ATOM     14  C   UNL     1      -0.516   5.314   0.480  0.00  0.00    +0.046 A 
ATOM     15  C   UNL     1      -0.728   4.169   1.223  0.00  0.00    +0.009 A 
BRANCH  13  16
ATOM     16  O   UNL     1       0.184   6.345  -1.547  0.00  0.00    -0.495 OA
ATOM     17  C   UNL     1      -0.134   7.592  -0.926  0.00  0.00    +0.277 C 
ENDBRANCH  13  16
ENDBRANCH   9  10
ENDBRANCH   8   9
ENDBRANCH   3   4
BRANCH   3  19
ATOM     18  C   UNL     1      -0.413  -2.615  -0.469  0.00  0.00    +0.002 C 
ATOM     19  C   UNL     1      -1.194  -1.714   0.490  0.00  0.00    -0.011 C 
ENDBRANCH   3  19
ENDBRANCH   1   3
BRANCH   1  20
ATOM     20  C   UNL     1      -3.482  -0.032  -1.962  0.00  0.00    -0.075 C 
BRANCH  20  21
ATOM     21  C   UNL     1      -2.478   0.824  -2.737  0.00  0.00    +0.009 C 
BRANCH  21  22
ATOM     22  C   UNL     1      -3.223   1.931  -3.485  0.00  0.00    +0.154 C 
BRANCH  22  23
ATOM     23  O   UNL     1      -2.279   2.800  -4.115  0.00  0.00    -0.395 OA
ATOM     24  H   UNL     1      -2.677   3.569  -4.544  0.00  0.00    +0.209 HD
ENDBRANCH  22  23
ENDBRANCH  21  22
ENDBRANCH  20  21
ENDBRANCH   1  20
BRANCH   1  25
ATOM     25  C   UNL     1      -3.745  -1.999  -0.614  0.00  0.00    -0.037 C 
BRANCH  25  26
ATOM     26  C   UNL     1      -4.615  -2.672  -1.643  0.00  0.00    +0.001 A 
ATOM     27  C   UNL     1      -4.302  -3.917  -2.084  0.00  0.00    +0.017 A 
ATOM     28  C   UNL     1      -5.166  -4.543  -3.084  0.00  0.00    +0.002 A 
ATOM     29  C   UNL     1      -4.890  -5.825  -3.576  0.00  0.00    +0.059 A 
ATOM     30  C   UNL     1      -5.722  -6.389  -4.518  0.00  0.00    +0.167 A 
ATOM     31  C   UNL     1      -6.841  -5.686  -4.983  0.00  0.00    +0.168 A 
ATOM     32  C   UNL     1      -7.121  -4.420  -4.502  0.00  0.00    +0.075 A 
ATOM     33  C   UNL     1      -6.291  -3.837  -3.552  0.00  0.00    +0.053 A 
ATOM     34  N   UNL     1      -6.554  -2.574  -3.062  0.00  0.00    -0.322 N 
ATOM     35  H   UNL     1      -7.330  -2.088  -3.385  0.00  0.00    +0.169 HD
ATOM     36  C   UNL     1      -5.756  -2.009  -2.140  0.00  0.00    +0.251 A 
ATOM     37  O   UNL     1      -6.021  -0.893  -1.727  0.00  0.00    -0.268 OA
ATOM     38  O   UNL     1      -7.488  -6.461  -5.900  0.00  0.00    -0.453 OA
ATOM     39  C   UNL     1      -6.537  -7.466  -6.296  0.00  0.00    +0.466 C 
ATOM     40  O   UNL     1      -5.678  -7.600  -5.148  0.00  0.00    -0.453 OA
ENDBRANCH  25  26
ENDBRANCH   1  25
TORSDOF 12
