REMARK  Name = ZINC36207920
REMARK  14 active torsions:
REMARK  status: ('A' for Active; 'I' for Inactive)
REMARK    1  A    between atoms: C_1  and  C_2
REMARK    2  A    between atoms: C_2  and  C_3
REMARK    3  A    between atoms: C_2  and  C_4
REMARK    4  A    between atoms: C_4  and  N_5
REMARK    5  A    between atoms: N_5  and  C_6
REMARK    6  A    between atoms: N_5  and  C_25
REMARK    7  A    between atoms: C_6  and  C_7
REMARK    8  A    between atoms: C_13  and  C_18
REMARK    9  A    between atoms: C_25  and  C_26
REMARK   10  A    between atoms: C_26  and  C_28
REMARK   11  A    between atoms: C_26  and  O_33
REMARK   12  A    between atoms: C_28  and  O_29
REMARK   13  A    between atoms: O_29  and  C_30
REMARK   14  A    between atoms: C_30  and  C_31
REMARK                            x       y       z     vdW  Elec       q    Type
REMARK                         _______ _______ _______ _____ _____    ______ ____
ROOT
ATOM      1  C   UNL     1      -2.425  -0.813  -3.447  0.00  0.00    +0.094 A 
ATOM      2  N   UNL     1      -2.188  -1.561  -4.554  0.00  0.00    -0.312 N 
ATOM      3  H   UNL     1      -1.528  -2.272  -4.516  0.00  0.00    +0.170 HD
ATOM      4  C   UNL     1      -2.849  -1.337  -5.705  0.00  0.00    +0.260 A 
ATOM      5  O   UNL     1      -2.625  -2.018  -6.691  0.00  0.00    -0.267 OA
ATOM      6  C   UNL     1      -3.821  -0.287  -5.753  0.00  0.00    +0.080 A 
ATOM      7  C   UNL     1      -4.658   0.145  -6.866  0.00  0.00    +0.004 A 
ATOM      8  C   UNL     1      -5.517   1.176  -6.673  0.00  0.00    +0.056 A 
ATOM      9  S   UNL     1      -5.246   1.626  -4.970  0.00  0.00    -0.076 S 
ATOM     10  C   UNL     1      -3.998   0.432  -4.560  0.00  0.00    +0.116 A 
ATOM     11  N   UNL     1      -3.309   0.148  -3.458  0.00  0.00    -0.229 NA
ENDROOT
BRANCH   7  12
ATOM     12  C   UNL     1      -4.571  -0.529  -8.183  0.00  0.00    -0.015 A 
ATOM     13  C   UNL     1      -3.329  -0.733  -8.784  0.00  0.00    +0.008 A 
ATOM     14  C   UNL     1      -3.253  -1.361 -10.010  0.00  0.00    +0.002 A 
ATOM     15  C   UNL     1      -4.406  -1.789 -10.644  0.00  0.00    +0.020 A 
ATOM     16  C   UNL     1      -5.642  -1.589 -10.053  0.00  0.00    +0.042 A 
ATOM     17  C   UNL     1      -5.729  -0.967  -8.822  0.00  0.00    +0.028 A 
ATOM     18 CL   UNL     1      -7.084  -2.128 -10.855  0.00  0.00    -0.084 Cl
ENDBRANCH   7  12
BRANCH   1  19
ATOM     19  C   UNL     1      -1.659  -1.100  -2.181  0.00  0.00    -0.003 C 
BRANCH  19  20
ATOM     20  N   UNL     1      -2.189  -0.271  -1.090  0.00  0.00    +0.386 N 
ATOM     21  H   UNL     1      -2.190   0.697  -1.373  0.00  0.00    -0.081 HD
BRANCH  20  22
ATOM     22  C   UNL     1      -1.344  -0.432   0.101  0.00  0.00    -0.075 C 
BRANCH  22  24
ATOM     23  C   UNL     1      -0.054   1.641  -0.431  0.00  0.00    +0.005 C 
ATOM     24  C   UNL     1       0.049   0.135  -0.181  0.00  0.00    -0.034 C 
ATOM     25  C   UNL     1       0.958  -0.121   1.023  0.00  0.00    +0.005 C 
ENDBRANCH  22  24
ENDBRANCH  20  22
BRANCH  20  26
ATOM     26  C   UNL     1      -3.561  -0.692  -0.777  0.00  0.00    -0.044 C 
BRANCH  26  27
ATOM     27  C   UNL     1      -4.156   0.250   0.272  0.00  0.00    +0.124 C 
BRANCH  27  28
ATOM     28  O   UNL     1      -4.279   1.562  -0.282  0.00  0.00    -0.391 OA
ATOM     29  H   UNL     1      -4.848   1.608  -1.062  0.00  0.00    +0.210 HD
ENDBRANCH  27  28
BRANCH  27  30
ATOM     30  C   UNL     1      -5.537  -0.259   0.689  0.00  0.00    +0.190 C 
BRANCH  30  31
ATOM     31  O   UNL     1      -6.044   0.553   1.750  0.00  0.00    -0.365 OA
BRANCH  31  32
ATOM     32  C   UNL     1      -7.336   0.160   2.217  0.00  0.00    +0.248 C 
BRANCH  32  33
ATOM     33  C   UNL     1      -7.759   1.058   3.304  0.00  0.00    -0.077 C 
ATOM     34  C   UNL     1      -8.097   1.774   4.170  0.00  0.00    +0.006 C 
ENDBRANCH  32  33
ENDBRANCH  31  32
ENDBRANCH  30  31
ENDBRANCH  27  30
ENDBRANCH  26  27
ENDBRANCH  20  26
ENDBRANCH  19  20
ENDBRANCH   1  19
TORSDOF 12
