REMARK  Name = ZINC52094622
REMARK  6 active torsions:
REMARK  status: ('A' for Active; 'I' for Inactive)
REMARK    1  A    between atoms: C_1  and  C_2
REMARK    2  A    between atoms: C_2  and  N_3
REMARK    3  A    between atoms: N_3  and  C_4
REMARK    4  A    between atoms: C_4  and  C_6
REMARK    5  A    between atoms: C_4  and  C_19
REMARK    6  A    between atoms: C_22  and  C_24
REMARK                            x       y       z     vdW  Elec       q    Type
REMARK                         _______ _______ _______ _____ _____    ______ ____
ROOT
ATOM      1  C   UNL     1      -2.639  -2.695  -0.336  0.00  0.00    -0.045 A 
ATOM      2  C   UNL     1      -3.670  -2.732   0.583  0.00  0.00    +0.031 A 
ATOM      3  C   UNL     1      -4.850  -3.389   0.271  0.00  0.00    +0.067 A 
ATOM      4  C   UNL     1      -4.992  -4.010  -0.972  0.00  0.00    +0.068 A 
ATOM      5  C   UNL     1      -3.953  -3.969  -1.888  0.00  0.00    +0.043 A 
ATOM      6  C   UNL     1      -2.782  -3.307  -1.570  0.00  0.00    +0.022 A 
ATOM      7 BR   UNL     1      -1.366  -3.242  -2.822  0.00  0.00    -0.050 Br
ATOM      8  N   UNL     1      -6.265  -4.577  -0.995  0.00  0.00    -0.306 N 
ATOM      9  H   UNL     1      -6.650  -5.077  -1.732  0.00  0.00    +0.170 HD
ATOM     10  C   UNL     1      -6.869  -4.312   0.179  0.00  0.00    +0.325 A 
ATOM     11  O   UNL     1      -7.992  -4.666   0.484  0.00  0.00    -0.247 OA
ATOM     12  N   UNL     1      -6.041  -3.597   0.964  0.00  0.00    -0.306 N 
ATOM     13  H   UNL     1      -6.239  -3.281   1.859  0.00  0.00    +0.170 HD
ENDROOT
BRANCH   1  14
ATOM     14  C   UNL     1      -1.356  -1.981   0.004  0.00  0.00    -0.036 C 
BRANCH  14  15
ATOM     15  C   UNL     1      -0.408  -2.948   0.716  0.00  0.00    -0.018 C 
ATOM     16  C   UNL     1      -0.984  -4.285   1.187  0.00  0.00    +0.006 C 
ATOM     17  C   UNL     1      -0.037  -4.240  -0.014  0.00  0.00    -0.012 C 
ATOM     18  C   UNL     1       1.380  -4.782   0.183  0.00  0.00    +0.008 C 
ENDBRANCH  14  15
BRANCH  14  19
ATOM     19  N   UNL     1      -1.648  -0.843   0.886  0.00  0.00    +0.384 N 
ATOM     20  H   UNL     1      -2.006  -1.183   1.766  0.00  0.00    -0.085 HD
ATOM     21  H   UNL     1      -2.336  -0.248   0.450  0.00  0.00    -0.085 HD
BRANCH  19  23
ATOM     22  C   UNL     1      -0.720   1.108   2.039  0.00  0.00    -0.017 C 
ATOM     23  C   UNL     1      -0.416  -0.077   1.121  0.00  0.00    -0.085 C 
ENDBRANCH  19  23
ENDBRANCH  14  19
ENDBRANCH   1  14
TORSDOF 4
