REMARK  Name = ZINC08793050
REMARK  10 active torsions:
REMARK  status: ('A' for Active; 'I' for Inactive)
REMARK    1  A    between atoms: C_1  and  C_2
REMARK    2  A    between atoms: C_2  and  O_3
REMARK    3  A    between atoms: O_3  and  C_4
REMARK    4  A    between atoms: C_4  and  C_6
REMARK    5  A    between atoms: C_10  and  N_11
REMARK    6  A    between atoms: C_12  and  C_14
REMARK    7  A    between atoms: C_15  and  C_16
REMARK    8  A    between atoms: C_20  and  N_22
REMARK    9  A    between atoms: C_28  and  C_29
REMARK   10  A    between atoms: C_28  and  N_60
REMARK                            x       y       z     vdW  Elec       q    Type
REMARK                         _______ _______ _______ _____ _____    ______ ____
ROOT
ATOM      1  C   UNL     1      -6.153   5.660  -0.406  0.00  0.00    +0.091 A 
ATOM      2  C   UNL     1      -7.240   4.700  -0.354  0.00  0.00    -0.025 A 
ATOM      3  C   UNL     1      -6.869   3.418  -0.137  0.00  0.00    -0.021 A 
ATOM      4  S   UNL     1      -5.105   3.473  -0.011  0.00  0.00    -0.079 S 
ATOM      5  C   UNL     1      -4.862   5.175  -0.231  0.00  0.00    +0.086 A 
ATOM      6  C   UNL     1      -7.779   2.234  -0.036  0.00  0.00    -0.035 C 
ATOM      7  C   UNL     1      -9.476   3.762  -0.846  0.00  0.00    -0.073 C 
ATOM      8  C   UNL     1      -8.713   5.051  -0.527  0.00  0.00    +0.018 C 
ATOM      9  N   UNL     1      -9.158   2.739   0.172  0.00  0.00    +0.386 N 
ATOM     10  H   UNL     1      -9.222   3.164   1.104  0.00  0.00    -0.081 HD
ENDROOT
BRANCH   5  11
ATOM     11  N   UNL     1      -3.670   5.879  -0.238  0.00  0.00    -0.276 N 
ATOM     12  C   UNL     1      -2.503   5.231  -0.049  0.00  0.00    +0.241 C 
ATOM     13  O   UNL     1      -2.497   4.027   0.127  0.00  0.00    -0.270 OA
ATOM     14  H   UNL     1      -3.675   6.839  -0.378  0.00  0.00    +0.156 HD
BRANCH  12  15
ATOM     15  C   UNL     1      -1.244   5.976  -0.056  0.00  0.00    +0.068 C 
ATOM     16  C   UNL     1      -0.069   5.315  -0.013  0.00  0.00    +0.013 C 
BRANCH  16  17
ATOM     17  C   UNL     1      -0.038   3.856  -0.206  0.00  0.00    -0.023 A 
ATOM     18  C   UNL     1      -0.816   3.264  -1.206  0.00  0.00    +0.008 A 
ATOM     19  C   UNL     1      -0.778   1.897  -1.385  0.00  0.00    +0.003 A 
ATOM     20  C   UNL     1       0.019   1.111  -0.571  0.00  0.00    +0.033 A 
ATOM     21  C   UNL     1       0.792   1.690   0.421  0.00  0.00    +0.127 A 
ATOM     22  C   UNL     1       0.769   3.056   0.608  0.00  0.00    +0.040 A 
BRANCH  21  23
ATOM     23  N   UNL     1       1.645   0.841   1.282  0.00  0.00    +0.056 N 
ATOM     24  O   UNL     1       1.666  -0.366   1.118  0.00  0.00    -0.126 OA
ATOM     25  O   UNL     1       2.326   1.349   2.155  0.00  0.00    -0.126 OA
ENDBRANCH  21  23
ENDBRANCH  16  17
ENDBRANCH  12  15
ENDBRANCH   5  11
BRANCH   1  26
ATOM     26  C   UNL     1      -6.406   7.084  -0.634  0.00  0.00    +0.342 C 
ATOM     27  O   UNL     1      -6.427   7.524  -1.768  0.00  0.00    -0.245 OA
BRANCH  26  28
ATOM     28  O   UNL     1      -6.616   7.908   0.412  0.00  0.00    -0.461 OA
BRANCH  28  30
ATOM     29  C   UNL     1      -7.075  10.079   1.415  0.00  0.00    +0.048 C 
ATOM     30  C   UNL     1      -6.861   9.307   0.112  0.00  0.00    +0.229 C 
ENDBRANCH  28  30
ENDBRANCH  26  28
ENDBRANCH   1  26
BRANCH   9  31
ATOM     31  C   UNL     1     -10.124   1.623   0.086  0.00  0.00    -0.043 C 
BRANCH  31  32
ATOM     32  C   UNL     1      -9.918   0.709   1.266  0.00  0.00    -0.064 A 
ATOM     33  C   UNL     1      -9.048  -0.361   1.168  0.00  0.00    +0.002 A 
ATOM     34  C   UNL     1      -8.855  -1.197   2.252  0.00  0.00    +0.000 A 
ATOM     35  C   UNL     1      -9.541  -0.969   3.431  0.00  0.00    +0.000 A 
ATOM     36  C   UNL     1     -10.415   0.098   3.527  0.00  0.00    +0.000 A 
ATOM     37  C   UNL     1     -10.603   0.936   2.445  0.00  0.00    +0.002 A 
ENDBRANCH  31  32
ENDBRANCH   9  31
TORSDOF 9
