REMARK  Name = ZINC40371363
REMARK  9 active torsions:
REMARK  status: ('A' for Active; 'I' for Inactive)
REMARK    1  A    between atoms: C_1  and  C_2
REMARK    2  A    between atoms: C_2  and  C_3
REMARK    3  A    between atoms: C_2  and  C_4
REMARK    4  A    between atoms: C_7  and  C_10
REMARK    5  A    between atoms: N_12  and  C_13
REMARK    6  A    between atoms: C_13  and  C_14
REMARK    7  A    between atoms: C_13  and  C_15
REMARK    8  A    between atoms: C_13  and  C_16
REMARK    9  A    between atoms: N_17  and  O_18
REMARK                            x       y       z     vdW  Elec       q    Type
REMARK                         _______ _______ _______ _____ _____    ______ ____
ROOT
ATOM      1  C   UNL     1       2.785  -1.911   4.664  0.00  0.00    +0.245 C 
ATOM      2  O   UNL     1       3.946  -1.599   4.849  0.00  0.00    -0.270 OA
ATOM      3  N   UNL     1       2.151  -2.704   5.550  0.00  0.00    -0.299 N 
ATOM      4  H   UNL     1       1.226  -2.953   5.402  0.00  0.00    +0.150 HD
ENDROOT
BRANCH   1   8
ATOM      5  C   UNL     1       0.731  -0.503   1.223  0.00  0.00    -0.045 A 
ATOM      6  C   UNL     1       2.051  -0.146   1.431  0.00  0.00    +0.004 A 
ATOM      7  C   UNL     1       2.724  -0.599   2.547  0.00  0.00    +0.013 A 
ATOM      8  C   UNL     1       2.070  -1.421   3.466  0.00  0.00    +0.037 A 
ATOM      9  C   UNL     1       0.738  -1.778   3.250  0.00  0.00    +0.013 A 
ATOM     10  C   UNL     1       0.075  -1.312   2.134  0.00  0.00    +0.004 A 
BRANCH   5  12
ATOM     11  C   UNL     1      -0.019   1.526   0.010  0.00  0.00    +0.012 C 
ATOM     12  C   UNL     1       0.002  -0.004   0.002  0.00  0.00    +0.013 C 
ATOM     13  C   UNL     1       0.718  -0.497  -1.257  0.00  0.00    +0.012 C 
ENDBRANCH   5  12
ENDBRANCH   1   8
BRANCH   3  14
ATOM     14  C   UNL     1       2.860  -3.189   6.737  0.00  0.00    +0.087 C 
ATOM     15  C   UNL     1       4.073  -4.015   6.304  0.00  0.00    +0.039 C 
ATOM     16  C   UNL     1       3.327  -1.998   7.575  0.00  0.00    +0.039 C 
BRANCH  14  17
ATOM     17  C   UNL     1       1.934  -4.049   7.558  0.00  0.00    +0.155 C 
ATOM     18  N   UNL     1       2.279  -5.254   7.871  0.00  0.00    -0.075 NA
ATOM     19  N   UNL     1       0.720  -3.551   7.974  0.00  0.00    -0.342 N 
ATOM     20  H   UNL     1       0.460  -2.646   7.739  0.00  0.00    +0.144 HD
ATOM     21  H   UNL     1       0.124  -4.104   8.503  0.00  0.00    +0.144 HD
BRANCH  18  22
ATOM     22  O   UNL     1       1.409  -6.062   8.643  0.00  0.00    -0.408 OA
ATOM     23  H   UNL     1       1.754  -6.947   8.827  0.00  0.00    +0.328 HD
ENDBRANCH  18  22
ENDBRANCH  14  17
ENDBRANCH   3  14
TORSDOF 5
