REMARK  Name = ZINC01380859
REMARK  7 active torsions:
REMARK  status: ('A' for Active; 'I' for Inactive)
REMARK    1  A    between atoms: C_1  and  C_2
REMARK    2  A    between atoms: C_2  and  C_3
REMARK    3  A    between atoms: C_2  and  N_4
REMARK    4  A    between atoms: C_5  and  C_28
REMARK    5  A    between atoms: C_13  and  C_19
REMARK    6  A    between atoms: N_21  and  C_22
REMARK    7  A    between atoms: N_30  and  C_31
REMARK                            x       y       z     vdW  Elec       q    Type
REMARK                         _______ _______ _______ _____ _____    ______ ____
ROOT
ATOM      1  N   UNL     1      -3.194  -3.404  -1.402  0.00  0.00    -0.284 N 
ATOM      2  C   UNL     1      -3.057  -2.256  -0.474  0.00  0.00    +0.199 C 
ATOM      3  C   UNL     1      -3.395  -2.828   0.867  0.00  0.00    +0.127 C 
ATOM      4  C   UNL     1      -3.949  -2.053   2.005  0.00  0.00    +0.009 C 
ATOM      5  C   UNL     1      -3.853  -2.895   3.041  0.00  0.00    +0.004 C 
ATOM      6  C   UNL     1      -3.194  -4.179   2.526  0.00  0.00    +0.155 C 
ATOM      7  O   UNL     1      -2.335  -3.627   1.463  0.00  0.00    -0.358 OA
ATOM      8  C   UNL     1      -4.260  -4.918   1.653  0.00  0.00    +0.122 C 
ATOM      9  C   UNL     1      -4.455  -3.930   0.490  0.00  0.00    +0.128 C 
ATOM     10  C   UNL     1      -3.923  -4.398  -0.835  0.00  0.00    +0.224 C 
ATOM     11  O   UNL     1      -4.116  -5.493  -1.321  0.00  0.00    -0.275 OA
ENDROOT
BRANCH   8  12
ATOM     12  C   UNL     1      -5.543  -5.110   2.419  0.00  0.00    +0.220 C 
ATOM     13  O   UNL     1      -6.546  -4.516   2.082  0.00  0.00    -0.275 OA
ATOM     14  N   UNL     1      -5.578  -5.942   3.479  0.00  0.00    -0.312 N 
ATOM     15  H   UNL     1      -4.776  -6.417   3.749  0.00  0.00    +0.149 HD
BRANCH  14  16
ATOM     16  C   UNL     1      -6.826  -6.128   4.224  0.00  0.00    +0.073 C 
ATOM     17  C   UNL     1      -6.964  -5.023   5.272  0.00  0.00    +0.022 C 
ATOM     18  C   UNL     1      -8.268  -5.218   6.050  0.00  0.00    +0.002 C 
ATOM     19  C   UNL     1      -8.248  -6.580   6.745  0.00  0.00    +0.000 C 
ATOM     20  C   UNL     1      -8.109  -7.686   5.696  0.00  0.00    +0.002 C 
ATOM     21  C   UNL     1      -6.806  -7.491   4.919  0.00  0.00    +0.022 C 
ENDBRANCH  14  16
ENDBRANCH   8  12
BRANCH   2  22
ATOM     22  C   UNL     1      -1.643  -1.734  -0.485  0.00  0.00    +0.237 C 
ATOM     23  O   UNL     1      -0.749  -2.415  -0.941  0.00  0.00    -0.274 OA
ATOM     24  N   UNL     1      -1.372  -0.511   0.012  0.00  0.00    -0.311 N 
ATOM     25  H   UNL     1      -2.087   0.033   0.377  0.00  0.00    +0.149 HD
BRANCH  24  26
ATOM     26  C   UNL     1       0.002  -0.004   0.002  0.00  0.00    +0.073 C 
ATOM     27  C   UNL     1      -0.019   1.526   0.010  0.00  0.00    +0.022 C 
ATOM     28  C   UNL     1       1.417   2.055  -0.000  0.00  0.00    +0.002 C 
ATOM     29  C   UNL     1       2.157   1.548   1.239  0.00  0.00    +0.000 C 
ATOM     30  C   UNL     1       2.178   0.019   1.231  0.00  0.00    +0.002 C 
ATOM     31  C   UNL     1       0.742  -0.511   1.242  0.00  0.00    +0.022 C 
ENDBRANCH  24  26
ENDBRANCH   2  22
BRANCH   1  33
ATOM     32  C   UNL     1      -1.652  -4.638  -2.844  0.00  0.00    +0.028 C 
ATOM     33  C   UNL     1      -2.621  -3.458  -2.749  0.00  0.00    +0.071 C 
ATOM     34  C   UNL     1      -3.742  -3.635  -3.775  0.00  0.00    +0.028 C 
ENDBRANCH   1  33
TORSDOF 5
