REMARK  Name = ZINC39710249
REMARK  12 active torsions:
REMARK  status: ('A' for Active; 'I' for Inactive)
REMARK    1  A    between atoms: C_1  and  C_2
REMARK    2  A    between atoms: C_9  and  C_14
REMARK    3  A    between atoms: C_14  and  C_16
REMARK    4  A    between atoms: C_14  and  N_26
REMARK    5  A    between atoms: N_21  and  C_22
REMARK    6  A    between atoms: C_22  and  C_23
REMARK    7  A    between atoms: C_22  and  C_24
REMARK    8  A    between atoms: C_22  and  C_25
REMARK    9  A    between atoms: N_26  and  C_27
REMARK   10  A    between atoms: N_26  and  C_34
REMARK   11  A    between atoms: C_27  and  C_28
REMARK   12  A    between atoms: C_34  and  C_35
REMARK                            x       y       z     vdW  Elec       q    Type
REMARK                         _______ _______ _______ _____ _____    ______ ____
ROOT
ATOM      1  C   UNL     1       0.384  -5.023   3.173  0.00  0.00    -0.009 C 
ENDROOT
BRANCH   1  10
ATOM      2  C   UNL     1      -5.101  -5.909   7.660  0.00  0.00    +0.044 C 
ATOM      3  C   UNL     1      -4.353  -5.174   6.579  0.00  0.00    -0.050 A 
ATOM      4  C   UNL     1      -4.596  -3.815   6.382  0.00  0.00    +0.005 A 
ATOM      5  C   UNL     1      -3.960  -3.086   5.428  0.00  0.00    +0.024 A 
ATOM      6  C   UNL     1      -3.010  -3.690   4.584  0.00  0.00    +0.040 A 
ATOM      7  N   UNL     1      -2.392  -2.965   3.651  0.00  0.00    -0.285 N 
ATOM      8  C   UNL     1      -1.490  -3.469   2.825  0.00  0.00    +0.223 C 
ATOM      9  O   UNL     1      -0.959  -2.758   1.994  0.00  0.00    -0.275 OA
ATOM     10  C   UNL     1      -1.122  -4.933   2.919  0.00  0.00    +0.088 C 
ATOM     11  C   UNL     1      -1.823  -5.761   3.978  0.00  0.00    -0.006 C 
ATOM     12  C   UNL     1      -2.733  -5.125   4.769  0.00  0.00    -0.007 A 
ATOM     13  C   UNL     1      -3.451  -5.848   5.819  0.00  0.00    +0.012 A 
ATOM     14  H   UNL     1      -2.614  -2.024   3.575  0.00  0.00    +0.155 HD
ENDBRANCH   1  10
BRANCH   1  15
ATOM     15  C   UNL     1       1.139  -4.476   1.961  0.00  0.00    +0.205 C 
ATOM     16  N   UNL     1       0.766  -5.216   0.748  0.00  0.00    -0.152 NA
ATOM     17  N   UNL     1       1.771  -5.763   0.288  0.00  0.00    -0.070 NA
ATOM     18  N   UNL     1       2.917  -5.514   1.044  0.00  0.00    -0.179 N 
ATOM     19  N   UNL     1       2.591  -4.711   2.109  0.00  0.00    -0.183 NA
ATOM     20  H   UNL     1       3.804  -5.854   0.848  0.00  0.00    +0.191 HD
BRANCH  19  21
ATOM     21  C   UNL     1       3.336  -3.446   2.064  0.00  0.00    +0.035 C 
ATOM     22  C   UNL     1       2.796  -2.498   3.136  0.00  0.00    +0.029 C 
ATOM     23  C   UNL     1       4.819  -3.717   2.323  0.00  0.00    +0.029 C 
ATOM     24  C   UNL     1       3.169  -2.804   0.685  0.00  0.00    +0.029 C 
ENDBRANCH  19  21
ENDBRANCH   1  15
BRANCH   1  25
ATOM     25  N   UNL     1       0.760  -6.426   3.393  0.00  0.00    +0.390 N 
ATOM     26  H   UNL     1       0.097  -6.858   4.019  0.00  0.00    -0.080 HD
BRANCH  25  27
ATOM     27  C   UNL     1       2.103  -6.485   3.985  0.00  0.00    -0.042 C 
BRANCH  27  28
ATOM     28  C   UNL     1       2.044  -6.011   5.415  0.00  0.00    -0.064 A 
ATOM     29  C   UNL     1       2.084  -4.658   5.696  0.00  0.00    +0.002 A 
ATOM     30  C   UNL     1       2.029  -4.223   7.007  0.00  0.00    +0.000 A 
ATOM     31  C   UNL     1       1.934  -5.141   8.037  0.00  0.00    +0.000 A 
ATOM     32  C   UNL     1       1.893  -6.494   7.755  0.00  0.00    +0.000 A 
ATOM     33  C   UNL     1       1.943  -6.929   6.444  0.00  0.00    +0.002 A 
ENDBRANCH  27  28
ENDBRANCH  25  27
BRANCH  25  34
ATOM     34  C   UNL     1       0.759  -7.140   2.110  0.00  0.00    -0.042 C 
BRANCH  34  35
ATOM     35  C   UNL     1       0.619  -8.620   2.358  0.00  0.00    -0.064 A 
ATOM     36  C   UNL     1       1.746  -9.400   2.534  0.00  0.00    +0.003 A 
ATOM     37  C   UNL     1       1.619 -10.758   2.763  0.00  0.00    +0.020 A 
ATOM     38  C   UNL     1       0.363 -11.335   2.815  0.00  0.00    +0.041 A 
ATOM     39  C   UNL     1      -0.765 -10.553   2.639  0.00  0.00    +0.020 A 
ATOM     40  C   UNL     1      -0.636  -9.195   2.416  0.00  0.00    +0.003 A 
ATOM     41 CL   UNL     1       0.202 -13.040   3.101  0.00  0.00    -0.084 Cl
ENDBRANCH  34  35
ENDBRANCH  25  34
ENDBRANCH   1  25
TORSDOF 8
