REMARK  Name = ZINC39919492
REMARK  5 active torsions:
REMARK  status: ('A' for Active; 'I' for Inactive)
REMARK    1  A    between atoms: C_1  and  C_2
REMARK    2  A    between atoms: N_13  and  N_14
REMARK    3  A    between atoms: C_15  and  C_17
REMARK    4  A    between atoms: C_17  and  O_18
REMARK    5  A    between atoms: O_18  and  C_19
REMARK                            x       y       z     vdW  Elec       q    Type
REMARK                         _______ _______ _______ _____ _____    ______ ____
ROOT
ATOM      1  C   UNL     1      -0.019   1.526   0.010  0.00  0.00    +0.051 C 
ATOM      2  C   UNL     1       0.002  -0.004   0.002  0.00  0.00    +0.177 C 
ATOM      3  N   UNL     1      -1.376  -0.509   0.004  0.00  0.00    -0.324 N 
ATOM      4  C   UNL     1      -2.098  -0.465   1.192  0.00  0.00    +0.041 A 
ATOM      5  C   UNL     1      -3.475  -0.328   1.208  0.00  0.00    +0.024 A 
ATOM      6  C   UNL     1      -4.143  -0.286   2.417  0.00  0.00    +0.002 A 
ATOM      7  C   UNL     1      -3.446  -0.380   3.612  0.00  0.00    +0.001 A 
ATOM      8  C   UNL     1      -2.074  -0.518   3.613  0.00  0.00    +0.015 A 
ATOM      9  C   UNL     1      -1.387  -0.563   2.402  0.00  0.00    +0.059 A 
ATOM     10  C   UNL     1       0.077  -0.719   2.345  0.00  0.00    +0.266 C 
ATOM     11  O   UNL     1       0.699  -1.055   3.334  0.00  0.00    -0.268 OA
ATOM     12  N   UNL     1       0.717  -0.485   1.184  0.00  0.00    -0.196 N 
ATOM     13  H   UNL     1      -1.775  -0.865  -0.805  0.00  0.00    +0.148 HD
ENDROOT
BRANCH  12  14
ATOM     14  N   UNL     1       2.098  -0.708   1.109  0.00  0.00    -0.227 N 
ATOM     15  C   UNL     1       2.953   0.163   1.681  0.00  0.00    +0.267 C 
ATOM     16  O   UNL     1       2.527   1.139   2.261  0.00  0.00    -0.271 OA
ATOM     17  H   UNL     1       2.439  -1.488   0.645  0.00  0.00    +0.173 HD
BRANCH  15  18
ATOM     18  C   UNL     1       4.439  -0.077   1.601  0.00  0.00    +0.326 C 
BRANCH  18  19
ATOM     19  O   UNL     1       5.128   0.976   2.277  0.00  0.00    -0.482 OA
BRANCH  19  20
ATOM     20  C   UNL     1       6.486   0.911   2.298  0.00  0.00    +0.135 A 
ATOM     21  C   UNL     1       7.141  -0.141   1.675  0.00  0.00    +0.047 A 
ATOM     22  C   UNL     1       8.521  -0.205   1.697  0.00  0.00    +0.004 A 
ATOM     23  C   UNL     1       9.249   0.779   2.340  0.00  0.00    +0.001 A 
ATOM     24  C   UNL     1       8.600   1.829   2.962  0.00  0.00    +0.019 A 
ATOM     25  C   UNL     1       7.220   1.901   2.938  0.00  0.00    +0.059 A 
ATOM     26 BR   UNL     1       6.332   3.341   3.782  0.00  0.00    -0.047 Br
ENDBRANCH  19  20
ENDBRANCH  18  19
ENDBRANCH  15  18
ENDBRANCH  12  14
TORSDOF 4
