REMARK  Name = ZINC35664395
REMARK  12 active torsions:
REMARK  status: ('A' for Active; 'I' for Inactive)
REMARK    1  A    between atoms: C_1  and  C_2
REMARK    2  A    between atoms: C_2  and  N_3
REMARK    3  A    between atoms: C_4  and  C_21
REMARK    4  A    between atoms: C_5  and  C_16
REMARK    5  A    between atoms: C_6  and  C_11
REMARK    6  A    between atoms: C_16  and  O_18
REMARK    7  A    between atoms: O_18  and  C_19
REMARK    8  A    between atoms: C_19  and  C_20
REMARK    9  A    between atoms: C_21  and  N_22
REMARK   10  A    between atoms: C_26  and  C_29
REMARK   11  A    between atoms: C_30  and  C_32
REMARK   12  A    between atoms: C_35  and  C_38
REMARK                            x       y       z     vdW  Elec       q    Type
REMARK                         _______ _______ _______ _____ _____    ______ ____
ROOT
ATOM      1  N   UNL     1       2.816   0.372   1.260  0.00  0.00    -0.258 N 
ATOM      2  C   UNL     1       4.138   0.283   0.930  0.00  0.00    +0.041 C 
ATOM      3  C   UNL     1       5.077   0.046   1.871  0.00  0.00    +0.080 C 
ATOM      4  C   UNL     1       4.613  -0.118   3.305  0.00  0.00    +0.144 C 
ATOM      5  N   UNL     1       3.166  -0.003   3.555  0.00  0.00    -0.288 N 
ATOM      6  C   UNL     1       2.352   0.241   2.509  0.00  0.00    +0.307 C 
ATOM      7  O   UNL     1       1.157   0.341   2.706  0.00  0.00    -0.252 OA
ATOM      8  H   UNL     1       2.808  -0.099   4.452  0.00  0.00    +0.151 HD
ENDROOT
BRANCH   4   9
ATOM      9  C   UNL     1       5.061  -1.474   3.786  0.00  0.00    -0.015 A 
ATOM     10  C   UNL     1       6.187  -1.600   4.578  0.00  0.00    +0.013 A 
ATOM     11  C   UNL     1       6.563  -2.834   4.994  0.00  0.00    +0.045 A 
ATOM     12  S   UNL     1       5.308  -3.869   4.261  0.00  0.00    -0.105 S 
ATOM     13  C   UNL     1       4.363  -2.587   3.454  0.00  0.00    +0.051 A 
ENDBRANCH   4   9
BRANCH   1  15
ATOM     14  C   UNL     1       1.669   2.142   0.021  0.00  0.00    +0.025 C 
ATOM     15  C   UNL     1       1.852   0.632   0.188  0.00  0.00    +0.111 C 
ENDBRANCH   1  15
BRANCH   3  16
ATOM     16  C   UNL     1       6.447  -0.047   1.531  0.00  0.00    +0.339 C 
ATOM     17  O   UNL     1       6.963  -1.139   1.378  0.00  0.00    -0.245 OA
BRANCH  16  18
ATOM     18  O   UNL     1       7.181   1.074   1.376  0.00  0.00    -0.462 OA
BRANCH  18  19
ATOM     19  C   UNL     1       8.558   0.905   1.032  0.00  0.00    +0.229 C 
ATOM     20  C   UNL     1       9.223   2.277   0.900  0.00  0.00    +0.048 C 
ENDBRANCH  18  19
ENDBRANCH  16  18
ENDBRANCH   3  16
BRANCH   2  21
ATOM     21  C   UNL     1       4.556   0.453  -0.508  0.00  0.00    +0.136 C 
BRANCH  21  22
ATOM     22  N   UNL     1       4.037  -0.668  -1.303  0.00  0.00    -0.294 NA
ATOM     23  C   UNL     1       4.661  -1.935  -0.897  0.00  0.00    +0.104 C 
ATOM     24  C   UNL     1       3.967  -3.095  -1.619  0.00  0.00    +0.124 C 
ATOM     25  N   UNL     1       3.989  -2.827  -3.065  0.00  0.00    -0.292 N 
ATOM     26  C   UNL     1       3.507  -1.520  -3.537  0.00  0.00    +0.087 C 
ATOM     27  C   UNL     1       4.218  -0.421  -2.740  0.00  0.00    +0.107 C 
ATOM     28  C   UNL     1       3.820  -1.365  -5.027  0.00  0.00    +0.029 C 
ATOM     29  C   UNL     1       4.439  -3.753  -3.934  0.00  0.00    +0.247 C 
ATOM     30  O   UNL     1       4.548  -3.479  -5.113  0.00  0.00    -0.270 OA
BRANCH  29  31
ATOM     31  C   UNL     1       4.800  -5.104  -3.453  0.00  0.00    +0.037 A 
ATOM     32  C   UNL     1       4.179  -5.634  -2.321  0.00  0.00    +0.013 A 
ATOM     33  C   UNL     1       4.520  -6.895  -1.877  0.00  0.00    +0.004 A 
ATOM     34  C   UNL     1       5.475  -7.635  -2.553  0.00  0.00    -0.050 A 
ATOM     35  C   UNL     1       6.095  -7.115  -3.676  0.00  0.00    +0.004 A 
ATOM     36  C   UNL     1       5.758  -5.857  -4.133  0.00  0.00    +0.013 A 
ATOM     37  C   UNL     1       5.843  -9.011  -2.063  0.00  0.00    +0.044 C 
ENDBRANCH  29  31
ENDBRANCH  21  22
ENDBRANCH   2  21
TORSDOF 8
