REMARK  Name = ZINC19826011
REMARK  13 active torsions:
REMARK  status: ('A' for Active; 'I' for Inactive)
REMARK    1  A    between atoms: C_1  and  C_2
REMARK    2  A    between atoms: C_2  and  N_3
REMARK    3  A    between atoms: N_3  and  C_4
REMARK    4  A    between atoms: N_3  and  C_6
REMARK    5  A    between atoms: C_4  and  C_5
REMARK    6  A    between atoms: C_9  and  C_13
REMARK    7  A    between atoms: C_10  and  O_12
REMARK    8  A    between atoms: N_14  and  N_15
REMARK    9  A    between atoms: C_16  and  C_18
REMARK   10  A    between atoms: C_18  and  S_19
REMARK   11  A    between atoms: S_19  and  C_20
REMARK   12  A    between atoms: N_28  and  C_29
REMARK   13  A    between atoms: C_29  and  C_30
REMARK                            x       y       z     vdW  Elec       q    Type
REMARK                         _______ _______ _______ _____ _____    ______ ____
ROOT
ATOM      1  N   UNL     1       2.457  11.359  -1.538  0.00  0.00    -0.206 N 
ATOM      2  C   UNL     1       2.949  10.207  -2.034  0.00  0.00    +0.242 C 
ATOM      3  O   UNL     1       4.142   9.990  -1.994  0.00  0.00    -0.273 OA
ATOM      4  H   UNL     1       1.375  11.556  -1.574  0.00  0.00    +0.177 HD
ENDROOT
BRANCH   1   6
ATOM      5  C   UNL     1       2.841  13.364  -0.396  0.00  0.00    +0.142 C 
ATOM      6  N   UNL     1       3.323  12.306  -0.976  0.00  0.00    -0.188 NA
BRANCH   5  10
ATOM      7  C   UNL     1      -1.332  13.665   0.343  0.00  0.00    +0.033 A 
ATOM      8  C   UNL     1      -0.718  12.416   0.308  0.00  0.00    +0.024 A 
ATOM      9  C   UNL     1       0.634  12.314   0.069  0.00  0.00    +0.015 A 
ATOM     10  C   UNL     1       1.394  13.468  -0.140  0.00  0.00    +0.036 A 
ATOM     11  C   UNL     1       0.776  14.726  -0.100  0.00  0.00    +0.127 A 
ATOM     12  C   UNL     1      -0.584  14.817   0.136  0.00  0.00    +0.069 A 
BRANCH  11  13
ATOM     13  O   UNL     1       1.509  15.852  -0.298  0.00  0.00    -0.506 OA
ATOM     14  H   UNL     1       1.023  16.838  -0.266  0.00  0.00    +0.292 HD
ENDBRANCH  11  13
BRANCH   7  15
ATOM     15  N   UNL     1      -2.702  13.760   0.586  0.00  0.00    -0.330 N 
BRANCH  15  17
ATOM     16  C   UNL     1      -3.510  12.211   2.297  0.00  0.00    +0.024 C 
ATOM     17  C   UNL     1      -3.493  12.546   0.804  0.00  0.00    +0.102 C 
ENDBRANCH  15  17
BRANCH  15  18
ATOM     18  C   UNL     1      -3.350  15.073   0.623  0.00  0.00    +0.102 C 
ATOM     19  C   UNL     1      -3.833  15.443  -0.781  0.00  0.00    +0.024 C 
ENDBRANCH  15  18
ENDBRANCH   7  15
ENDBRANCH   5  10
ENDBRANCH   1   6
BRANCH   2  20
ATOM     20  C   UNL     1       2.018   9.188  -2.639  0.00  0.00    +0.174 C 
BRANCH  20  21
ATOM     21  S   UNL     1       2.973   7.761  -3.211  0.00  0.00    -0.078 S 
BRANCH  21  22
ATOM     22  C   UNL     1       1.673   6.760  -3.852  0.00  0.00    +0.171 A 
ATOM     23  N   UNL     1       0.403   7.082  -3.850  0.00  0.00    -0.222 NA
ATOM     24  C   UNL     1      -0.322   6.084  -4.419  0.00  0.00    +0.090 A 
ATOM     25  C   UNL     1      -1.686   5.910  -4.667  0.00  0.00    +0.030 A 
ATOM     26  C   UNL     1      -2.128   4.759  -5.281  0.00  0.00    +0.002 A 
ATOM     27  C   UNL     1      -1.231   3.767  -5.645  0.00  0.00    +0.002 A 
ATOM     28  C   UNL     1       0.119   3.923  -5.407  0.00  0.00    +0.028 A 
ATOM     29  C   UNL     1       0.583   5.077  -4.795  0.00  0.00    +0.070 A 
ATOM     30  N   UNL     1       1.839   5.530  -4.425  0.00  0.00    -0.314 N 
BRANCH  30  31
ATOM     31  C   UNL     1       3.108   4.823  -4.614  0.00  0.00    +0.161 C 
BRANCH  31  32
ATOM     32  C   UNL     1       3.762   5.297  -5.886  0.00  0.00    -0.009 A 
ATOM     33  C   UNL     1       4.632   6.371  -5.858  0.00  0.00    +0.007 A 
ATOM     34  C   UNL     1       5.232   6.805  -7.024  0.00  0.00    +0.000 A 
ATOM     35  C   UNL     1       4.963   6.165  -8.220  0.00  0.00    +0.001 A 
ATOM     36  C   UNL     1       4.094   5.091  -8.250  0.00  0.00    +0.020 A 
ATOM     37  C   UNL     1       3.497   4.653  -7.081  0.00  0.00    +0.046 A 
ATOM     38 CL   UNL     1       2.411   3.299  -7.116  0.00  0.00    -0.083 Cl
ENDBRANCH  31  32
ENDBRANCH  30  31
ENDBRANCH  21  22
ENDBRANCH  20  21
ENDBRANCH   2  20
TORSDOF 11
