REMARK  Name = ZINC36307568
REMARK  7 active torsions:
REMARK  status: ('A' for Active; 'I' for Inactive)
REMARK    1  A    between atoms: C_1  and  C_2
REMARK    2  A    between atoms: C_2  and  C_3
REMARK    3  A    between atoms: C_2  and  C_4
REMARK    4  A    between atoms: C_7  and  C_10
REMARK    5  A    between atoms: C_10  and  O_11
REMARK    6  A    between atoms: O_11  and  C_12
REMARK    7  A    between atoms: C_17  and  C_18
REMARK                            x       y       z     vdW  Elec       q    Type
REMARK                         _______ _______ _______ _____ _____    ______ ____
ROOT
ATOM      1  C   UNL     1      -7.592  -1.396  -0.700  0.00  0.00    +0.134 A 
ATOM      2  C   UNL     1      -8.053  -2.579  -0.144  0.00  0.00    +0.046 A 
ATOM      3  C   UNL     1      -9.393  -2.907  -0.224  0.00  0.00    +0.006 A 
ATOM      4  C   UNL     1     -10.285  -2.060  -0.857  0.00  0.00    +0.039 A 
ATOM      5  C   UNL     1      -9.844  -0.877  -1.417  0.00  0.00    +0.137 A 
ATOM      6  C   UNL     1      -8.491  -0.531  -1.338  0.00  0.00    +0.089 A 
ATOM      7  F   UNL     1     -10.718  -0.053  -2.035  0.00  0.00    -0.205 F 
ENDROOT
BRANCH   6   8
ATOM      8  C   UNL     1      -8.012   0.734  -1.928  0.00  0.00    +0.101 C 
ATOM      9  N   UNL     1      -8.424   1.900  -1.429  0.00  0.00    -0.387 N 
ATOM     10  N   UNL     1      -7.168   0.711  -2.959  0.00  0.00    -0.344 N 
ATOM     11  H   UNL     1      -8.109   2.731  -1.817  0.00  0.00    +0.157 HD
ATOM     12  H   UNL     1      -6.868  -0.138  -3.322  0.00  0.00    +0.144 HD
ATOM     13  H   UNL     1      -6.853   1.542  -3.347  0.00  0.00    +0.144 HD
ATOM     14  H   UNL     1      -9.038   1.916  -0.679  0.00  0.00    +0.157 HD
ENDBRANCH   6   8
BRANCH   1  15
ATOM     15  O   UNL     1      -6.276  -1.074  -0.622  0.00  0.00    -0.487 OA
BRANCH  15  16
ATOM     16  C   UNL     1      -5.419  -2.005   0.043  0.00  0.00    +0.264 C 
BRANCH  16  20
ATOM     17  C   UNL     1      -1.412  -0.526   0.013  0.00  0.00    -0.045 A 
ATOM     18  C   UNL     1      -2.259  -0.204   1.056  0.00  0.00    +0.004 A 
ATOM     19  C   UNL     1      -3.556  -0.683   1.066  0.00  0.00    +0.007 A 
ATOM     20  C   UNL     1      -4.006  -1.482   0.032  0.00  0.00    -0.010 A 
ATOM     21  C   UNL     1      -3.159  -1.803  -1.012  0.00  0.00    +0.007 A 
ATOM     22  C   UNL     1      -1.863  -1.321  -1.024  0.00  0.00    +0.004 A 
BRANCH  17  24
ATOM     23  C   UNL     1      -0.019   1.526   0.010  0.00  0.00    +0.012 C 
ATOM     24  C   UNL     1       0.002  -0.004   0.002  0.00  0.00    +0.013 C 
ATOM     25  C   UNL     1       0.742  -0.511   1.242  0.00  0.00    +0.012 C 
ENDBRANCH  17  24
ENDBRANCH  16  20
ENDBRANCH  15  16
ENDBRANCH   1  15
TORSDOF 5
