REMARK  Name = ZINC63844910
REMARK  6 active torsions:
REMARK  status: ('A' for Active; 'I' for Inactive)
REMARK    1  A    between atoms: C_1  and  C_2
REMARK    2  A    between atoms: C_2  and  C_3
REMARK    3  A    between atoms: N_12  and  C_15
REMARK    4  A    between atoms: C_15  and  C_16
REMARK    5  A    between atoms: C_20  and  C_26
REMARK    6  A    between atoms: C_21  and  C_25
REMARK                            x       y       z     vdW  Elec       q    Type
REMARK                         _______ _______ _______ _____ _____    ______ ____
ROOT
ATOM      1  C   UNL     1       2.137  -1.807   6.442  0.00  0.00    +0.155 C 
ENDROOT
BRANCH   1   2
ATOM      2  C   UNL     1       2.575  -0.443   6.980  0.00  0.00    +0.192 C 
ATOM      3  N   UNL     1       1.762   0.621   6.377  0.00  0.00    -0.362 N 
ATOM      4  C   UNL     1       2.570   1.408   5.727  0.00  0.00    +0.060 A 
ATOM      5  C   UNL     1       2.355   2.625   4.933  0.00  0.00    +0.031 A 
ATOM      6  C   UNL     1       3.409   3.242   4.362  0.00  0.00    -0.045 A 
ATOM      7  C   UNL     1       4.726   2.768   4.492  0.00  0.00    -0.045 A 
ATOM      8  C   UNL     1       5.034   1.660   5.197  0.00  0.00    +0.031 A 
ATOM      9  C   UNL     1       3.965   0.906   5.864  0.00  0.00    +0.060 A 
ATOM     10  N   UNL     1       3.965  -0.172   6.595  0.00  0.00    -0.362 N 
ATOM     11  C   UNL     1       5.839   3.527   3.815  0.00  0.00    +0.044 C 
ATOM     12  C   UNL     1       3.166   4.489   3.552  0.00  0.00    +0.044 C 
ATOM     13  H   UNL     1       4.742  -0.699   6.839  0.00  0.00    +0.162 HD
ATOM     14  H   UNL     1       0.800   0.719   6.450  0.00  0.00    +0.162 HD
ENDBRANCH   1   2
BRANCH   1  22
ATOM     15  C   UNL     1       1.054  -0.067   0.766  0.00  0.00    -0.016 C 
ATOM     16  C   UNL     1       0.548  -0.694   1.833  0.00  0.00    -0.002 C 
ATOM     17  C   UNL     1       1.492  -1.277   2.788  0.00  0.00    +0.126 C 
ATOM     18  C   UNL     1       2.869  -0.540   2.751  0.00  0.00    +0.133 C 
ATOM     19  S   UNL     1       2.832  -0.131   0.962  0.00  0.00    -0.110 S 
ATOM     20  N   UNL     1       3.854  -1.544   3.120  0.00  0.00    -0.288 NA
ATOM     21  C   UNL     1       3.487  -2.231   4.361  0.00  0.00    +0.193 C 
ATOM     22  N   UNL     1       2.240  -1.811   4.981  0.00  0.00    -0.284 N 
ATOM     23  C   UNL     1       1.177  -1.416   4.239  0.00  0.00    +0.226 C 
ATOM     24  O   UNL     1       0.085  -1.196   4.717  0.00  0.00    -0.275 OA
ATOM     25  H   UNL     1       3.997  -2.204   2.369  0.00  0.00    +0.124 HD
BRANCH  15  27
ATOM     26  C   UNL     1       0.101   2.054  -0.097  0.00  0.00    +0.009 C 
ATOM     27  C   UNL     1       0.286   0.560  -0.369  0.00  0.00    +0.038 C 
ENDBRANCH  15  27
ENDBRANCH   1  22
TORSDOF 3
