REMARK  Name = ZINC54622612
REMARK  7 active torsions:
REMARK  status: ('A' for Active; 'I' for Inactive)
REMARK    1  A    between atoms: C_1  and  C_2
REMARK    2  A    between atoms: C_2  and  C_4
REMARK    3  A    between atoms: C_2  and  N_12
REMARK    4  A    between atoms: C_4  and  C_5
REMARK    5  A    between atoms: N_15  and  N_16
REMARK    6  A    between atoms: C_17  and  C_19
REMARK    7  A    between atoms: C_19  and  C_20
REMARK                            x       y       z     vdW  Elec       q    Type
REMARK                         _______ _______ _______ _____ _____    ______ ____
ROOT
ATOM      1  N   UNL     1      -1.372  -0.511   0.012  0.00  0.00    -0.295 N 
ATOM      2  C   UNL     1      -2.051  -0.643  -1.145  0.00  0.00    +0.316 C 
ATOM      3  O   UNL     1      -1.522  -0.341  -2.197  0.00  0.00    -0.251 OA
ATOM      4  N   UNL     1      -3.315  -1.109  -1.135  0.00  0.00    -0.218 N 
ATOM      5  H   UNL     1      -1.794  -0.752   0.852  0.00  0.00    +0.151 HD
ATOM      6  H   UNL     1      -3.804  -1.204  -1.968  0.00  0.00    +0.174 HD
ENDROOT
BRANCH   4   7
ATOM      7  N   UNL     1      -3.924  -1.457   0.078  0.00  0.00    -0.233 N 
ATOM      8  C   UNL     1      -5.189  -1.924   0.087  0.00  0.00    +0.234 C 
ATOM      9  O   UNL     1      -5.799  -2.042  -0.954  0.00  0.00    -0.274 OA
ATOM     10  H   UNL     1      -3.436  -1.363   0.910  0.00  0.00    +0.173 HD
BRANCH   8  11
ATOM     11  C   UNL     1      -5.844  -2.298   1.392  0.00  0.00    +0.134 C 
BRANCH  11  12
ATOM     12  C   UNL     1      -7.245  -2.787   1.128  0.00  0.00    -0.014 A 
ATOM     13  C   UNL     1      -8.369  -2.055   1.177  0.00  0.00    +0.087 A 
ATOM     14  N   UNL     1      -9.450  -2.839   0.880  0.00  0.00    -0.360 N 
ATOM     15  H   UNL     1     -10.370  -2.532   0.852  0.00  0.00    +0.165 HD
ATOM     16  C   UNL     1      -9.038  -4.128   0.625  0.00  0.00    +0.047 A 
ATOM     17  C   UNL     1      -7.638  -4.150   0.763  0.00  0.00    +0.003 A 
ATOM     18  C   UNL     1      -6.937  -5.340   0.555  0.00  0.00    +0.010 A 
ATOM     19  C   UNL     1      -7.615  -6.476   0.214  0.00  0.00    +0.001 A 
ATOM     20  C   UNL     1      -8.995  -6.458   0.073  0.00  0.00    +0.002 A 
ATOM     21  C   UNL     1      -9.708  -5.297   0.282  0.00  0.00    +0.026 A 
ENDBRANCH  11  12
ENDBRANCH   8  11
ENDBRANCH   4   7
BRANCH   1  23
ATOM     22  C   UNL     1      -0.019   1.526   0.010  0.00  0.00    +0.028 C 
ATOM     23  C   UNL     1       0.002  -0.004   0.002  0.00  0.00    +0.076 C 
BRANCH  23  24
ATOM     24  C   UNL     1       0.742  -0.511   1.242  0.00  0.00    +0.060 C 
BRANCH  24  25
ATOM     25  C   UNL     1       0.870  -2.011   1.172  0.00  0.00    -0.010 A 
ATOM     26  C   UNL     1      -0.063  -2.814   1.800  0.00  0.00    +0.006 A 
ATOM     27  C   UNL     1       0.054  -4.190   1.736  0.00  0.00    +0.000 A 
ATOM     28  C   UNL     1       1.104  -4.764   1.044  0.00  0.00    +0.003 A 
ATOM     29  C   UNL     1       2.038  -3.963   0.416  0.00  0.00    +0.038 A 
ATOM     30  C   UNL     1       1.919  -2.585   0.474  0.00  0.00    +0.127 A 
ATOM     31  F   UNL     1       2.829  -1.800  -0.144  0.00  0.00    -0.205 F 
ENDBRANCH  24  25
ENDBRANCH  23  24
ENDBRANCH   1  23
TORSDOF 6
