REMARK  Name = ZINC03468270
REMARK  10 active torsions:
REMARK  status: ('A' for Active; 'I' for Inactive)
REMARK    1  A    between atoms: C_1  and  C_2
REMARK    2  A    between atoms: C_2  and  N_3
REMARK    3  A    between atoms: N_3  and  C_4
REMARK    4  A    between atoms: N_3  and  S_10
REMARK    5  A    between atoms: S_10  and  C_13
REMARK    6  A    between atoms: C_16  and  C_19
REMARK    7  A    between atoms: C_19  and  O_21
REMARK    8  A    between atoms: O_21  and  C_22
REMARK    9  A    between atoms: C_22  and  C_24
REMARK   10  A    between atoms: C_22  and  C_25
REMARK                            x       y       z     vdW  Elec       q    Type
REMARK                         _______ _______ _______ _____ _____    ______ ____
ROOT
ATOM      1  C   UNL     1       1.813  -2.379   5.486  0.00  0.00    +0.109 A 
ATOM      2  C   UNL     1       0.445  -2.269   5.313  0.00  0.00    +0.029 A 
ATOM      3  C   UNL     1      -0.077  -2.012   4.063  0.00  0.00    +0.017 A 
ATOM      4  C   UNL     1       0.779  -1.864   2.970  0.00  0.00    +0.059 A 
ATOM      5  C   UNL     1       2.159  -1.982   3.150  0.00  0.00    +0.017 A 
ATOM      6  C   UNL     1       2.667  -2.234   4.407  0.00  0.00    +0.029 A 
ENDROOT
BRANCH   1   7
ATOM      7  S   UNL     1       2.471  -2.708   7.087  0.00  0.00    +0.075 S 
ATOM      8  O   UNL     1       3.808  -2.224   7.085  0.00  0.00    -0.150 OA
ATOM      9  O   UNL     1       1.501  -2.261   8.025  0.00  0.00    -0.150 OA
BRANCH   7  10
ATOM     10  N   UNL     1       2.564  -4.353   7.251  0.00  0.00    -0.203 N 
BRANCH  10  11
ATOM     11  C   UNL     1       1.532  -5.052   7.881  0.00  0.00    +0.051 A 
ATOM     12  C   UNL     1       0.829  -6.029   7.189  0.00  0.00    +0.025 A 
ATOM     13  C   UNL     1      -0.188  -6.721   7.818  0.00  0.00    +0.002 A 
ATOM     14  C   UNL     1      -0.512  -6.435   9.131  0.00  0.00    +0.000 A 
ATOM     15  C   UNL     1       0.183  -5.459   9.821  0.00  0.00    +0.002 A 
ATOM     16  C   UNL     1       1.204  -4.767   9.201  0.00  0.00    +0.025 A 
ENDBRANCH  10  11
BRANCH  10  18
ATOM     17  C   UNL     1       4.748  -5.273   7.858  0.00  0.00    +0.026 C 
ATOM     18  C   UNL     1       3.729  -5.076   6.733  0.00  0.00    +0.128 C 
ENDBRANCH  10  18
ENDBRANCH   7  10
ENDBRANCH   1   7
BRANCH   4  19
ATOM     19  C   UNL     1       0.228  -1.589   1.627  0.00  0.00    +0.340 C 
ATOM     20  O   UNL     1      -0.973  -1.491   1.472  0.00  0.00    -0.245 OA
BRANCH  19  21
ATOM     21  O   UNL     1       1.056  -1.446   0.575  0.00  0.00    -0.449 OA
BRANCH  21  22
ATOM     22  C   UNL     1       0.444  -1.178  -0.715  0.00  0.00    +0.259 C 
ATOM     23  C   UNL     1       0.311   0.334  -0.911  0.00  0.00    +0.062 C 
BRANCH  22  24
ATOM     24  C   UNL     1       1.306  -1.753  -1.809  0.00  0.00    +0.261 C 
ATOM     25  O   UNL     1       2.377  -2.252  -1.538  0.00  0.00    -0.271 OA
ATOM     26  N   UNL     1       0.885  -1.713  -3.089  0.00  0.00    -0.237 N 
ATOM     27  C   UNL     1       1.656  -2.227  -4.068  0.00  0.00    +0.303 C 
ATOM     28  O   UNL     1       2.730  -2.727  -3.797  0.00  0.00    -0.253 OA
ATOM     29  N   UNL     1       1.236  -2.187  -5.348  0.00  0.00    -0.313 N 
ATOM     30  H   UNL     1       0.028  -1.314  -3.306  0.00  0.00    +0.159 HD
ATOM     31  H   UNL     1       0.378  -1.788  -5.564  0.00  0.00    +0.146 HD
ATOM     32  H   UNL     1       1.790  -2.557  -6.052  0.00  0.00    +0.146 HD
ENDBRANCH  22  24
ENDBRANCH  21  22
ENDBRANCH  19  21
ENDBRANCH   4  19
TORSDOF 8
