REMARK  Name = ZINC39609387
REMARK  9 active torsions:
REMARK  status: ('A' for Active; 'I' for Inactive)
REMARK    1  A    between atoms: C_1  and  C_2
REMARK    2  A    between atoms: C_5  and  C_9
REMARK    3  A    between atoms: C_7  and  C_8
REMARK    4  A    between atoms: C_9  and  C_10
REMARK    5  A    between atoms: C_10  and  N_11
REMARK    6  A    between atoms: C_12  and  C_14
REMARK    7  A    between atoms: C_25  and  C_27
REMARK    8  A    between atoms: C_29  and  C_33
REMARK    9  A    between atoms: N_30  and  C_32
REMARK                            x       y       z     vdW  Elec       q    Type
REMARK                         _______ _______ _______ _____ _____    ______ ____
ROOT
ATOM      1  C   UNL     1       2.723  -8.397  -0.059  0.00  0.00    +0.100 C 
ATOM      2  C   UNL     1       1.954  -8.938  -1.285  0.00  0.00    +0.121 C 
ATOM      3  N   UNL     1       3.000  -9.168  -2.310  0.00  0.00    -0.295 N 
ATOM      4  C   UNL     1       4.148  -9.717  -1.550  0.00  0.00    +0.115 C 
ATOM      5  C   UNL     1       4.161  -8.913  -0.234  0.00  0.00    -0.004 C 
ATOM      6  C   UNL     1       5.133  -7.742  -0.342  0.00  0.00    -0.010 C 
ATOM      7  C   UNL     1       6.561  -8.280  -0.459  0.00  0.00    -0.082 C 
ATOM      8  N   UNL     1       6.877  -9.097   0.720  0.00  0.00    +0.379 N 
ATOM      9  C   UNL     1       5.997 -10.271   0.765  0.00  0.00    -0.082 C 
ATOM     10  C   UNL     1       4.544  -9.817   0.933  0.00  0.00    -0.010 C 
ATOM     11  C   UNL     1       2.924  -8.931  -3.635  0.00  0.00    +0.267 C 
ATOM     12  O   UNL     1       3.875  -9.175  -4.351  0.00  0.00    -0.268 OA
ATOM     13  H   UNL     1       7.838  -9.400   0.670  0.00  0.00    -0.086 HD
ATOM     14  H   UNL     1       6.743  -8.546   1.554  0.00  0.00    -0.086 HD
ENDROOT
BRANCH  11  15
ATOM     15  C   UNL     1       1.685  -8.376  -4.216  0.00  0.00    +0.147 A 
ATOM     16  C   UNL     1       1.453  -8.081  -5.580  0.00  0.00    +0.057 A 
ATOM     17  C   UNL     1       0.190  -7.596  -5.637  0.00  0.00    +0.037 A 
ATOM     18  N   UNL     1      -0.298  -7.604  -4.378  0.00  0.00    -0.271 N 
ATOM     19  N   UNL     1       0.582  -8.066  -3.563  0.00  0.00    -0.167 NA
ATOM     20  C   UNL     1      -1.639  -7.156  -3.996  0.00  0.00    +0.172 C 
ATOM     21  C   UNL     1      -0.535  -7.134  -6.874  0.00  0.00    +0.065 C 
ENDBRANCH  11  15
BRANCH   1  23
ATOM     22  N   UNL     1       2.779  -6.222   1.117  0.00  0.00    -0.315 N 
ATOM     23  C   UNL     1       2.703  -6.890  -0.050  0.00  0.00    +0.218 C 
ATOM     24  O   UNL     1       2.619  -6.279  -1.095  0.00  0.00    -0.275 OA
ATOM     25  H   UNL     1       2.845  -6.710   1.953  0.00  0.00    +0.149 HD
BRANCH  22  26
ATOM     26  C   UNL     1       2.760  -4.757   1.126  0.00  0.00    +0.109 C 
BRANCH  26  27
ATOM     27  C   UNL     1       2.857  -4.253   2.567  0.00  0.00    +0.054 C 
BRANCH  27  32
ATOM     28  C   UNL     1       2.783   1.525   2.602  0.00  0.00    +0.044 C 
ATOM     29  C   UNL     1       2.802   0.018   2.593  0.00  0.00    -0.048 A 
ATOM     30  C   UNL     1       1.617  -0.689   2.674  0.00  0.00    +0.004 A 
ATOM     31  C   UNL     1       1.635  -2.071   2.666  0.00  0.00    +0.004 A 
ATOM     32  C   UNL     1       2.838  -2.747   2.575  0.00  0.00    -0.046 A 
ATOM     33  C   UNL     1       4.023  -2.040   2.493  0.00  0.00    +0.007 A 
ATOM     34  C   UNL     1       4.005  -0.657   2.498  0.00  0.00    -0.047 A 
ATOM     35  C   UNL     1       5.296   0.114   2.403  0.00  0.00    +0.044 C 
ENDBRANCH  27  32
ENDBRANCH  26  27
ENDBRANCH  22  26
ENDBRANCH   1  23
TORSDOF 5
