REMARK  Name = ZINC12630920
REMARK  9 active torsions:
REMARK  status: ('A' for Active; 'I' for Inactive)
REMARK    1  A    between atoms: C_1  and  C_2
REMARK    2  A    between atoms: C_2  and  C_4
REMARK    3  A    between atoms: C_2  and  N_15
REMARK    4  A    between atoms: N_6  and  C_7
REMARK    5  A    between atoms: C_7  and  C_13
REMARK    6  A    between atoms: N_15  and  C_16
REMARK    7  A    between atoms: C_19  and  N_22
REMARK    8  A    between atoms: N_22  and  S_23
REMARK    9  A    between atoms: S_23  and  C_26
REMARK                            x       y       z     vdW  Elec       q    Type
REMARK                         _______ _______ _______ _____ _____    ______ ____
ROOT
ATOM      1  C   UNL     1      -0.633   0.788  -2.346  0.00  0.00    +0.028 A 
ATOM      2  C   UNL     1       0.199  -0.318  -2.464  0.00  0.00    +0.025 A 
ATOM      3  C   UNL     1       0.304  -0.976  -3.673  0.00  0.00    +0.026 A 
ATOM      4  C   UNL     1      -0.415  -0.528  -4.773  0.00  0.00    +0.048 A 
ATOM      5  C   UNL     1      -1.243   0.581  -4.656  0.00  0.00    +0.026 A 
ATOM      6  C   UNL     1      -1.351   1.237  -3.446  0.00  0.00    +0.025 A 
ENDROOT
BRANCH   1   7
ATOM      7  N   UNL     1      -0.743   1.454  -1.119  0.00  0.00    -0.333 N 
ATOM      8  H   UNL     1      -1.320   2.229  -1.037  0.00  0.00    +0.147 HD
BRANCH   7  10
ATOM      9  C   UNL     1       1.423   1.578   0.010  0.00  0.00    +0.038 C 
ATOM     10  C   UNL     1       0.015   0.980   0.042  0.00  0.00    +0.154 C 
BRANCH  10  11
ATOM     11  C   UNL     1      -0.684   1.407   1.307  0.00  0.00    +0.234 C 
ATOM     12  O   UNL     1      -1.713   2.045   1.245  0.00  0.00    -0.274 OA
ATOM     13  N   UNL     1      -0.164   1.081   2.507  0.00  0.00    -0.296 N 
ATOM     14  H   UNL     1       0.659   0.571   2.556  0.00  0.00    +0.150 HD
BRANCH  13  15
ATOM     15  C   UNL     1      -0.844   1.496   3.736  0.00  0.00    +0.121 C 
ATOM     16  C   UNL     1      -0.937   3.023   3.777  0.00  0.00    +0.041 C 
ATOM     17  C   UNL     1      -1.647   3.457   5.061  0.00  0.00    +0.003 C 
ATOM     18  C   UNL     1      -0.855   2.962   6.273  0.00  0.00    +0.000 C 
ATOM     19  C   UNL     1      -0.762   1.435   6.233  0.00  0.00    +0.003 C 
ATOM     20  C   UNL     1      -0.052   1.002   4.949  0.00  0.00    +0.041 C 
BRANCH  15  21
ATOM     21  C   UNL     1      -2.198   0.921   3.767  0.00  0.00    +0.088 C 
ATOM     22  N   UNL     1      -3.244   0.477   3.790  0.00  0.00    -0.194 NA
ENDBRANCH  15  21
ENDBRANCH  13  15
ENDBRANCH  10  11
ENDBRANCH   7  10
ENDBRANCH   1   7
BRANCH   4  23
ATOM     23  N   UNL     1      -0.305  -1.193  -6.000  0.00  0.00    -0.216 N 
ATOM     24  H   UNL     1      -1.103  -1.408  -6.508  0.00  0.00    +0.174 HD
BRANCH  23  25
ATOM     25  S   UNL     1       1.187  -1.613  -6.583  0.00  0.00    +0.072 S 
ATOM     26  O   UNL     1       1.843  -2.326  -5.544  0.00  0.00    -0.150 OA
ATOM     27  O   UNL     1       0.976  -2.170  -7.874  0.00  0.00    -0.150 OA
BRANCH  25  28
ATOM     28  C   UNL     1       2.093  -0.121  -6.820  0.00  0.00    +0.112 A 
ATOM     29  C   UNL     1       1.951   0.592  -7.996  0.00  0.00    +0.032 A 
ATOM     30  C   UNL     1       2.656   1.767  -8.187  0.00  0.00    +0.051 A 
ATOM     31  C   UNL     1       3.512   2.222  -7.199  0.00  0.00    +0.162 A 
ATOM     32  C   UNL     1       3.658   1.504  -6.021  0.00  0.00    +0.164 A 
ATOM     33  C   UNL     1       2.947   0.331  -5.831  0.00  0.00    +0.078 A 
ATOM     34  O   UNL     1       4.503   1.962  -5.052  0.00  0.00    -0.488 OA
ATOM     35  C   UNL     1       5.896   1.925  -5.370  0.00  0.00    +0.232 C 
ATOM     36  C   UNL     1       6.303   3.163  -6.155  0.00  0.00    +0.082 C 
ATOM     37  C   UNL     1       5.630   3.232  -7.517  0.00  0.00    +0.232 C 
ATOM     38  O   UNL     1       4.216   3.378  -7.376  0.00  0.00    -0.488 OA
ENDBRANCH  25  28
ENDBRANCH  23  25
ENDBRANCH   4  23
TORSDOF 8
