REMARK  Name = ZINC39682564
REMARK  6 active torsions:
REMARK  status: ('A' for Active; 'I' for Inactive)
REMARK    1  A    between atoms: C_4  and  C_7
REMARK    2  A    between atoms: C_7  and  C_9
REMARK    3  A    between atoms: C_7  and  N_13
REMARK    4  A    between atoms: C_9  and  C_10
REMARK    5  A    between atoms: C_14  and  C_16
REMARK    6  A    between atoms: C_27  and  C_29
REMARK                            x       y       z     vdW  Elec       q    Type
REMARK                         _______ _______ _______ _____ _____    ______ ____
ROOT
ATOM      1  C   UNL     1       4.889  -3.352   1.975  0.00  0.00    +0.100 C 
ATOM      2  C   UNL     1       4.633  -4.591   1.087  0.00  0.00    +0.121 C 
ATOM      3  N   UNL     1       5.984  -5.103   0.760  0.00  0.00    -0.300 N 
ATOM      4  C   UNL     1       6.756  -4.936   2.015  0.00  0.00    +0.115 C 
ATOM      5  C   UNL     1       6.282  -3.584   2.584  0.00  0.00    -0.004 C 
ATOM      6  C   UNL     1       7.236  -2.471   2.162  0.00  0.00    -0.010 C 
ATOM      7  C   UNL     1       8.598  -2.693   2.826  0.00  0.00    -0.082 C 
ATOM      8  N   UNL     1       8.437  -2.700   4.285  0.00  0.00    +0.379 N 
ATOM      9  C   UNL     1       7.593  -3.830   4.691  0.00  0.00    -0.082 C 
ATOM     10  C   UNL     1       6.188  -3.656   4.106  0.00  0.00    -0.010 C 
ATOM     11  C   UNL     1       6.415  -5.606  -0.414  0.00  0.00    +0.219 C 
ATOM     12  O   UNL     1       5.684  -5.599  -1.382  0.00  0.00    -0.275 OA
ATOM     13  H   UNL     1       9.343  -2.785   4.721  0.00  0.00    -0.086 HD
ATOM     14  H   UNL     1       8.006  -1.836   4.578  0.00  0.00    -0.086 HD
ENDROOT
BRANCH  11  15
ATOM     15  C   UNL     1       7.805  -6.178  -0.524  0.00  0.00    +0.079 C 
ATOM     16  C   UNL     1       8.102  -6.534  -1.986  0.00  0.00    +0.017 C 
ATOM     17  C   UNL     1       9.572  -6.942  -2.096  0.00  0.00    +0.027 C 
ATOM     18  C   UNL     1       9.908  -7.955  -1.041  0.00  0.00    -0.031 C 
ATOM     19  C   UNL     1       9.184  -8.175   0.010  0.00  0.00    -0.030 C 
ATOM     20  C   UNL     1       7.905  -7.451   0.319  0.00  0.00    +0.039 C 
ENDBRANCH  11  15
BRANCH   1  22
ATOM     21  N   UNL     1       4.657  -0.903   1.720  0.00  0.00    -0.308 N 
ATOM     22  C   UNL     1       4.884  -2.098   1.140  0.00  0.00    +0.219 C 
ATOM     23  O   UNL     1       5.084  -2.164  -0.055  0.00  0.00    -0.275 OA
ATOM     24  H   UNL     1       4.426  -0.857   2.660  0.00  0.00    +0.149 HD
BRANCH  21  25
ATOM     25  C   UNL     1       4.761   0.326   0.929  0.00  0.00    +0.114 C 
BRANCH  25  29
ATOM     26  C   UNL     1       5.932   3.558   3.466  0.00  0.00    +0.000 A 
ATOM     27  C   UNL     1       6.462   3.450   2.194  0.00  0.00    +0.000 A 
ATOM     28  C   UNL     1       6.083   2.405   1.373  0.00  0.00    +0.005 A 
ATOM     29  C   UNL     1       5.174   1.466   1.824  0.00  0.00    -0.027 A 
ATOM     30  C   UNL     1       4.644   1.573   3.097  0.00  0.00    +0.005 A 
ATOM     31  C   UNL     1       5.022   2.619   3.917  0.00  0.00    +0.000 A 
ENDBRANCH  25  29
BRANCH  25  32
ATOM     32  C   UNL     1       3.403   0.641   0.297  0.00  0.00    +0.152 C 
BRANCH  32  33
ATOM     33  C   UNL     1       3.548   1.807  -0.648  0.00  0.00    +0.358 C 
ATOM     34  O   UNL     1       4.654   2.254  -0.899  0.00  0.00    -0.246 OA
ATOM     35  O   UNL     1       2.559   2.302  -1.161  0.00  0.00    -0.246 OA
ENDBRANCH  32  33
ENDBRANCH  25  32
ENDBRANCH  21  25
ENDBRANCH   1  22
TORSDOF 6
