REMARK  Name = ZINC20528383
REMARK  7 active torsions:
REMARK  status: ('A' for Active; 'I' for Inactive)
REMARK    1  A    between atoms: C_3  and  O_26
REMARK    2  A    between atoms: C_6  and  C_7
REMARK    3  A    between atoms: N_8  and  N_9
REMARK    4  A    between atoms: C_13  and  S_16
REMARK    5  A    between atoms: N_14  and  N_15
REMARK    6  A    between atoms: S_16  and  C_17
REMARK    7  A    between atoms: C_17  and  C_18
REMARK                            x       y       z     vdW  Elec       q    Type
REMARK                         _______ _______ _______ _____ _____    ______ ____
ROOT
ATOM      1  N   UNL     1      -1.170   3.505   0.027  0.00  0.00    -0.204 N 
ATOM      2  C   UNL     1      -2.381   4.182   0.036  0.00  0.00    +0.254 A 
ATOM      3  N   UNL     1      -3.571   3.632   0.033  0.00  0.00    -0.109 NA
ATOM      4  N   UNL     1      -4.523   4.661   0.048  0.00  0.00    -0.119 NA
ATOM      5  C   UNL     1      -3.882   5.806   0.051  0.00  0.00    +0.210 A 
ATOM      6  N   UNL     1      -2.542   5.540   0.044  0.00  0.00    -0.211 N 
ATOM      7  H   UNL     1      -0.225   4.068   0.025  0.00  0.00    +0.177 HD
ENDROOT
BRANCH   6   8
ATOM      8  N   UNL     1      -1.540   6.467   0.044  0.00  0.00    -0.294 N 
ATOM      9  H   UNL     1      -1.783   7.540   0.051  0.00  0.00    +0.163 HD
ATOM     10  H   UNL     1      -0.489   6.142   0.037  0.00  0.00    +0.163 HD
ENDBRANCH   6   8
BRANCH   1  12
ATOM     11  C   UNL     1      -0.018   1.470   0.010  0.00  0.00    +0.138 C 
ATOM     12  N   UNL     1      -1.151   2.104   0.019  0.00  0.00    -0.188 NA
BRANCH  11  18
ATOM     13  C   UNL     1      -1.197  -0.721   0.015  0.00  0.00    +0.013 A 
ATOM     14  C   UNL     1      -1.173  -2.099   0.003  0.00  0.00    +0.046 A 
ATOM     15  C   UNL     1       0.040  -2.775  -0.012  0.00  0.00    +0.117 A 
ATOM     16  C   UNL     1       1.234  -2.067  -0.020  0.00  0.00    +0.046 A 
ATOM     17  C   UNL     1       1.220  -0.688  -0.013  0.00  0.00    +0.013 A 
ATOM     18  C   UNL     1       0.002  -0.004   0.002  0.00  0.00    -0.005 A 
BRANCH  15  19
ATOM     19  O   UNL     1       0.058  -4.134  -0.019  0.00  0.00    -0.507 OA
ATOM     20  H   UNL     1       1.018  -4.671  -0.032  0.00  0.00    +0.292 HD
ENDBRANCH  15  19
ENDBRANCH  11  18
ENDBRANCH   1  12
BRANCH   5  21
ATOM     21  S   UNL     1      -4.620   7.405   0.064  0.00  0.00    -0.080 S 
BRANCH  21  22
ATOM     22  C   UNL     1      -6.402   7.066   0.070  0.00  0.00    +0.112 C 
BRANCH  22  23
ATOM     23  C   UNL     1      -7.162   8.368   0.081  0.00  0.00    -0.036 A 
ATOM     24  C   UNL     1      -7.509   8.955   1.283  0.00  0.00    +0.006 A 
ATOM     25  C   UNL     1      -8.200  10.152   1.294  0.00  0.00    +0.022 A 
ATOM     26  C   UNL     1      -8.555  10.758   0.102  0.00  0.00    +0.059 A 
ATOM     27  C   UNL     1      -8.211  10.167  -1.102  0.00  0.00    +0.060 A 
ATOM     28  C   UNL     1      -7.514   8.972  -1.112  0.00  0.00    +0.026 A 
ATOM     29 CL   UNL     1      -8.655  10.926  -2.599  0.00  0.00    -0.082 Cl
ATOM     30 CL   UNL     1      -9.428  12.258   0.116  0.00  0.00    -0.082 Cl
ENDBRANCH  22  23
ENDBRANCH  21  22
ENDBRANCH   5  21
TORSDOF 7
