REMARK  Name = ZINC01256919
REMARK  11 active torsions:
REMARK  status: ('A' for Active; 'I' for Inactive)
REMARK    1  A    between atoms: C_1  and  C_2
REMARK    2  A    between atoms: C_2  and  C_3
REMARK    3  A    between atoms: C_3  and  C_4
REMARK    4  A    between atoms: C_3  and  C_6
REMARK    5  A    between atoms: C_4  and  C_5
REMARK    6  A    between atoms: C_6  and  O_7
REMARK    7  A    between atoms: O_7  and  C_8
REMARK    8  A    between atoms: C_8  and  C_10
REMARK    9  A    between atoms: N_21  and  C_24
REMARK   10  A    between atoms: C_22  and  N_23
REMARK   11  A    between atoms: C_28  and  O_30
REMARK                            x       y       z     vdW  Elec       q    Type
REMARK                         _______ _______ _______ _____ _____    ______ ____
ROOT
ATOM      1  C   UNL     1       1.079   6.830  -0.852  0.00  0.00    +0.126 A 
ATOM      2  C   UNL     1       0.255   6.826   0.369  0.00  0.00    +0.125 A 
ATOM      3  C   UNL     1       0.304   5.449   0.867  0.00  0.00    +0.167 A 
ATOM      4  N   UNL     1      -0.343   5.136   1.969  0.00  0.00    -0.225 NA
ATOM      5  C   UNL     1      -1.047   6.072   2.618  0.00  0.00    +0.092 A 
ATOM      6  C   UNL     1      -1.748   5.744   3.793  0.00  0.00    +0.030 A 
ATOM      7  C   UNL     1      -2.461   6.701   4.446  0.00  0.00    +0.002 A 
ATOM      8  C   UNL     1      -2.510   8.009   3.968  0.00  0.00    +0.002 A 
ATOM      9  C   UNL     1      -1.847   8.364   2.834  0.00  0.00    +0.030 A 
ATOM     10  C   UNL     1      -1.098   7.402   2.131  0.00  0.00    +0.090 A 
ATOM     11  N   UNL     1      -0.441   7.740   1.015  0.00  0.00    -0.241 NA
ATOM     12  N   UNL     1       1.103   4.733  -0.004  0.00  0.00    -0.280 N 
ATOM     13  C   UNL     1       1.556   5.533  -1.011  0.00  0.00    +0.119 A 
ENDROOT
BRANCH  12  14
ATOM     14  C   UNL     1       1.402   3.371   0.126  0.00  0.00    +0.053 A 
ATOM     15  C   UNL     1       0.391   2.424   0.021  0.00  0.00    +0.026 A 
ATOM     16  C   UNL     1       0.687   1.080   0.144  0.00  0.00    +0.006 A 
ATOM     17  C   UNL     1       1.986   0.675   0.383  0.00  0.00    +0.045 A 
ATOM     18  C   UNL     1       3.000   1.616   0.489  0.00  0.00    +0.119 A 
ATOM     19  C   UNL     1       2.708   2.966   0.361  0.00  0.00    +0.071 A 
BRANCH  18  20
ATOM     20  O   UNL     1       4.279   1.216   0.719  0.00  0.00    -0.507 OA
ATOM     21  H   UNL     1       4.788   1.048  -0.085  0.00  0.00    +0.292 HD
ENDBRANCH  18  20
ENDBRANCH  12  14
BRANCH  13  22
ATOM     22  N   UNL     1       2.365   5.118  -2.035  0.00  0.00    -0.343 N 
ATOM     23  H   UNL     1       2.657   4.194  -2.079  0.00  0.00    +0.144 HD
ATOM     24  H   UNL     1       2.647   5.748  -2.717  0.00  0.00    +0.144 HD
ENDBRANCH  13  22
BRANCH   1  25
ATOM     25  C   UNL     1       1.335   7.937  -1.697  0.00  0.00    +0.345 C 
ATOM     26  O   UNL     1       0.596   8.171  -2.635  0.00  0.00    -0.245 OA
BRANCH  25  27
ATOM     27  O   UNL     1       2.400   8.732  -1.463  0.00  0.00    -0.461 OA
BRANCH  27  28
ATOM     28  C   UNL     1       2.599   9.831  -2.356  0.00  0.00    +0.236 C 
BRANCH  28  29
ATOM     29  C   UNL     1       3.845  10.612  -1.935  0.00  0.00    +0.026 C 
BRANCH  29  31
ATOM     30  C   UNL     1       5.464  12.386  -2.623  0.00  0.00    +0.004 C 
ATOM     31  C   UNL     1       4.150  11.688  -2.979  0.00  0.00    +0.003 C 
ENDBRANCH  29  31
BRANCH  29  32
ATOM     32  C   UNL     1       3.597  11.274  -0.578  0.00  0.00    +0.003 C 
ATOM     33  C   UNL     1       3.451  10.194   0.497  0.00  0.00    +0.004 C 
ENDBRANCH  29  32
ENDBRANCH  28  29
ENDBRANCH  27  28
ENDBRANCH  25  27
ENDBRANCH   1  25
TORSDOF 9
