REMARK  Name = ZINC39664186
REMARK  9 active torsions:
REMARK  status: ('A' for Active; 'I' for Inactive)
REMARK    1  A    between atoms: C_1  and  C_2
REMARK    2  A    between atoms: C_6  and  C_7
REMARK    3  A    between atoms: C_11  and  C_20
REMARK    4  A    between atoms: N_22  and  C_23
REMARK    5  A    between atoms: C_23  and  C_24
REMARK    6  A    between atoms: C_24  and  C_26
REMARK    7  A    between atoms: C_24  and  N_34
REMARK    8  A    between atoms: C_29  and  O_32
REMARK    9  A    between atoms: O_32  and  C_33
REMARK                            x       y       z     vdW  Elec       q    Type
REMARK                         _______ _______ _______ _____ _____    ______ ____
ROOT
ATOM      1  C   UNL     1       1.775  -0.777   7.256  0.00  0.00    +0.254 C 
ATOM      2  O   UNL     1       2.218   0.255   6.788  0.00  0.00    -0.269 OA
ATOM      3  N   UNL     1       1.191  -1.686   6.450  0.00  0.00    -0.296 N 
ATOM      4  C   UNL     1       1.078  -1.650   4.972  0.00  0.00    +0.121 C 
ATOM      5  C   UNL     1       1.304  -3.112   4.528  0.00  0.00    +0.100 C 
ATOM      6  C   UNL     1       0.932  -3.958   5.757  0.00  0.00    -0.004 C 
ATOM      7  C   UNL     1       0.522  -2.950   6.840  0.00  0.00    +0.115 C 
ATOM      8  C   UNL     1       2.138  -4.766   6.228  0.00  0.00    -0.010 C 
ATOM      9  C   UNL     1       1.728  -5.641   7.415  0.00  0.00    -0.082 C 
ATOM     10  N   UNL     1       0.640  -6.540   7.010  0.00  0.00    +0.379 N 
ATOM     11  C   UNL     1      -0.547  -5.756   6.648  0.00  0.00    -0.082 C 
ATOM     12  C   UNL     1      -0.233  -4.885   5.428  0.00  0.00    -0.010 C 
ATOM     13  H   UNL     1       0.936  -7.087   6.216  0.00  0.00    -0.086 HD
ATOM     14  H   UNL     1       0.413  -7.157   7.776  0.00  0.00    -0.086 HD
ENDROOT
BRANCH   1  20
ATOM     15  C   UNL     1       3.323   0.944   9.340  0.00  0.00    +0.045 C 
ATOM     16  C   UNL     1       2.548  -0.306   9.667  0.00  0.00    -0.031 A 
ATOM     17  C   UNL     1       2.457  -0.795  10.948  0.00  0.00    +0.011 A 
ATOM     18  C   UNL     1       1.743  -1.925  11.172  0.00  0.00    +0.046 A 
ATOM     19  S   UNL     1       1.172  -2.361   9.653  0.00  0.00    -0.092 S 
ATOM     20  C   UNL     1       1.877  -1.033   8.695  0.00  0.00    +0.077 A 
ENDBRANCH   1  20
BRANCH   5  21
ATOM     21  C   UNL     1       2.749  -3.330   4.156  0.00  0.00    +0.218 C 
ATOM     22  O   UNL     1       3.624  -2.736   4.750  0.00  0.00    -0.275 OA
ATOM     23  N   UNL     1       3.067  -4.184   3.163  0.00  0.00    -0.316 N 
ATOM     24  H   UNL     1       2.368  -4.659   2.689  0.00  0.00    +0.149 HD
BRANCH  23  25
ATOM     25  C   UNL     1       4.471  -4.396   2.802  0.00  0.00    +0.093 C 
BRANCH  25  26
ATOM     26  C   UNL     1       4.565  -5.497   1.744  0.00  0.00    -0.020 C 
BRANCH  26  27
ATOM     27  C   UNL     1       4.075  -6.797   2.329  0.00  0.00    -0.059 A 
ATOM     28  C   UNL     1       4.907  -7.546   3.141  0.00  0.00    +0.005 A 
ATOM     29  C   UNL     1       4.461  -8.738   3.677  0.00  0.00    +0.046 A 
ATOM     30  C   UNL     1       3.177  -9.184   3.401  0.00  0.00    +0.120 A 
ATOM     31  C   UNL     1       2.344  -8.431   2.586  0.00  0.00    +0.046 A 
ATOM     32  C   UNL     1       2.793  -7.237   2.056  0.00  0.00    +0.005 A 
BRANCH  30  33
ATOM     33  O   UNL     1       2.736 -10.357   3.927  0.00  0.00    -0.495 OA
ATOM     34  C   UNL     1       1.402 -10.754   3.599  0.00  0.00    +0.277 C 
ENDBRANCH  30  33
ENDBRANCH  26  27
BRANCH  26  35
ATOM     35  N   UNL     1       5.963  -5.648   1.317  0.00  0.00    +0.385 N 
ATOM     36  C   UNL     1       6.049  -6.589   0.171  0.00  0.00    -0.078 C 
ATOM     37  C   UNL     1       7.397  -6.215  -0.494  0.00  0.00    -0.020 C 
ATOM     38  C   UNL     1       7.440  -4.676  -0.347  0.00  0.00    -0.020 C 
ATOM     39  C   UNL     1       6.486  -4.357   0.819  0.00  0.00    -0.078 C 
ATOM     40  H   UNL     1       6.528  -5.980   2.084  0.00  0.00    -0.081 HD
ENDBRANCH  26  35
ENDBRANCH  25  26
ENDBRANCH  23  25
ENDBRANCH   5  21
TORSDOF 7
