REMARK  Name = ZINC40973467
REMARK  8 active torsions:
REMARK  status: ('A' for Active; 'I' for Inactive)
REMARK    1  A    between atoms: C_1  and  C_2
REMARK    2  A    between atoms: C_2  and  C_3
REMARK    3  A    between atoms: C_3  and  C_5
REMARK    4  A    between atoms: C_3  and  N_28
REMARK    5  A    between atoms: C_12  and  C_21
REMARK    6  A    between atoms: C_13  and  C_14
REMARK    7  A    between atoms: N_28  and  C_29
REMARK    8  A    between atoms: N_28  and  C_30
REMARK                            x       y       z     vdW  Elec       q    Type
REMARK                         _______ _______ _______ _____ _____    ______ ____
ROOT
ATOM      1  C   UNL     1       0.613  -2.067  -1.706  0.00  0.00    -0.056 A 
ATOM      2  C   UNL     1       0.965  -2.982  -0.702  0.00  0.00    +0.020 A 
ATOM      3  C   UNL     1       0.816  -4.308  -0.908  0.00  0.00    +0.093 A 
ATOM      4  N   UNL     1       0.323  -4.776  -2.089  0.00  0.00    -0.297 N 
ATOM      5  C   UNL     1      -0.030  -3.909  -3.089  0.00  0.00    +0.139 A 
ATOM      6  C   UNL     1       0.115  -2.522  -2.888  0.00  0.00    +0.048 A 
ATOM      7  N   UNL     1      -0.476  -4.610  -4.125  0.00  0.00    -0.227 NA
ATOM      8  C   UNL     1      -0.429  -5.914  -3.838  0.00  0.00    +0.099 A 
ATOM      9  C   UNL     1       0.075  -6.051  -2.550  0.00  0.00    +0.100 A 
ENDROOT
BRANCH   9  10
ATOM     10  C   UNL     1       0.300  -7.309  -1.821  0.00  0.00    +0.095 A 
ATOM     11  C   UNL     1       1.250  -7.377  -0.791  0.00  0.00    +0.050 A 
ATOM     12  C   UNL     1       1.425  -8.579  -0.137  0.00  0.00    +0.116 A 
ATOM     13  N   UNL     1       0.697  -9.627  -0.497  0.00  0.00    -0.223 NA
ATOM     14  C   UNL     1      -0.195  -9.537  -1.474  0.00  0.00    +0.213 A 
ATOM     15  N   UNL     1      -0.401  -8.405  -2.126  0.00  0.00    -0.213 NA
ATOM     16  N   UNL     1      -0.933 -10.657  -1.817  0.00  0.00    -0.327 N 
ATOM     17  H   UNL     1      -0.795 -11.492  -1.345  0.00  0.00    +0.145 HD
ATOM     18  H   UNL     1      -1.589 -10.605  -2.530  0.00  0.00    +0.145 HD
ENDBRANCH   9  10
BRANCH   8  19
ATOM     19  C   UNL     1      -0.842  -7.019  -4.735  0.00  0.00    +0.003 A 
ATOM     20  C   UNL     1      -0.155  -8.232  -4.712  0.00  0.00    +0.013 A 
ATOM     21  C   UNL     1      -0.543  -9.258  -5.548  0.00  0.00    +0.039 A 
ATOM     22  C   UNL     1      -1.613  -9.085  -6.410  0.00  0.00    +0.123 A 
ATOM     23  C   UNL     1      -2.299  -7.881  -6.437  0.00  0.00    +0.039 A 
ATOM     24  C   UNL     1      -1.922  -6.851  -5.601  0.00  0.00    +0.013 A 
ATOM     25  F   UNL     1      -1.989 -10.092  -7.228  0.00  0.00    -0.205 F 
ENDBRANCH   8  19
BRANCH   1  26
ATOM     26  C   UNL     1       0.780  -0.587  -1.474  0.00  0.00    -0.038 C 
BRANCH  26  27
ATOM     27  N   UNL     1       2.171  -0.304  -1.095  0.00  0.00    +0.381 N 
ATOM     28  C   UNL     1       3.076  -0.822  -2.130  0.00  0.00    -0.096 C 
ATOM     29  C   UNL     1       2.357   1.147  -0.963  0.00  0.00    -0.096 C 
ATOM     30  H   UNL     1       2.377  -0.752  -0.214  0.00  0.00    -0.082 HD
ENDBRANCH  26  27
BRANCH  26  32
ATOM     31  C   UNL     1      -1.609  -0.320  -0.794  0.00  0.00    +0.002 C 
ATOM     32  C   UNL     1      -0.156  -0.138  -0.351  0.00  0.00    -0.014 C 
ENDBRANCH  26  32
ENDBRANCH   1  26
TORSDOF 5
