REMARK  Name = ZINC12850767
REMARK  9 active torsions:
REMARK  status: ('A' for Active; 'I' for Inactive)
REMARK    1  A    between atoms: C_1  and  C_2
REMARK    2  A    between atoms: C_2  and  C_3
REMARK    3  A    between atoms: C_3  and  C_5
REMARK    4  A    between atoms: C_3  and  N_6
REMARK    5  A    between atoms: C_7  and  C_9
REMARK    6  A    between atoms: C_13  and  C_24
REMARK    7  A    between atoms: C_16  and  C_20
REMARK    8  A    between atoms: C_27  and  O_30
REMARK    9  A    between atoms: O_30  and  C_31
REMARK                            x       y       z     vdW  Elec       q    Type
REMARK                         _______ _______ _______ _____ _____    ______ ____
ROOT
ATOM      1  C   UNL     1       4.269   0.353  -2.298  0.00  0.00    +0.128 C 
ATOM      2  C   UNL     1       4.999   0.502  -1.164  0.00  0.00    +0.109 C 
ATOM      3  C   UNL     1       6.375   0.792  -1.569  0.00  0.00    +0.154 C 
ATOM      4  N   UNL     1       7.430   1.021  -0.839  0.00  0.00    -0.259 NA
ATOM      5  C   UNL     1       8.703   1.327  -1.502  0.00  0.00    +0.139 C 
ATOM      6  C   UNL     1       8.800   0.596  -2.842  0.00  0.00    +0.065 C 
ATOM      7  C   UNL     1       7.616   0.994  -3.737  0.00  0.00    +0.202 C 
ATOM      8  N   UNL     1       6.392   0.778  -2.958  0.00  0.00    -0.224 N 
ATOM      9  N   UNL     1       5.098   0.523  -3.398  0.00  0.00    -0.256 N 
ATOM     10 CL   UNL     1       4.410   0.374   0.464  0.00  0.00    -0.078 Cl
ATOM     11  H   UNL     1       4.819   0.474  -4.326  0.00  0.00    +0.170 HD
ENDROOT
BRANCH   5  12
ATOM     12  C   UNL     1       8.796   2.812  -1.740  0.00  0.00    -0.023 A 
ATOM     13  C   UNL     1       7.677   3.518  -2.141  0.00  0.00    +0.009 A 
ATOM     14  C   UNL     1       7.760   4.880  -2.360  0.00  0.00    +0.046 A 
ATOM     15  C   UNL     1       8.967   5.538  -2.175  0.00  0.00    +0.120 A 
ATOM     16  C   UNL     1      10.088   4.828  -1.772  0.00  0.00    +0.046 A 
ATOM     17  C   UNL     1       9.999   3.467  -1.550  0.00  0.00    +0.009 A 
BRANCH  15  18
ATOM     18  O   UNL     1       9.051   6.878  -2.390  0.00  0.00    -0.495 OA
ATOM     19  C   UNL     1      10.325   7.490  -2.181  0.00  0.00    +0.277 C 
ENDBRANCH  15  18
ENDBRANCH   5  12
BRANCH   1  21
ATOM     20  N   UNL     1       2.228  -0.176  -3.540  0.00  0.00    -0.308 N 
ATOM     21  C   UNL     1       2.824   0.051  -2.353  0.00  0.00    +0.261 C 
ATOM     22  O   UNL     1       2.173   0.009  -1.327  0.00  0.00    -0.269 OA
ATOM     23  H   UNL     1       2.730  -0.070  -4.363  0.00  0.00    +0.149 HD
BRANCH  20  24
ATOM     24  C   UNL     1       0.822  -0.584  -3.587  0.00  0.00    +0.070 C 
ATOM     25  C   UNL     1      -0.071   0.658  -3.543  0.00  0.00    +0.028 C 
BRANCH  24  27
ATOM     26  C   UNL     1       1.357  -2.661  -4.869  0.00  0.00    +0.005 C 
ATOM     27  C   UNL     1       0.557  -1.356  -4.881  0.00  0.00    +0.018 C 
ENDBRANCH  24  27
ENDBRANCH  20  24
ENDBRANCH   1  21
BRANCH   7  28
ATOM     28  C   UNL     1       7.596   0.121  -4.994  0.00  0.00    +0.410 C 
ATOM     29  F   UNL     1       7.465  -1.222  -4.626  0.00  0.00    -0.169 F 
ATOM     30  F   UNL     1       6.515   0.491  -5.801  0.00  0.00    -0.169 F 
ATOM     31  F   UNL     1       8.789   0.297  -5.702  0.00  0.00    -0.169 F 
ENDBRANCH   7  28
TORSDOF 6
