REMARK  Name = ZINC11937951
REMARK  8 active torsions:
REMARK  status: ('A' for Active; 'I' for Inactive)
REMARK    1  A    between atoms: C_1  and  C_2
REMARK    2  A    between atoms: C_2  and  C_3
REMARK    3  A    between atoms: C_6  and  C_9
REMARK    4  A    between atoms: C_9  and  N_10
REMARK    5  A    between atoms: C_11  and  C_13
REMARK    6  A    between atoms: C_13  and  C_14
REMARK    7  A    between atoms: C_21  and  C_22
REMARK    8  A    between atoms: C_21  and  N_59
REMARK                            x       y       z     vdW  Elec       q    Type
REMARK                         _______ _______ _______ _____ _____    ______ ____
ROOT
ATOM      1  C   UNL     1       2.804   2.110  -1.997  0.00  0.00    +0.028 C 
ATOM      2  C   UNL     1       3.055   1.913  -3.465  0.00  0.00    +0.200 C 
ATOM      3  O   UNL     1       2.439   1.046  -4.048  0.00  0.00    -0.278 OA
ATOM      4  N   UNL     1       3.929   2.652  -4.156  0.00  0.00    -0.318 N 
ATOM      5  C   UNL     1       4.745   3.696  -3.542  0.00  0.00    +0.085 C 
ATOM      6  C   UNL     1       4.148   4.102  -2.193  0.00  0.00    -0.058 C 
ATOM      7  H   UNL     1       4.024   2.489  -5.107  0.00  0.00    +0.149 HD
ATOM      8  N   UNL     1       3.918   2.874  -1.406  0.00  0.00    +0.391 N 
ATOM      9  H   UNL     1       4.768   2.299  -1.426  0.00  0.00    -0.080 HD
ENDROOT
BRANCH   1  10
ATOM     10  C   UNL     1       2.716   0.746  -1.309  0.00  0.00    +0.089 C 
BRANCH  10  12
ATOM     11  N   UNL     1       4.231  -1.141  -0.802  0.00  0.00    -0.310 N 
ATOM     12  C   UNL     1       4.042   0.040  -1.422  0.00  0.00    +0.212 C 
ATOM     13  O   UNL     1       4.939   0.535  -2.071  0.00  0.00    -0.276 OA
ATOM     14  H   UNL     1       3.514  -1.537  -0.282  0.00  0.00    +0.149 HD
BRANCH  11  15
ATOM     15  C   UNL     1       5.521  -1.828  -0.911  0.00  0.00    +0.159 C 
BRANCH  15  19
ATOM     16  C   UNL     1       5.391  -5.427   1.302  0.00  0.00    -0.030 A 
ATOM     17  C   UNL     1       5.116  -5.477  -0.057  0.00  0.00    +0.007 A 
ATOM     18  C   UNL     1       5.159  -4.297  -0.782  0.00  0.00    +0.025 A 
ATOM     19  C   UNL     1       5.471  -3.117  -0.133  0.00  0.00    +0.058 A 
ATOM     20  N   UNL     1       5.732  -3.108   1.160  0.00  0.00    -0.258 NA
ATOM     21  C   UNL     1       5.696  -4.211   1.883  0.00  0.00    +0.114 A 
BRANCH  16  23
ATOM     22  C   UNL     1       6.746  -7.327   2.140  0.00  0.00    +0.009 C 
ATOM     23  C   UNL     1       5.359  -6.683   2.134  0.00  0.00    +0.033 C 
ENDBRANCH  16  23
ENDBRANCH  15  19
ENDBRANCH  11  15
ENDBRANCH  10  12
ENDBRANCH   1  10
BRANCH   8  24
ATOM     24  C   UNL     1       3.605   3.222  -0.001  0.00  0.00    -0.041 C 
BRANCH  24  25
ATOM     25  C   UNL     1       4.754   4.005   0.580  0.00  0.00    -0.056 A 
ATOM     26  C   UNL     1       5.757   3.362   1.238  0.00  0.00    +0.002 A 
ATOM     27  C   UNL     1       6.827   4.069   1.782  0.00  0.00    +0.001 A 
ATOM     28  C   UNL     1       6.902   5.423   1.671  0.00  0.00    +0.008 A 
ATOM     29  C   UNL     1       5.885   6.122   0.998  0.00  0.00    -0.018 A 
ATOM     30  C   UNL     1       4.796   5.403   0.445  0.00  0.00    -0.017 A 
ATOM     31  C   UNL     1       3.779   6.103  -0.227  0.00  0.00    +0.009 A 
ATOM     32  C   UNL     1       3.853   7.457  -0.338  0.00  0.00    +0.001 A 
ATOM     33  C   UNL     1       4.926   8.164   0.202  0.00  0.00    +0.001 A 
ATOM     34  C   UNL     1       5.927   7.521   0.864  0.00  0.00    +0.008 A 
ENDBRANCH  24  25
ENDBRANCH   8  24
TORSDOF 7
