REMARK  Name = ZINC48943867
REMARK  6 active torsions:
REMARK  status: ('A' for Active; 'I' for Inactive)
REMARK    1  A    between atoms: C_1  and  C_2
REMARK    2  A    between atoms: C_6  and  C_22
REMARK    3  A    between atoms: C_8  and  N_11
REMARK    4  A    between atoms: C_12  and  C_14
REMARK    5  A    between atoms: C_22  and  C_23
REMARK    6  A    between atoms: C_22  and  C_24
REMARK                            x       y       z     vdW  Elec       q    Type
REMARK                         _______ _______ _______ _____ _____    ______ ____
ROOT
ATOM      1  N   UNL     1       2.763  -0.519   2.499  0.00  0.00    -0.312 N 
ATOM      2  C   UNL     1       2.509   0.086   3.676  0.00  0.00    +0.218 C 
ATOM      3  O   UNL     1       1.777   1.053   3.716  0.00  0.00    -0.275 OA
ATOM      4  H   UNL     1       3.348  -1.292   2.467  0.00  0.00    +0.149 HD
ENDROOT
BRANCH   1  10
ATOM      5  C   UNL     1       0.055   1.507  -0.102  0.00  0.00    +0.007 C 
ATOM      6  C   UNL     1       0.095  -0.022  -0.147  0.00  0.00    -0.012 C 
ATOM      7  C   UNL     1       0.924  -0.474  -1.351  0.00  0.00    +0.004 C 
ATOM      8  C   UNL     1       2.348   0.070  -1.222  0.00  0.00    +0.006 C 
ATOM      9  C   UNL     1       2.984  -0.462   0.064  0.00  0.00    +0.012 C 
ATOM     10  C   UNL     1       2.155  -0.009   1.267  0.00  0.00    +0.077 C 
ATOM     11  C   UNL     1       0.730  -0.554   1.139  0.00  0.00    +0.025 C 
BRANCH   9  12
ATOM     12  C   UNL     1       4.408   0.082   0.192  0.00  0.00    -0.012 C 
ATOM     13  C   UNL     1       5.276  -0.490  -0.931  0.00  0.00    +0.007 C 
ATOM     14  C   UNL     1       4.382   1.608   0.089  0.00  0.00    +0.007 C 
ENDBRANCH   9  12
ENDBRANCH   1  10
BRANCH   2  15
ATOM     15  C   UNL     1       3.135  -0.437   4.943  0.00  0.00    +0.097 C 
ATOM     16  C   UNL     1       2.668  -1.881   5.194  0.00  0.00    +0.037 C 
ATOM     17  C   UNL     1       3.039  -2.312   6.634  0.00  0.00    +0.166 C 
ATOM     18  S   UNL     1       3.040  -0.715   7.546  0.00  0.00    -0.030 S 
ATOM     19  O   UNL     1       1.943  -0.698   8.449  0.00  0.00    -0.174 OA
ATOM     20  O   UNL     1       4.350  -0.462   8.033  0.00  0.00    -0.174 OA
ATOM     21  C   UNL     1       2.685   0.434   6.151  0.00  0.00    +0.178 C 
ENDBRANCH   2  15
TORSDOF 3
