REMARK  Name = ZINC57250571
REMARK  9 active torsions:
REMARK  status: ('A' for Active; 'I' for Inactive)
REMARK    1  A    between atoms: C_1  and  C_2
REMARK    2  A    between atoms: C_5  and  C_29
REMARK    3  A    between atoms: N_6  and  C_7
REMARK    4  A    between atoms: C_10  and  C_13
REMARK    5  A    between atoms: C_13  and  N_14
REMARK    6  A    between atoms: C_15  and  C_17
REMARK    7  A    between atoms: C_17  and  C_18
REMARK    8  A    between atoms: C_18  and  C_20
REMARK    9  A    between atoms: C_18  and  N_25
REMARK                            x       y       z     vdW  Elec       q    Type
REMARK                         _______ _______ _______ _____ _____    ______ ____
ROOT
ATOM      1  N   UNL     1      -0.557   2.286   6.579  0.00  0.00    -0.311 N 
ATOM      2  C   UNL     1      -0.659   2.909   7.770  0.00  0.00    +0.215 C 
ATOM      3  O   UNL     1      -0.249   2.367   8.774  0.00  0.00    -0.276 OA
ATOM      4  H   UNL     1      -0.885   2.720   5.776  0.00  0.00    +0.149 HD
ENDROOT
BRANCH   1   5
ATOM      5  C   UNL     1       0.050   0.956   6.498  0.00  0.00    +0.139 C 
BRANCH   5   9
ATOM      6  C   UNL     1       0.030  -0.375   2.436  0.00  0.00    +0.047 A 
ATOM      7  C   UNL     1       1.111   0.344   2.928  0.00  0.00    +0.026 A 
ATOM      8  C   UNL     1       1.115   0.773   4.240  0.00  0.00    +0.007 A 
ATOM      9  C   UNL     1       0.043   0.487   5.066  0.00  0.00    -0.030 A 
ATOM     10  C   UNL     1      -1.036  -0.229   4.579  0.00  0.00    +0.007 A 
ATOM     11  C   UNL     1      -1.047  -0.656   3.265  0.00  0.00    +0.026 A 
BRANCH   6  17
ATOM     12  C   UNL     1      -0.018   1.503   0.010  0.00  0.00    +0.064 C 
ATOM     13  C   UNL     1       0.002  -0.004   0.002  0.00  0.00    +0.021 A 
ATOM     14  C   UNL     1       0.008  -0.789  -1.095  0.00  0.00    +0.023 A 
ATOM     15  C   UNL     1       0.029  -2.128  -0.656  0.00  0.00    +0.023 A 
ATOM     16  C   UNL     1       0.035  -2.113   0.692  0.00  0.00    +0.021 A 
ATOM     17  N   UNL     1       0.024  -0.811   1.104  0.00  0.00    -0.318 N 
ATOM     18  C   UNL     1       0.055  -3.323   1.589  0.00  0.00    +0.064 C 
ENDBRANCH   6  17
ENDBRANCH   5   9
ENDBRANCH   1   5
BRANCH   2  19
ATOM     19  C   UNL     1      -1.284   4.278   7.854  0.00  0.00    +0.123 C 
BRANCH  19  20
ATOM     20  C   UNL     1      -1.276   4.754   9.308  0.00  0.00    +0.120 C 
BRANCH  20  21
ATOM     21  N   UNL     1      -2.140   3.884  10.110  0.00  0.00    -0.292 N 
ATOM     22  C   UNL     1      -1.928   3.761  11.435  0.00  0.00    +0.298 C 
ATOM     23  O   UNL     1      -1.019   4.371  11.965  0.00  0.00    -0.253 OA
ATOM     24  N   UNL     1      -2.722   2.961  12.174  0.00  0.00    -0.313 N 
ATOM     25  H   UNL     1      -2.865   3.398   9.688  0.00  0.00    +0.151 HD
ATOM     26  H   UNL     1      -3.447   2.474  11.752  0.00  0.00    +0.146 HD
ATOM     27  H   UNL     1      -2.569   2.872  13.127  0.00  0.00    +0.146 HD
ENDBRANCH  20  21
BRANCH  20  28
ATOM     28  C   UNL     1      -1.787   6.170   9.375  0.00  0.00    +0.010 A 
ATOM     29  C   UNL     1      -1.086   7.327   9.469  0.00  0.00    +0.013 A 
ATOM     30  C   UNL     1      -1.774   8.525   9.516  0.00  0.00    +0.008 A 
ATOM     31  C   UNL     1      -3.128   8.508   9.468  0.00  0.00    +0.045 A 
ATOM     32  S   UNL     1      -3.472   6.760   9.345  0.00  0.00    -0.100 S 
ENDBRANCH  20  28
ENDBRANCH  19  20
ENDBRANCH   2  19
TORSDOF 7
