REMARK  Name = ZINC64773624
REMARK  9 active torsions:
REMARK  status: ('A' for Active; 'I' for Inactive)
REMARK    1  A    between atoms: C_1  and  O_2
REMARK    2  A    between atoms: O_2  and  C_3
REMARK    3  A    between atoms: C_5  and  C_14
REMARK    4  A    between atoms: C_8  and  O_9
REMARK    5  A    between atoms: O_9  and  C_10
REMARK    6  A    between atoms: C_10  and  C_11
REMARK    7  A    between atoms: C_22  and  S_28
REMARK    8  A    between atoms: S_28  and  C_29
REMARK    9  A    between atoms: C_29  and  C_30
REMARK                            x       y       z     vdW  Elec       q    Type
REMARK                         _______ _______ _______ _____ _____    ______ ____
ROOT
ATOM      1  C   UNL     1       2.403   0.379  -4.230  0.00  0.00    +0.047 C 
ATOM      2  C   UNL     1       3.917   0.154  -4.260  0.00  0.00    +0.105 C 
ATOM      3  C   UNL     1       4.248  -1.205  -4.801  0.00  0.00    +0.219 C 
ATOM      4  O   UNL     1       5.340  -1.669  -4.556  0.00  0.00    -0.275 OA
ATOM      5  N   UNL     1       3.401  -1.936  -5.540  0.00  0.00    -0.273 N 
ATOM      6  C   UNL     1       2.129  -1.502  -5.785  0.00  0.00    +0.117 C 
ATOM      7  N   UNL     1       1.205  -2.334  -6.170  0.00  0.00    -0.212 NA
ATOM      8  C   UNL     1      -0.075  -1.966  -6.308  0.00  0.00    +0.182 C 
ATOM      9  N   UNL     1      -0.492  -0.741  -6.019  0.00  0.00    -0.154 NA
ATOM     10  C   UNL     1       0.352   0.212  -5.649  0.00  0.00    +0.249 C 
ATOM     11  O   UNL     1      -0.080   1.310  -5.356  0.00  0.00    -0.273 OA
ATOM     12  C   UNL     1       1.826  -0.038  -5.586  0.00  0.00    +0.148 C 
ATOM     13  H   UNL     1       3.696  -2.784  -5.907  0.00  0.00    +0.156 HD
ENDROOT
BRANCH   1  16
ATOM     14  C   UNL     1       0.338  -0.646  -1.237  0.00  0.00    +0.162 A 
ATOM     15  C   UNL     1       0.905   0.121  -2.242  0.00  0.00    +0.053 A 
ATOM     16  C   UNL     1       1.787  -0.456  -3.137  0.00  0.00    -0.039 A 
ATOM     17  C   UNL     1       2.105  -1.797  -3.032  0.00  0.00    +0.008 A 
ATOM     18  C   UNL     1       1.542  -2.568  -2.031  0.00  0.00    +0.050 A 
ATOM     19  C   UNL     1       0.662  -1.995  -1.127  0.00  0.00    +0.163 A 
BRANCH  14  21
ATOM     20  C   UNL     1      -0.816   1.309  -0.529  0.00  0.00    +0.277 C 
ATOM     21  O   UNL     1      -0.529  -0.080  -0.355  0.00  0.00    -0.491 OA
ENDBRANCH  14  21
BRANCH  19  22
ATOM     22  O   UNL     1       0.113  -2.750  -0.139  0.00  0.00    -0.479 OA
BRANCH  22  23
ATOM     23  C   UNL     1       0.492  -4.127  -0.088  0.00  0.00    +0.324 C 
BRANCH  23  24
ATOM     24  C   UNL     1      -0.211  -4.799   1.063  0.00  0.00    +0.248 C 
ATOM     25  O   UNL     1      -0.963  -4.161   1.770  0.00  0.00    -0.272 OA
ATOM     26  N   UNL     1      -0.005  -6.108   1.307  0.00  0.00    -0.327 N 
ATOM     27  H   UNL     1       0.596  -6.618   0.742  0.00  0.00    +0.145 HD
ATOM     28  H   UNL     1      -0.458  -6.541   2.048  0.00  0.00    +0.145 HD
ENDBRANCH  23  24
ENDBRANCH  22  23
ENDBRANCH  19  22
ENDBRANCH   1  16
BRANCH   8  29
ATOM     29  S   UNL     1      -1.244  -3.148  -6.891  0.00  0.00    -0.084 S 
BRANCH  29  30
ATOM     30  C   UNL     1      -2.812  -2.237  -6.921  0.00  0.00    +0.112 C 
BRANCH  30  31
ATOM     31  C   UNL     1      -3.912  -3.145  -7.409  0.00  0.00    -0.037 A 
ATOM     32  C   UNL     1      -4.193  -3.225  -8.760  0.00  0.00    +0.007 A 
ATOM     33  C   UNL     1      -5.201  -4.058  -9.208  0.00  0.00    +0.038 A 
ATOM     34  C   UNL     1      -5.929  -4.812  -8.303  0.00  0.00    +0.123 A 
ATOM     35  C   UNL     1      -5.646  -4.731  -6.950  0.00  0.00    +0.038 A 
ATOM     36  C   UNL     1      -4.635  -3.901  -6.505  0.00  0.00    +0.007 A 
ATOM     37  F   UNL     1      -6.915  -5.626  -8.740  0.00  0.00    -0.205 F 
ENDBRANCH  30  31
ENDBRANCH  29  30
ENDBRANCH   8  29
TORSDOF 8
