REMARK  Name = ZINC37367927
REMARK  4 active torsions:
REMARK  status: ('A' for Active; 'I' for Inactive)
REMARK    1  A    between atoms: C_1  and  C_2
REMARK    2  A    between atoms: C_7  and  N_8
REMARK    3  A    between atoms: N_8  and  C_9
REMARK    4  A    between atoms: C_14  and  N_15
REMARK                            x       y       z     vdW  Elec       q    Type
REMARK                         _______ _______ _______ _____ _____    ______ ____
ROOT
ATOM      1  C   UNL     1      -0.046  -0.770   3.596  0.00  0.00    +0.054 A 
ATOM      2  C   UNL     1      -0.014  -2.155   3.538  0.00  0.00    +0.052 A 
ATOM      3  C   UNL     1      -0.085  -2.897   4.706  0.00  0.00    +0.078 A 
ATOM      4  C   UNL     1      -0.189  -2.253   5.938  0.00  0.00    +0.144 A 
ATOM      5  C   UNL     1      -0.221  -0.871   5.997  0.00  0.00    +0.072 A 
ATOM      6  C   UNL     1      -0.144  -0.126   4.829  0.00  0.00    +0.050 A 
ATOM      7  O   UNL     1      -0.260  -2.996   7.077  0.00  0.00    -0.481 OA
ATOM      8  C   UNL     1      -0.924  -4.258   6.980  0.00  0.00    +0.325 C 
ATOM      9  C   UNL     1      -0.436  -4.995   5.759  0.00  0.00    +0.255 C 
ATOM     10  O   UNL     1      -0.389  -6.207   5.757  0.00  0.00    -0.272 OA
ATOM     11  N   UNL     1      -0.053  -4.300   4.666  0.00  0.00    -0.280 N 
ATOM     12  H   UNL     1       0.241  -4.763   3.866  0.00  0.00    +0.155 HD
ENDROOT
BRANCH   6  13
ATOM     13  N   UNL     1      -0.170   1.274   4.888  0.00  0.00    -0.356 N 
ATOM     14  H   UNL     1      -0.120   1.795   4.071  0.00  0.00    +0.142 HD
ATOM     15  H   UNL     1      -0.238   1.722   5.745  0.00  0.00    +0.142 HD
ENDBRANCH   6  13
BRANCH   1  16
ATOM     16  N   UNL     1       0.025  -0.016   2.415  0.00  0.00    -0.313 N 
ATOM     17  H   UNL     1      -0.081   0.948   2.448  0.00  0.00    +0.152 HD
BRANCH  16  24
ATOM     18  C   UNL     1      -1.526   0.801   0.174  0.00  0.00    +0.045 C 
ATOM     19  C   UNL     1      -0.487  -0.286   0.072  0.00  0.00    -0.029 A 
ATOM     20  C   UNL     1      -0.261  -0.915  -1.137  0.00  0.00    +0.006 A 
ATOM     21  C   UNL     1       0.692  -1.912  -1.232  0.00  0.00    +0.015 A 
ATOM     22  C   UNL     1       1.423  -2.284  -0.116  0.00  0.00    +0.020 A 
ATOM     23  C   UNL     1       1.201  -1.659   1.096  0.00  0.00    +0.038 A 
ATOM     24  C   UNL     1       0.248  -0.653   1.193  0.00  0.00    +0.035 A 
ATOM     25 BR   UNL     1       2.724  -3.649  -0.252  0.00  0.00    -0.050 Br
ENDBRANCH  16  24
ENDBRANCH   1  16
TORSDOF 3
