REMARK  Name = ZINC36524251
REMARK  12 active torsions:
REMARK  status: ('A' for Active; 'I' for Inactive)
REMARK    1  A    between atoms: C_1  and  C_2
REMARK    2  A    between atoms: C_2  and  C_3
REMARK    3  A    between atoms: C_3  and  C_4
REMARK    4  A    between atoms: C_4  and  N_5
REMARK    5  A    between atoms: C_6  and  C_8
REMARK    6  A    between atoms: C_8  and  C_10
REMARK    7  A    between atoms: C_8  and  N_19
REMARK    8  A    between atoms: C_11  and  O_18
REMARK    9  A    between atoms: C_13  and  O_17
REMARK   10  A    between atoms: C_15  and  O_16
REMARK   11  A    between atoms: N_19  and  C_20
REMARK   12  A    between atoms: C_21  and  C_23
REMARK                            x       y       z     vdW  Elec       q    Type
REMARK                         _______ _______ _______ _____ _____    ______ ____
ROOT
ATOM      1  C   UNL     1       2.574  -4.011   4.722  0.00  0.00    +0.199 C 
ENDROOT
BRANCH   1   2
ATOM      2  C   UNL     1       3.018  -3.207   5.917  0.00  0.00    +0.065 A 
ATOM      3  C   UNL     1       4.215  -3.509   6.550  0.00  0.00    +0.129 A 
ATOM      4  C   UNL     1       4.623  -2.769   7.650  0.00  0.00    +0.091 A 
ATOM      5  C   UNL     1       3.836  -1.728   8.116  0.00  0.00    +0.124 A 
ATOM      6  C   UNL     1       2.639  -1.425   7.483  0.00  0.00    +0.091 A 
ATOM      7  C   UNL     1       2.233  -2.162   6.381  0.00  0.00    +0.129 A 
BRANCH   7   8
ATOM      8  O   UNL     1       1.063  -1.863   5.757  0.00  0.00    -0.506 OA
ATOM      9  H   UNL     1       0.297  -2.335   6.111  0.00  0.00    +0.292 HD
ENDBRANCH   7   8
BRANCH   5  10
ATOM     10  O   UNL     1       4.235  -1.004   9.194  0.00  0.00    -0.507 OA
ATOM     11  H   UNL     1       4.776  -0.233   8.972  0.00  0.00    +0.292 HD
ENDBRANCH   5  10
BRANCH   3  12
ATOM     12  O   UNL     1       4.986  -4.530   6.093  0.00  0.00    -0.506 OA
ATOM     13  H   UNL     1       5.687  -4.252   5.487  0.00  0.00    +0.292 HD
ENDBRANCH   3  12
ENDBRANCH   1   2
BRANCH   1  15
ATOM     14  N   UNL     1       4.214  -2.970   3.190  0.00  0.00    -0.313 N 
ATOM     15  C   UNL     1       3.702  -4.096   3.727  0.00  0.00    +0.238 C 
ATOM     16  O   UNL     1       4.150  -5.177   3.409  0.00  0.00    -0.273 OA
ATOM     17  H   UNL     1       3.856  -2.106   3.445  0.00  0.00    +0.149 HD
BRANCH  14  18
ATOM     18  C   UNL     1       5.310  -3.053   2.223  0.00  0.00    +0.104 C 
BRANCH  18  19
ATOM     19  C   UNL     1       5.701  -1.644   1.773  0.00  0.00    +0.018 C 
BRANCH  19  21
ATOM     20  C   UNL     1       7.237  -0.321   0.312  0.00  0.00    +0.004 C 
ATOM     21  C   UNL     1       6.846  -1.730   0.762  0.00  0.00    -0.002 C 
ENDBRANCH  19  21
ENDBRANCH  18  19
ENDBRANCH  14  18
ENDBRANCH   1  15
BRANCH   1  22
ATOM     22  N   UNL     1       2.200  -5.360   5.153  0.00  0.00    -0.289 N 
ATOM     23  C   UNL     1       3.222  -6.273   5.671  0.00  0.00    +0.133 C 
ATOM     24  C   UNL     1       0.916  -5.762   5.073  0.00  0.00    +0.219 C 
ATOM     25  O   UNL     1       0.087  -5.043   4.557  0.00  0.00    -0.275 OA
BRANCH  24  26
ATOM     26  C   UNL     1       0.511  -7.105   5.624  0.00  0.00    +0.075 C 
ATOM     27  C   UNL     1       0.232  -8.067   4.467  0.00  0.00    +0.013 C 
ATOM     28  C   UNL     1      -0.180  -9.431   5.027  0.00  0.00    +0.001 C 
ATOM     29  C   UNL     1      -1.443  -9.273   5.875  0.00  0.00    +0.000 C 
ATOM     30  C   UNL     1      -1.165  -8.311   7.031  0.00  0.00    +0.001 C 
ATOM     31  C   UNL     1      -0.753  -6.947   6.472  0.00  0.00    +0.013 C 
ENDBRANCH  24  26
ENDBRANCH   1  22
TORSDOF 10
