REMARK  Name = ZINC12708355
REMARK  7 active torsions:
REMARK  status: ('A' for Active; 'I' for Inactive)
REMARK    1  A    between atoms: C_1  and  N_2
REMARK    2  A    between atoms: C_4  and  C_7
REMARK    3  A    between atoms: C_7  and  N_8
REMARK    4  A    between atoms: C_9  and  C_11
REMARK    5  A    between atoms: C_11  and  C_12
REMARK    6  A    between atoms: C_19  and  C_20
REMARK    7  A    between atoms: C_19  and  N_54
REMARK                            x       y       z     vdW  Elec       q    Type
REMARK                         _______ _______ _______ _____ _____    ______ ____
ROOT
ATOM      1  C   UNL     1      -2.991  -5.917   3.837  0.00  0.00    +0.028 C 
ATOM      2  C   UNL     1      -4.440  -6.256   4.039  0.00  0.00    +0.200 C 
ATOM      3  O   UNL     1      -5.199  -6.149   3.099  0.00  0.00    -0.278 OA
ATOM      4  N   UNL     1      -4.929  -6.672   5.212  0.00  0.00    -0.318 N 
ATOM      5  C   UNL     1      -4.109  -6.801   6.413  0.00  0.00    +0.085 C 
ATOM      6  C   UNL     1      -2.627  -6.842   6.034  0.00  0.00    -0.058 C 
ATOM      7  H   UNL     1      -5.871  -6.899   5.268  0.00  0.00    +0.149 HD
ATOM      8  N   UNL     1      -2.350  -5.695   5.147  0.00  0.00    +0.391 N 
ATOM      9  H   UNL     1      -2.737  -4.843   5.569  0.00  0.00    -0.080 HD
ENDROOT
BRANCH   1  10
ATOM     10  C   UNL     1      -2.880  -4.637   3.006  0.00  0.00    +0.089 C 
BRANCH  10  12
ATOM     11  N   UNL     1      -3.611  -2.281   3.183  0.00  0.00    -0.311 N 
ATOM     12  C   UNL     1      -3.493  -3.490   3.767  0.00  0.00    +0.212 C 
ATOM     13  O   UNL     1      -3.879  -3.654   4.904  0.00  0.00    -0.276 OA
ATOM     14  H   UNL     1      -3.302  -2.149   2.272  0.00  0.00    +0.149 HD
BRANCH  11  15
ATOM     15  C   UNL     1      -4.207  -1.165   3.922  0.00  0.00    +0.142 C 
BRANCH  15  19
ATOM     16  C   UNL     1      -5.632   2.342   0.637  0.00  0.00    +0.172 C 
ATOM     17  N   UNL     1      -4.848   1.589   1.619  0.00  0.00    -0.274 N 
ATOM     18  C   UNL     1      -5.218   0.435   2.214  0.00  0.00    +0.113 A 
ATOM     19  C   UNL     1      -4.221   0.065   3.051  0.00  0.00    +0.007 A 
ATOM     20  C   UNL     1      -3.207   1.024   2.964  0.00  0.00    +0.139 A 
ATOM     21  N   UNL     1      -3.579   1.935   2.102  0.00  0.00    -0.180 NA
ENDBRANCH  15  19
ENDBRANCH  11  15
ENDBRANCH  10  12
ENDBRANCH   1  10
BRANCH   8  22
ATOM     22  C   UNL     1      -0.889  -5.527   4.974  0.00  0.00    -0.041 C 
BRANCH  22  23
ATOM     23  C   UNL     1      -0.240  -5.430   6.331  0.00  0.00    -0.056 A 
ATOM     24  C   UNL     1      -0.045  -4.214   6.911  0.00  0.00    +0.002 A 
ATOM     25  C   UNL     1       0.552  -4.105   8.165  0.00  0.00    +0.001 A 
ATOM     26  C   UNL     1       0.959  -5.211   8.846  0.00  0.00    +0.008 A 
ATOM     27  C   UNL     1       0.775  -6.483   8.279  0.00  0.00    -0.018 A 
ATOM     28  C   UNL     1       0.162  -6.595   7.006  0.00  0.00    -0.017 A 
ATOM     29  C   UNL     1      -0.017  -7.867   6.437  0.00  0.00    +0.009 A 
ATOM     30  C   UNL     1       0.391  -8.973   7.118  0.00  0.00    +0.001 A 
ATOM     31  C   UNL     1       0.989  -8.864   8.372  0.00  0.00    +0.001 A 
ATOM     32  C   UNL     1       1.183  -7.648   8.952  0.00  0.00    +0.008 A 
ENDBRANCH  22  23
ENDBRANCH   8  22
TORSDOF 6
