REMARK  Name = ZINC39637333
REMARK  6 active torsions:
REMARK  status: ('A' for Active; 'I' for Inactive)
REMARK    1  A    between atoms: C_1  and  C_2
REMARK    2  A    between atoms: C_7  and  N_12
REMARK    3  A    between atoms: C_9  and  C_11
REMARK    4  A    between atoms: C_13  and  C_15
REMARK    5  A    between atoms: C_26  and  C_28
REMARK    6  A    between atoms: C_34  and  C_36
REMARK                            x       y       z     vdW  Elec       q    Type
REMARK                         _______ _______ _______ _____ _____    ______ ____
ROOT
ATOM      1  C   UNL     1       2.785  -4.239   3.627  0.00  0.00    +0.100 C 
ATOM      2  C   UNL     1       4.061  -3.403   3.871  0.00  0.00    +0.121 C 
ATOM      3  N   UNL     1       5.065  -4.383   4.351  0.00  0.00    -0.300 N 
ATOM      4  C   UNL     1       4.825  -5.591   3.525  0.00  0.00    +0.115 C 
ATOM      5  C   UNL     1       3.290  -5.674   3.400  0.00  0.00    -0.004 C 
ATOM      6  C   UNL     1       2.901  -6.157   2.006  0.00  0.00    -0.010 C 
ATOM      7  C   UNL     1       3.363  -7.606   1.825  0.00  0.00    -0.082 C 
ATOM      8  N   UNL     1       2.739  -8.452   2.849  0.00  0.00    +0.379 N 
ATOM      9  C   UNL     1       3.192  -8.039   4.183  0.00  0.00    -0.082 C 
ATOM     10  C   UNL     1       2.723  -6.609   4.464  0.00  0.00    -0.010 C 
ATOM     11  C   UNL     1       5.987  -4.214   5.319  0.00  0.00    +0.219 C 
ATOM     12  O   UNL     1       6.744  -5.118   5.600  0.00  0.00    -0.275 OA
ATOM     13  H   UNL     1       1.736  -8.361   2.793  0.00  0.00    -0.086 HD
ATOM     14  H   UNL     1       2.997  -9.414   2.691  0.00  0.00    -0.086 HD
ENDROOT
BRANCH  11  15
ATOM     15  C   UNL     1       6.076  -2.901   6.053  0.00  0.00    +0.078 C 
ATOM     16  C   UNL     1       6.375  -1.778   5.057  0.00  0.00    +0.032 C 
ATOM     17  C   UNL     1       6.431  -0.441   5.802  0.00  0.00    +0.108 C 
ATOM     18  N   UNL     1       7.404  -0.550   6.897  0.00  0.00    -0.302 N 
ATOM     19  C   UNL     1       7.262  -1.650   7.861  0.00  0.00    +0.108 C 
ATOM     20  C   UNL     1       7.197  -2.974   7.093  0.00  0.00    +0.032 C 
ATOM     21  C   UNL     1       8.408   0.341   7.015  0.00  0.00    +0.212 C 
ATOM     22  O   UNL     1       8.515   1.244   6.212  0.00  0.00    -0.276 OA
ATOM     23  C   UNL     1       9.399   0.216   8.144  0.00  0.00    +0.109 C 
ENDBRANCH  11  15
BRANCH   1  25
ATOM     24  N   UNL     1       0.719  -3.878   2.316  0.00  0.00    -0.312 N 
ATOM     25  C   UNL     1       2.056  -3.740   2.406  0.00  0.00    +0.218 C 
ATOM     26  O   UNL     1       2.674  -3.214   1.504  0.00  0.00    -0.275 OA
ATOM     27  H   UNL     1       0.225  -4.299   3.038  0.00  0.00    +0.149 HD
BRANCH  24  33
ATOM     28  C   UNL     1      -3.638  -2.271   0.618  0.00  0.00    +0.008 C 
ATOM     29  C   UNL     1      -2.184  -2.579   0.254  0.00  0.00    -0.009 C 
ATOM     30  C   UNL     1      -2.147  -3.652  -0.836  0.00  0.00    +0.003 C 
ATOM     31  C   UNL     1      -0.693  -3.959  -1.200  0.00  0.00    +0.002 C 
ATOM     32  C   UNL     1       0.047  -4.466   0.039  0.00  0.00    +0.022 C 
ATOM     33  C   UNL     1       0.010  -3.393   1.129  0.00  0.00    +0.076 C 
ATOM     34  C   UNL     1      -1.444  -3.086   1.494  0.00  0.00    +0.009 C 
ATOM     35  C   UNL     1      -2.121  -4.358   2.007  0.00  0.00    +0.009 C 
ENDBRANCH  24  33
ENDBRANCH   1  25
TORSDOF 3
