REMARK  Name = ZINC01408226
REMARK  2 active torsions:
REMARK  status: ('A' for Active; 'I' for Inactive)
REMARK    1  A    between atoms: C_4  and  C_22
REMARK    2  A    between atoms: C_5  and  C_7
REMARK                            x       y       z     vdW  Elec       q    Type
REMARK                         _______ _______ _______ _____ _____    ______ ____
ROOT
ATOM      1  C   UNL     1       1.570  -2.159   0.094  0.00  0.00    +0.209 C 
ATOM      2  N   UNL     1       0.383  -2.839  -0.457  0.00  0.00    -0.294 N 
ATOM      3  C   UNL     1      -0.720  -2.991   0.370  0.00  0.00    +0.159 C 
ATOM      4  N   UNL     1      -0.484  -3.563   1.621  0.00  0.00    -0.259 N 
ATOM      5  C   UNL     1       0.745  -3.247   2.194  0.00  0.00    +0.205 A 
ATOM      6  N   UNL     1       1.730  -2.592   1.487  0.00  0.00    -0.288 N 
ATOM      7  C   UNL     1       2.800  -2.448   2.322  0.00  0.00    +0.072 A 
ATOM      8  C   UNL     1       4.059  -1.881   2.158  0.00  0.00    +0.028 A 
ATOM      9  C   UNL     1       4.913  -1.913   3.249  0.00  0.00    +0.002 A 
ATOM     10  C   UNL     1       4.542  -2.481   4.455  0.00  0.00    +0.002 A 
ATOM     11  C   UNL     1       3.296  -3.052   4.644  0.00  0.00    +0.030 A 
ATOM     12  C   UNL     1       2.417  -3.032   3.556  0.00  0.00    +0.091 A 
ATOM     13  N   UNL     1       1.156  -3.495   3.408  0.00  0.00    -0.214 NA
ATOM     14  N   UNL     1      -1.913  -2.619  -0.001  0.00  0.00    -0.375 N 
ATOM     15  H   UNL     1      -1.130  -4.139   2.059  0.00  0.00    +0.158 HD
ATOM     16  H   UNL     1      -2.047  -2.224  -0.877  0.00  0.00    +0.158 HD
ATOM     17  H   UNL     1       0.374  -3.170  -1.369  0.00  0.00    +0.151 HD
ATOM     18  H   UNL     1      -2.666  -2.737   0.599  0.00  0.00    +0.158 HD
ENDROOT
BRANCH   1  23
ATOM     19  C   UNL     1       0.825   1.391   1.139  0.00  0.00    +0.000 A 
ATOM     20  C   UNL     1       1.006   2.072  -0.051  0.00  0.00    +0.001 A 
ATOM     21  C   UNL     1       1.369   1.384  -1.193  0.00  0.00    +0.013 A 
ATOM     22  C   UNL     1       1.551   0.014  -1.146  0.00  0.00    +0.062 A 
ATOM     23  C   UNL     1       1.372  -0.666   0.043  0.00  0.00    +0.005 A 
ATOM     24  C   UNL     1       1.007   0.022   1.185  0.00  0.00    +0.008 A 
BRANCH  22  25
ATOM     25  C   UNL     1       1.946  -0.736  -2.392  0.00  0.00    +0.418 C 
ATOM     26  F   UNL     1       2.137   0.169  -3.441  0.00  0.00    -0.166 F 
ATOM     27  F   UNL     1       3.134  -1.436  -2.158  0.00  0.00    -0.166 F 
ATOM     28  F   UNL     1       0.932  -1.639  -2.733  0.00  0.00    -0.166 F 
ENDBRANCH  22  25
ENDBRANCH   1  23
TORSDOF 2
