REMARK  Name = ZINC41025997
REMARK  7 active torsions:
REMARK  status: ('A' for Active; 'I' for Inactive)
REMARK    1  A    between atoms: C_1  and  C_2
REMARK    2  A    between atoms: C_2  and  C_3
REMARK    3  A    between atoms: C_3  and  C_5
REMARK    4  A    between atoms: C_3  and  N_6
REMARK    5  A    between atoms: N_13  and  C_16
REMARK    6  A    between atoms: N_22  and  C_23
REMARK    7  A    between atoms: C_24  and  C_32
REMARK                            x       y       z     vdW  Elec       q    Type
REMARK                         _______ _______ _______ _____ _____    ______ ____
ROOT
ATOM      1  N   UNL     1      -0.055  -0.114  -2.441  0.00  0.00    -0.311 N 
ATOM      2  C   UNL     1       0.578   0.032  -3.663  0.00  0.00    +0.219 A 
ATOM      3  N   UNL     1       1.885  -0.188  -3.736  0.00  0.00    -0.199 NA
ATOM      4  C   UNL     1       2.539  -0.062  -4.885  0.00  0.00    +0.139 A 
ATOM      5  C   UNL     1       1.813   0.311  -6.033  0.00  0.00    +0.079 A 
ATOM      6  C   UNL     1       2.147   0.538  -7.386  0.00  0.00    +0.148 A 
ATOM      7  N   UNL     1       1.064   0.869  -8.031  0.00  0.00    -0.172 NA
ATOM      8  N   UNL     1      -0.025   0.878  -7.150  0.00  0.00    -0.214 N 
ATOM      9  C   UNL     1       0.428   0.534  -5.908  0.00  0.00    +0.170 A 
ATOM     10  N   UNL     1      -0.143   0.379  -4.715  0.00  0.00    -0.195 NA
ATOM     11  N   UNL     1       3.901  -0.292  -4.952  0.00  0.00    -0.293 N 
ATOM     12  H   UNL     1      -1.010   0.038  -2.368  0.00  0.00    +0.149 HD
ATOM     13  H   UNL     1       4.367  -0.197  -5.797  0.00  0.00    +0.154 HD
ENDROOT
BRANCH  11  14
ATOM     14  C   UNL     1       4.598  -0.657  -3.814  0.00  0.00    +0.083 A 
ATOM     15  C   UNL     1       5.954  -0.920  -3.692  0.00  0.00    +0.068 A 
ATOM     16  C   UNL     1       6.443  -1.288  -2.374  0.00  0.00    -0.023 A 
ATOM     17  C   UNL     1       5.488  -1.326  -1.421  0.00  0.00    -0.004 A 
ATOM     18  S   UNL     1       3.997  -0.877  -2.261  0.00  0.00    -0.077 S 
ATOM     19  C   UNL     1       5.673  -1.670   0.025  0.00  0.00    +0.043 C 
ATOM     20  C   UNL     1       7.045  -2.341   0.189  0.00  0.00    +0.005 C 
ATOM     21  C   UNL     1       8.098  -1.501  -0.539  0.00  0.00    +0.005 C 
ATOM     22  C   UNL     1       7.895  -1.610  -2.052  0.00  0.00    +0.037 C 
BRANCH  15  23
ATOM     23  C   UNL     1       6.856  -0.831  -4.844  0.00  0.00    +0.244 C 
ATOM     24  O   UNL     1       7.408   0.222  -5.105  0.00  0.00    -0.270 OA
ATOM     25  N   UNL     1       7.073  -1.915  -5.615  0.00  0.00    -0.325 N 
ATOM     26  H   UNL     1       6.633  -2.755  -5.407  0.00  0.00    +0.145 HD
ATOM     27  H   UNL     1       7.670  -1.857  -6.377  0.00  0.00    +0.145 HD
ENDBRANCH  15  23
ENDBRANCH  11  14
BRANCH   8  28
ATOM     28  C   UNL     1      -1.349   1.187  -7.485  0.00  0.00    +0.068 A 
ATOM     29  C   UNL     1      -2.398   0.531  -6.853  0.00  0.00    +0.028 A 
ATOM     30  C   UNL     1      -3.702   0.839  -7.185  0.00  0.00    +0.002 A 
ATOM     31  C   UNL     1      -3.965   1.798  -8.146  0.00  0.00    +0.000 A 
ATOM     32  C   UNL     1      -2.923   2.452  -8.777  0.00  0.00    +0.002 A 
ATOM     33  C   UNL     1      -1.616   2.154  -8.445  0.00  0.00    +0.028 A 
ENDBRANCH   8  28
BRANCH   1  34
ATOM     34  C   UNL     1       0.718  -0.497  -1.257  0.00  0.00    +0.070 C 
ATOM     35  C   UNL     1       0.849  -2.021  -1.205  0.00  0.00    +0.028 C 
BRANCH  34  37
ATOM     36  C   UNL     1      -0.019   1.526   0.010  0.00  0.00    +0.005 C 
ATOM     37  C   UNL     1       0.002  -0.004   0.002  0.00  0.00    +0.018 C 
ENDBRANCH  34  37
ENDBRANCH   1  34
TORSDOF 5
