REMARK  Name = ZINC09648256
REMARK  6 active torsions:
REMARK  status: ('A' for Active; 'I' for Inactive)
REMARK    1  A    between atoms: C_1  and  O_2
REMARK    2  A    between atoms: O_2  and  C_3
REMARK    3  A    between atoms: C_8  and  C_9
REMARK    4  A    between atoms: C_9  and  N_10
REMARK    5  A    between atoms: N_17  and  C_20
REMARK    6  A    between atoms: N_26  and  C_27
REMARK                            x       y       z     vdW  Elec       q    Type
REMARK                         _______ _______ _______ _____ _____    ______ ____
ROOT
ATOM      1  N   UNL     1      -4.754   5.159  -0.130  0.00  0.00    -0.309 N 
ATOM      2  C   UNL     1      -3.583   5.896  -0.140  0.00  0.00    +0.219 A 
ATOM      3  N   UNL     1      -2.423   5.255  -0.054  0.00  0.00    -0.199 NA
ATOM      4  C   UNL     1      -1.272   5.915  -0.061  0.00  0.00    +0.139 A 
ATOM      5  C   UNL     1      -1.303   7.321  -0.155  0.00  0.00    +0.079 A 
ATOM      6  C   UNL     1      -0.321   8.335  -0.185  0.00  0.00    +0.148 A 
ATOM      7  N   UNL     1      -0.919   9.488  -0.284  0.00  0.00    -0.172 NA
ATOM      8  N   UNL     1      -2.306   9.298  -0.336  0.00  0.00    -0.214 N 
ATOM      9  C   UNL     1      -2.556   7.958  -0.250  0.00  0.00    +0.170 A 
ATOM     10  N   UNL     1      -3.660   7.213  -0.236  0.00  0.00    -0.195 NA
ATOM     11  N   UNL     1      -0.069   5.240   0.029  0.00  0.00    -0.299 N 
ATOM     12  H   UNL     1      -5.611   5.610  -0.191  0.00  0.00    +0.149 HD
ATOM     13  H   UNL     1       0.761   5.736   0.108  0.00  0.00    +0.154 HD
ENDROOT
BRANCH   8  14
ATOM     14  C   UNL     1      -3.270  10.308  -0.442  0.00  0.00    +0.068 A 
ATOM     15  C   UNL     1      -4.435  10.085  -1.164  0.00  0.00    +0.028 A 
ATOM     16  C   UNL     1      -5.387  11.081  -1.262  0.00  0.00    +0.002 A 
ATOM     17  C   UNL     1      -5.175  12.304  -0.651  0.00  0.00    +0.000 A 
ATOM     18  C   UNL     1      -4.013  12.531   0.064  0.00  0.00    +0.002 A 
ATOM     19  C   UNL     1      -3.060  11.537   0.170  0.00  0.00    +0.028 A 
ENDBRANCH   8  14
BRANCH  11  20
ATOM     20  C   UNL     1      -0.049   3.843   0.005  0.00  0.00    +0.032 A 
ATOM     21  C   UNL     1       0.910   3.148   0.732  0.00  0.00    +0.023 A 
ATOM     22  C   UNL     1       0.927   1.768   0.706  0.00  0.00    +0.002 A 
ATOM     23  C   UNL     1      -0.008   1.076  -0.042  0.00  0.00    +0.000 A 
ATOM     24  C   UNL     1      -0.960   1.765  -0.771  0.00  0.00    +0.002 A 
ATOM     25  C   UNL     1      -0.987   3.145  -0.745  0.00  0.00    +0.023 A 
ENDBRANCH  11  20
BRANCH   1  26
ATOM     26  C   UNL     1      -4.700   3.699  -0.025  0.00  0.00    +0.143 C 
BRANCH  26  32
ATOM     27  C   UNL     1      -6.780   2.996  -1.234  0.00  0.00    +0.125 A 
ATOM     28  C   UNL     1      -8.069   2.483  -1.240  0.00  0.00    +0.046 A 
ATOM     29  C   UNL     1      -8.672   2.119  -0.052  0.00  0.00    +0.004 A 
ATOM     30  C   UNL     1      -7.992   2.265   1.143  0.00  0.00    +0.001 A 
ATOM     31  C   UNL     1      -6.705   2.772   1.151  0.00  0.00    +0.009 A 
ATOM     32  C   UNL     1      -6.100   3.142  -0.035  0.00  0.00    +0.011 A 
BRANCH  27  34
ATOM     33  C   UNL     1      -6.945   3.176  -3.599  0.00  0.00    +0.277 C 
ATOM     34  O   UNL     1      -6.185   3.355  -2.402  0.00  0.00    -0.495 OA
ENDBRANCH  27  34
ENDBRANCH  26  32
ENDBRANCH   1  26
TORSDOF 5
