REMARK  Name = ZINC22701291
REMARK  10 active torsions:
REMARK  status: ('A' for Active; 'I' for Inactive)
REMARK    1  A    between atoms: C_1  and  C_2
REMARK    2  A    between atoms: C_4  and  C_31
REMARK    3  A    between atoms: N_8  and  N_9
REMARK    4  A    between atoms: C_10  and  C_12
REMARK    5  A    between atoms: C_12  and  C_14
REMARK    6  A    between atoms: C_12  and  N_17
REMARK    7  A    between atoms: C_14  and  C_15
REMARK    8  A    between atoms: C_14  and  C_16
REMARK    9  A    between atoms: N_17  and  S_18
REMARK   10  A    between atoms: S_18  and  C_21
REMARK                            x       y       z     vdW  Elec       q    Type
REMARK                         _______ _______ _______ _____ _____    ______ ____
ROOT
ATOM      1  C   UNL     1      -0.034   8.037  -2.592  0.00  0.00    +0.166 C 
ENDROOT
BRANCH   1   3
ATOM      2  N   UNL     1      -1.039   9.101  -4.586  0.00  0.00    -0.233 N 
ATOM      3  C   UNL     1      -0.041   9.079  -3.681  0.00  0.00    +0.248 C 
ATOM      4  O   UNL     1       0.851   9.898  -3.742  0.00  0.00    -0.273 OA
ATOM      5  H   UNL     1      -1.801   8.308  -4.584  0.00  0.00    +0.173 HD
BRANCH   2  13
ATOM      6  C   UNL     1      -5.063   8.086  -7.292  0.00  0.00    +0.066 C 
ATOM      7  C   UNL     1      -4.032   9.185  -7.318  0.00  0.00    +0.044 A 
ATOM      8  C   UNL     1      -4.113  10.200  -8.259  0.00  0.00    +0.046 A 
ATOM      9  C   UNL     1      -3.144  11.192  -8.248  0.00  0.00    +0.044 A 
ATOM     10  N   UNL     1      -2.178  11.141  -7.346  0.00  0.00    -0.219 NA
ATOM     11  C   UNL     1      -2.130  10.156  -6.460  0.00  0.00    +0.232 A 
ATOM     12  N   UNL     1      -3.037   9.191  -6.447  0.00  0.00    -0.219 NA
ATOM     13  N   UNL     1      -1.105  10.134  -5.530  0.00  0.00    -0.232 N 
ATOM     14  C   UNL     1      -3.192  12.315  -9.252  0.00  0.00    +0.066 C 
ATOM     15  H   UNL     1      -0.343  10.927  -5.533  0.00  0.00    +0.173 HD
ENDBRANCH   2  13
ENDBRANCH   1   3
BRANCH   1  16
ATOM     16  C   UNL     1       0.605   6.751  -3.122  0.00  0.00    +0.010 C 
ATOM     17  C   UNL     1      -0.271   6.165  -4.231  0.00  0.00    +0.009 C 
ATOM     18  C   UNL     1       1.994   7.065  -3.682  0.00  0.00    +0.009 C 
ENDBRANCH   1  16
BRANCH   1  19
ATOM     19  N   UNL     1       0.738   8.530  -1.449  0.00  0.00    -0.178 NA
ATOM     20  H   UNL     1       1.709   9.021  -1.611  0.00  0.00    +0.149 HD
BRANCH  19  21
ATOM     21  S   UNL     1       0.278   8.135   0.092  0.00  0.00    +0.059 S 
ATOM     22  O   UNL     1      -1.115   8.404   0.182  0.00  0.00    -0.153 OA
ATOM     23  O   UNL     1       1.226   8.733   0.965  0.00  0.00    -0.153 OA
BRANCH  21  24
ATOM     24  C   UNL     1       0.466   6.392   0.262  0.00  0.00    +0.106 A 
ATOM     25  C   UNL     1       1.680   5.873   0.710  0.00  0.00    +0.029 A 
ATOM     26  C   UNL     1       1.858   4.531   0.852  0.00  0.00    +0.010 A 
ATOM     27  C   UNL     1       0.805   3.653   0.543  0.00  0.00    -0.018 A 
ATOM     28  C   UNL     1       0.952   2.262   0.677  0.00  0.00    +0.008 A 
ATOM     29  C   UNL     1      -0.089   1.442   0.368  0.00  0.00    +0.001 A 
ATOM     30  C   UNL     1      -1.301   1.960  -0.084  0.00  0.00    +0.001 A 
ATOM     31  C   UNL     1      -1.482   3.302  -0.221  0.00  0.00    +0.008 A 
ATOM     32  C   UNL     1      -0.429   4.181   0.088  0.00  0.00    -0.016 A 
ATOM     33  C   UNL     1      -0.576   5.572  -0.046  0.00  0.00    +0.037 A 
ENDBRANCH  21  24
ENDBRANCH  19  21
ENDBRANCH   1  19
TORSDOF 6
