REMARK  Name = ZINC26580555
REMARK  10 active torsions:
REMARK  status: ('A' for Active; 'I' for Inactive)
REMARK    1  A    between atoms: C_3  and  C_6
REMARK    2  A    between atoms: N_8  and  C_9
REMARK    3  A    between atoms: C_9  and  C_19
REMARK    4  A    between atoms: C_10  and  C_11
REMARK    5  A    between atoms: N_21  and  C_22
REMARK    6  A    between atoms: C_22  and  C_23
REMARK    7  A    between atoms: C_23  and  N_24
REMARK    8  A    between atoms: N_24  and  C_25
REMARK    9  A    between atoms: C_25  and  C_26
REMARK   10  A    between atoms: C_26  and  O_27
REMARK                            x       y       z     vdW  Elec       q    Type
REMARK                         _______ _______ _______ _____ _____    ______ ____
ROOT
ATOM      1  C   UNL     1       2.388   5.290  -0.095  0.00  0.00    +0.097 C 
ATOM      2  C   UNL     1       2.427   3.959   0.150  0.00  0.00    +0.038 C 
ENDROOT
BRANCH   2   3
ATOM      3  C   UNL     1       1.208   3.253   0.570  0.00  0.00    -0.005 A 
ATOM      4  C   UNL     1       0.122   3.969   1.085  0.00  0.00    +0.011 A 
ATOM      5  C   UNL     1      -1.017   3.300   1.476  0.00  0.00    +0.020 A 
ATOM      6  C   UNL     1      -1.092   1.922   1.356  0.00  0.00    +0.042 A 
ATOM      7  C   UNL     1      -0.020   1.204   0.853  0.00  0.00    +0.040 A 
ATOM      8  C   UNL     1       1.128   1.860   0.456  0.00  0.00    +0.050 A 
ATOM      9 CL   UNL     1       2.469   0.960  -0.180  0.00  0.00    -0.083 Cl
ATOM     10 CL   UNL     1      -2.535   1.089   1.845  0.00  0.00    -0.083 Cl
ENDBRANCH   2   3
BRANCH   1  13
ATOM     11  C   UNL     1       0.987   7.014   0.753  0.00  0.00    +0.284 C 
ATOM     12  O   UNL     1       1.854   7.309   1.555  0.00  0.00    -0.266 OA
ATOM     13  N   UNL     1       1.165   5.968  -0.078  0.00  0.00    -0.275 N 
ATOM     14  H   UNL     1       0.349   5.648  -0.743  0.00  0.00    +0.155 HD
BRANCH  11  17
ATOM     15  C   UNL     1      -1.813   9.339   1.037  0.00  0.00    +0.042 A 
ATOM     16  C   UNL     1      -0.523   8.928   1.405  0.00  0.00    +0.054 A 
ATOM     17  C   UNL     1      -0.252   7.796   0.692  0.00  0.00    +0.189 A 
ATOM     18  O   UNL     1      -1.323   7.525  -0.083  0.00  0.00    -0.458 OA
ATOM     19  C   UNL     1      -2.269   8.450   0.126  0.00  0.00    +0.196 A 
ENDBRANCH  11  17
ENDBRANCH   1  13
BRANCH   1  20
ATOM     20  C   UNL     1       3.630   6.022  -0.380  0.00  0.00    +0.258 C 
ATOM     21  O   UNL     1       4.694   5.431  -0.395  0.00  0.00    -0.269 OA
ATOM     22  N   UNL     1       3.591   7.346  -0.624  0.00  0.00    -0.312 N 
ATOM     23  H   UNL     1       2.629   7.880  -0.610  0.00  0.00    +0.149 HD
BRANCH  22  24
ATOM     24  C   UNL     1       4.830   8.076  -0.907  0.00  0.00    +0.085 C 
BRANCH  24  25
ATOM     25  C   UNL     1       4.508   9.553  -1.147  0.00  0.00    -0.064 C 
BRANCH  25  26
ATOM     26  N   UNL     1       5.750  10.284  -1.431  0.00  0.00    +0.382 N 
ATOM     27  H   UNL     1       6.434  10.192  -0.574  0.00  0.00    -0.086 HD
ATOM     28  H   UNL     1       6.227   9.863  -2.328  0.00  0.00    -0.086 HD
BRANCH  26  29
ATOM     29  C   UNL     1       5.480  11.709  -1.666  0.00  0.00    -0.054 C 
BRANCH  29  30
ATOM     30  C   UNL     1       6.794  12.436  -1.958  0.00  0.00    +0.137 C 
BRANCH  30  31
ATOM     31  O   UNL     1       7.346  11.948  -3.183  0.00  0.00    -0.397 OA
ATOM     32  H   UNL     1       8.296  12.355  -3.558  0.00  0.00    +0.209 HD
ENDBRANCH  30  31
ENDBRANCH  29  30
ENDBRANCH  26  29
ENDBRANCH  25  26
ENDBRANCH  24  25
ENDBRANCH  22  24
ENDBRANCH   1  20
TORSDOF 10
