REMARK  Name = ZINC18323897
REMARK  12 active torsions:
REMARK  status: ('A' for Active; 'I' for Inactive)
REMARK    1  A    between atoms: C_1  and  C_2
REMARK    2  A    between atoms: C_2  and  C_3
REMARK    3  A    between atoms: C_2  and  C_4
REMARK    4  A    between atoms: C_2  and  C_5
REMARK    5  A    between atoms: C_8  and  O_11
REMARK    6  A    between atoms: O_11  and  C_12
REMARK    7  A    between atoms: C_12  and  C_13
REMARK    8  A    between atoms: C_16  and  S_19
REMARK    9  A    between atoms: N_17  and  N_18
REMARK   10  A    between atoms: S_19  and  C_20
REMARK   11  A    between atoms: C_20  and  C_21
REMARK   12  A    between atoms: C_29  and  N_31
REMARK                            x       y       z     vdW  Elec       q    Type
REMARK                         _______ _______ _______ _____ _____    ______ ____
ROOT
ATOM      1  C   UNL     1      -2.079   1.768  -1.057  0.00  0.00    +0.189 A 
ATOM      2  N   UNL     1      -2.369   2.211  -2.248  0.00  0.00    -0.128 NA
ATOM      3  N   UNL     1      -1.313   2.232  -2.980  0.00  0.00    -0.121 NA
ATOM      4  C   UNL     1      -0.282   1.804  -2.288  0.00  0.00    +0.209 A 
ATOM      5  N   UNL     1      -0.741   1.490  -1.041  0.00  0.00    -0.225 N 
ENDROOT
BRANCH   5   6
ATOM      6  N   UNL     1      -0.012   1.005   0.008  0.00  0.00    -0.295 N 
ATOM      7  H   UNL     1       0.002  -0.004   0.002  0.00  0.00    +0.163 HD
ATOM      8  H   UNL     1       0.925   1.379   0.001  0.00  0.00    +0.163 HD
ENDBRANCH   5   6
BRANCH   1   9
ATOM      9  C   UNL     1      -3.042   1.594   0.090  0.00  0.00    +0.306 C 
BRANCH   9  10
ATOM     10  O   UNL     1      -3.090   2.798   0.858  0.00  0.00    -0.484 OA
BRANCH  10  14
ATOM     11  C   UNL     1      -5.598   2.831   4.133  0.00  0.00    -0.042 A 
ATOM     12  C   UNL     1      -4.852   3.953   3.824  0.00  0.00    +0.008 A 
ATOM     13  C   UNL     1      -4.011   3.945   2.728  0.00  0.00    +0.046 A 
ATOM     14  C   UNL     1      -3.916   2.809   1.937  0.00  0.00    +0.121 A 
ATOM     15  C   UNL     1      -4.670   1.686   2.246  0.00  0.00    +0.046 A 
ATOM     16  C   UNL     1      -5.504   1.697   3.347  0.00  0.00    +0.008 A 
BRANCH  11  18
ATOM     17  C   UNL     1      -7.560   3.947   5.160  0.00  0.00    +0.015 C 
ATOM     18  C   UNL     1      -6.514   2.842   5.330  0.00  0.00    -0.013 C 
ATOM     19  C   UNL     1      -7.217   1.489   5.447  0.00  0.00    +0.015 C 
ATOM     20  C   UNL     1      -5.696   3.104   6.596  0.00  0.00    +0.015 C 
ENDBRANCH  11  18
ENDBRANCH  10  14
ENDBRANCH   9  10
ENDBRANCH   1   9
BRANCH   4  21
ATOM     21  S   UNL     1       1.377   1.661  -2.862  0.00  0.00    -0.077 S 
BRANCH  21  22
ATOM     22  C   UNL     1       1.175   2.253  -4.560  0.00  0.00    +0.153 C 
BRANCH  22  23
ATOM     23  C   UNL     1       2.506   2.217  -5.266  0.00  0.00    +0.142 A 
ATOM     24  N   UNL     1       3.272   3.281  -5.214  0.00  0.00    -0.231 NA
ATOM     25  C   UNL     1       4.466   3.291  -5.823  0.00  0.00    +0.076 A 
ATOM     26  C   UNL     1       5.312   4.408  -5.783  0.00  0.00    +0.028 A 
ATOM     27  C   UNL     1       6.513   4.366  -6.426  0.00  0.00    +0.002 A 
ATOM     28  C   UNL     1       6.915   3.229  -7.122  0.00  0.00    +0.001 A 
ATOM     29  C   UNL     1       6.117   2.125  -7.180  0.00  0.00    +0.013 A 
ATOM     30  C   UNL     1       4.878   2.135  -6.532  0.00  0.00    +0.040 A 
ATOM     31  C   UNL     1       4.005   1.020  -6.556  0.00  0.00    +0.127 A 
ATOM     32  N   UNL     1       2.848   1.116  -5.915  0.00  0.00    -0.216 NA
BRANCH  31  33
ATOM     33  N   UNL     1       4.349  -0.133  -7.228  0.00  0.00    -0.343 N 
ATOM     34  H   UNL     1       3.742  -0.889  -7.236  0.00  0.00    +0.144 HD
ATOM     35  H   UNL     1       5.199  -0.189  -7.693  0.00  0.00    +0.144 HD
ENDBRANCH  31  33
ENDBRANCH  22  23
ENDBRANCH  21  22
ENDBRANCH   4  21
TORSDOF 9
