REMARK  Name = ZINC10431310
REMARK  9 active torsions:
REMARK  status: ('A' for Active; 'I' for Inactive)
REMARK    1  A    between atoms: C_1  and  C_2
REMARK    2  A    between atoms: C_2  and  N_3
REMARK    3  A    between atoms: N_3  and  C_4
REMARK    4  A    between atoms: N_3  and  C_20
REMARK    5  A    between atoms: C_4  and  C_5
REMARK    6  A    between atoms: C_10  and  C_19
REMARK    7  A    between atoms: C_21  and  N_36
REMARK    8  A    between atoms: N_22  and  C_29
REMARK    9  A    between atoms: C_29  and  C_30
REMARK                            x       y       z     vdW  Elec       q    Type
REMARK                         _______ _______ _______ _____ _____    ______ ____
ROOT
ATOM      1  C   UNL     1      -2.896  -0.800   3.129  0.00  0.00    +0.134 A 
ATOM      2  C   UNL     1      -2.365  -0.743   1.869  0.00  0.00    +0.127 A 
ATOM      3  N   UNL     1      -2.780   0.245   1.006  0.00  0.00    -0.276 N 
ATOM      4  C   UNL     1      -3.707   1.140   1.392  0.00  0.00    +0.331 A 
ATOM      5  O   UNL     1      -4.066   2.003   0.614  0.00  0.00    -0.246 OA
ATOM      6  N   UNL     1      -4.244   1.095   2.625  0.00  0.00    -0.273 N 
ATOM      7  H   UNL     1      -4.932   1.771   2.890  0.00  0.00    +0.173 HD
ATOM      8  C   UNL     1      -3.864   0.149   3.505  0.00  0.00    +0.277 A 
ATOM      9  O   UNL     1      -4.356   0.115   4.620  0.00  0.00    -0.266 OA
ENDROOT
BRANCH   2  10
ATOM     10  N   UNL     1      -1.421  -1.662   1.472  0.00  0.00    -0.343 N 
ATOM     11  H   UNL     1      -1.044  -1.615   0.579  0.00  0.00    +0.144 HD
ATOM     12  H   UNL     1      -1.131  -2.356   2.084  0.00  0.00    +0.144 HD
ENDBRANCH   2  10
BRANCH   1  13
ATOM     13  N   UNL     1      -2.483  -1.802   4.038  0.00  0.00    -0.315 N 
BRANCH  13  15
ATOM     14  C   UNL     1      -0.402  -0.772   4.818  0.00  0.00    +0.024 C 
ATOM     15  C   UNL     1      -1.816  -1.210   5.206  0.00  0.00    +0.102 C 
ENDBRANCH  13  15
BRANCH  13  16
ATOM     16  C   UNL     1      -3.617  -2.641   4.449  0.00  0.00    +0.201 C 
BRANCH  16  17
ATOM     17  C   UNL     1      -3.101  -3.914   5.068  0.00  0.00    +0.237 C 
ATOM     18  O   UNL     1      -1.913  -4.156   5.057  0.00  0.00    -0.274 OA
ATOM     19  N   UNL     1      -3.961  -4.783   5.636  0.00  0.00    -0.269 N 
ATOM     20  C   UNL     1      -3.477  -6.032   6.246  0.00  0.00    +0.115 C 
ATOM     21  C   UNL     1      -3.443  -7.153   5.240  0.00  0.00    +0.033 C 
ATOM     22  C   UNL     1      -4.800  -7.619   4.737  0.00  0.00    +0.050 C 
ATOM     23  S   UNL     1      -5.538  -6.352   3.663  0.00  0.00    -0.120 S 
ATOM     24  C   UNL     1      -6.221  -5.199   4.832  0.00  0.00    +0.030 A 
ATOM     25  C   UNL     1      -5.333  -4.519   5.664  0.00  0.00    +0.050 A 
ATOM     26  C   UNL     1      -5.837  -3.570   6.540  0.00  0.00    +0.024 A 
ATOM     27  C   UNL     1      -7.199  -3.344   6.605  0.00  0.00    +0.002 A 
ATOM     28  C   UNL     1      -8.074  -4.053   5.802  0.00  0.00    +0.001 A 
ATOM     29  C   UNL     1      -7.582  -4.987   4.904  0.00  0.00    +0.016 A 
ATOM     30  C   UNL     1      -4.628  -8.917   3.945  0.00  0.00    +0.019 C 
ENDBRANCH  16  17
ENDBRANCH  13  16
ENDBRANCH   1  13
BRANCH   3  31
ATOM     31  C   UNL     1      -2.214   0.318  -0.343  0.00  0.00    +0.163 C 
BRANCH  31  32
ATOM     32  C   UNL     1      -0.993   1.201  -0.328  0.00  0.00    -0.028 A 
ATOM     33  C   UNL     1       0.253   0.653  -0.085  0.00  0.00    +0.005 A 
ATOM     34  C   UNL     1       1.374   1.462  -0.076  0.00  0.00    +0.000 A 
ATOM     35  C   UNL     1       1.249   2.820  -0.305  0.00  0.00    +0.000 A 
ATOM     36  C   UNL     1       0.003   3.368  -0.543  0.00  0.00    +0.000 A 
ATOM     37  C   UNL     1      -1.119   2.559  -0.552  0.00  0.00    +0.005 A 
ENDBRANCH  31  32
ENDBRANCH   3  31
TORSDOF 7
