REMARK  Name = ZINC13117508
REMARK  6 active torsions:
REMARK  status: ('A' for Active; 'I' for Inactive)
REMARK    1  A    between atoms: C_4  and  N_7
REMARK    2  A    between atoms: N_7  and  C_8
REMARK    3  A    between atoms: C_16  and  C_18
REMARK    4  A    between atoms: C_18  and  S_19
REMARK    5  A    between atoms: S_19  and  C_20
REMARK    6  A    between atoms: C_24  and  C_26
REMARK                            x       y       z     vdW  Elec       q    Type
REMARK                         _______ _______ _______ _____ _____    ______ ____
ROOT
ATOM      1  N   UNL     1       3.623  -0.651  -0.038  0.00  0.00    -0.266 N 
ATOM      2  C   UNL     1       4.781   0.035  -0.116  0.00  0.00    +0.230 C 
ATOM      3  O   UNL     1       4.769   1.248  -0.110  0.00  0.00    -0.274 OA
ENDROOT
BRANCH   1   4
ATOM      4  C   UNL     1       3.643  -2.112   0.061  0.00  0.00    +0.104 C 
ATOM      5  C   UNL     1       2.892  -2.547   1.331  0.00  0.00    +0.047 C 
ATOM      6  C   UNL     1       2.655  -4.082   1.251  0.00  0.00    +0.168 C 
ATOM      7  S   UNL     1       2.209  -4.263  -0.528  0.00  0.00    -0.029 S 
ATOM      8  O   UNL     1       2.900  -5.383  -1.066  0.00  0.00    -0.174 OA
ATOM      9  O   UNL     1       0.797  -4.182  -0.661  0.00  0.00    -0.174 OA
ATOM     10  C   UNL     1       2.962  -2.721  -1.188  0.00  0.00    +0.188 C 
ENDBRANCH   1   4
BRANCH   1  14
ATOM     11  C   UNL     1      -0.011   1.386  -0.082  0.00  0.00    +0.000 A 
ATOM     12  C   UNL     1       1.175   2.093  -0.012  0.00  0.00    +0.002 A 
ATOM     13  C   UNL     1       2.382   1.421   0.003  0.00  0.00    +0.023 A 
ATOM     14  C   UNL     1       2.402   0.033  -0.053  0.00  0.00    +0.037 A 
ATOM     15  C   UNL     1       1.209  -0.674  -0.123  0.00  0.00    +0.023 A 
ATOM     16  C   UNL     1       0.006   0.004  -0.138  0.00  0.00    +0.002 A 
ENDBRANCH   1  14
BRANCH   2  17
ATOM     17  C   UNL     1       6.090  -0.705  -0.211  0.00  0.00    +0.173 C 
BRANCH  17  18
ATOM     18  S   UNL     1       7.440   0.482  -0.451  0.00  0.00    -0.077 S 
BRANCH  18  19
ATOM     19  C   UNL     1       8.883  -0.525  -0.541  0.00  0.00    +0.185 A 
ATOM     20  N   UNL     1      10.149  -0.084  -0.712  0.00  0.00    -0.253 N 
ATOM     21  H   UNL     1      10.434   0.838  -0.807  0.00  0.00    +0.191 HD
ATOM     22  N   UNL     1      10.970  -1.223  -0.724  0.00  0.00    -0.151 NA
ATOM     23  C   UNL     1      10.183  -2.265  -0.565  0.00  0.00    +0.189 A 
ATOM     24  N   UNL     1       8.916  -1.836  -0.449  0.00  0.00    -0.200 NA
BRANCH  23  25
ATOM     25  C   UNL     1      10.622  -3.676  -0.516  0.00  0.00    +0.058 A 
ATOM     26  C   UNL     1      11.887  -4.189  -0.615  0.00  0.00    +0.019 A 
ATOM     27  C   UNL     1      12.055  -5.555  -0.540  0.00  0.00    +0.008 A 
ATOM     28  C   UNL     1      10.965  -6.347  -0.371  0.00  0.00    +0.046 A 
ATOM     29  S   UNL     1       9.641  -5.152  -0.306  0.00  0.00    -0.093 S 
ENDBRANCH  23  25
ENDBRANCH  18  19
ENDBRANCH  17  18
ENDBRANCH   2  17
TORSDOF 6
