REMARK  Name = ZINC04353848
REMARK  9 active torsions:
REMARK  status: ('A' for Active; 'I' for Inactive)
REMARK    1  A    between atoms: C_1  and  C_2
REMARK    2  A    between atoms: N_7  and  C_9
REMARK    3  A    between atoms: C_9  and  C_10
REMARK    4  A    between atoms: C_11  and  O_31
REMARK    5  A    between atoms: C_19  and  C_21
REMARK    6  A    between atoms: C_24  and  O_29
REMARK    7  A    between atoms: C_25  and  O_27
REMARK    8  A    between atoms: O_27  and  C_28
REMARK    9  A    between atoms: O_29  and  C_30
REMARK                            x       y       z     vdW  Elec       q    Type
REMARK                         _______ _______ _______ _____ _____    ______ ____
ROOT
ATOM      1  C   UNL     1       1.666  -3.960   2.315  0.00  0.00    +0.020 A 
ATOM      2  C   UNL     1       0.712  -4.773   2.906  0.00  0.00    +0.122 A 
ATOM      3  C   UNL     1       0.823  -6.160   2.835  0.00  0.00    +0.046 A 
ATOM      4  C   UNL     1       1.880  -6.738   2.194  0.00  0.00    +0.015 A 
ATOM      5  C   UNL     1       2.869  -5.933   1.611  0.00  0.00    +0.019 A 
ATOM      6  C   UNL     1       2.739  -4.531   1.650  0.00  0.00    +0.144 A 
ATOM      7  O   UNL     1       3.653  -3.749   1.024  0.00  0.00    -0.421 OA
ATOM      8  C   UNL     1       4.896  -4.263   0.880  0.00  0.00    +0.345 A 
ATOM      9  O   UNL     1       5.884  -3.563   1.004  0.00  0.00    -0.245 OA
ATOM     10  C   UNL     1       5.014  -5.697   0.570  0.00  0.00    +0.067 A 
ATOM     11  C   UNL     1       3.991  -6.519   0.970  0.00  0.00    +0.027 A 
ENDROOT
BRANCH  10  12
ATOM     12  C   UNL     1       6.199  -6.235  -0.139  0.00  0.00    -0.007 A 
ATOM     13  C   UNL     1       7.053  -7.128   0.507  0.00  0.00    +0.012 A 
ATOM     14  C   UNL     1       8.157  -7.628  -0.153  0.00  0.00    +0.050 A 
ATOM     15  C   UNL     1       8.419  -7.244  -1.460  0.00  0.00    +0.162 A 
ATOM     16  C   UNL     1       7.570  -6.352  -2.110  0.00  0.00    +0.162 A 
ATOM     17  C   UNL     1       6.459  -5.853  -1.454  0.00  0.00    +0.058 A 
BRANCH  16  18
ATOM     18  O   UNL     1       7.830  -5.977  -3.391  0.00  0.00    -0.491 OA
ATOM     19  C   UNL     1       6.916  -5.060  -3.996  0.00  0.00    +0.277 C 
ENDBRANCH  16  18
BRANCH  15  20
ATOM     20  O   UNL     1       9.508  -7.738  -2.107  0.00  0.00    -0.491 OA
ATOM     21  C   UNL     1      10.337  -8.648  -1.380  0.00  0.00    +0.277 C 
ENDBRANCH  15  20
ENDBRANCH  10  12
BRANCH   2  22
ATOM     22  O   UNL     1      -0.339  -4.214   3.559  0.00  0.00    -0.506 OA
ATOM     23  H   UNL     1      -1.109  -4.051   2.997  0.00  0.00    +0.292 HD
ENDBRANCH   2  22
BRANCH   1  24
ATOM     24  C   UNL     1       1.534  -2.461   2.390  0.00  0.00    -0.036 C 
BRANCH  24  30
ATOM     25  C   UNL     1      -0.019   1.526   0.010  0.00  0.00    +0.005 C 
ATOM     26  C   UNL     1       0.002  -0.004   0.002  0.00  0.00    -0.031 C 
ATOM     27  C   UNL     1      -1.434  -0.535   0.015  0.00  0.00    -0.001 C 
ATOM     28  C   UNL     1      -1.402  -2.064   0.086  0.00  0.00    -0.018 C 
ATOM     29  C   UNL     1      -0.613  -2.496   1.324  0.00  0.00    -0.078 C 
ATOM     30  N   UNL     1       0.758  -1.980   1.239  0.00  0.00    +0.383 N 
ATOM     31  C   UNL     1       0.740  -0.512   1.242  0.00  0.00    -0.075 C 
ATOM     32  H   UNL     1       1.188  -2.307   0.386  0.00  0.00    -0.081 HD
ENDBRANCH  24  30
ENDBRANCH   1  24
TORSDOF 6
