REMARK  Name = ZINC02741222
REMARK  5 active torsions:
REMARK  status: ('A' for Active; 'I' for Inactive)
REMARK    1  A    between atoms: C_1  and  C_2
REMARK    2  A    between atoms: C_4  and  C_19
REMARK    3  A    between atoms: C_6  and  C_12
REMARK    4  A    between atoms: N_9  and  C_11
REMARK    5  A    between atoms: C_15  and  O_18
REMARK                            x       y       z     vdW  Elec       q    Type
REMARK                         _______ _______ _______ _____ _____    ______ ____
ROOT
ATOM      1  C   UNL     1      -3.707   2.593   3.053  0.00  0.00    +0.068 C 
ATOM      2  C   UNL     1      -2.341   2.219   2.537  0.00  0.00    +0.070 A 
ATOM      3  C   UNL     1      -1.139   2.252   3.282  0.00  0.00    +0.053 A 
ATOM      4  C   UNL     1      -0.826   2.600   4.605  0.00  0.00    +0.069 A 
ATOM      5  C   UNL     1       0.477   2.514   5.008  0.00  0.00    +0.041 A 
ATOM      6  C   UNL     1       1.454   2.085   4.103  0.00  0.00    +0.074 A 
ATOM      7  N   UNL     1       1.142   1.760   2.858  0.00  0.00    -0.228 NA
ATOM      8  C   UNL     1      -0.108   1.827   2.420  0.00  0.00    +0.159 A 
ATOM      9  N   UNL     1      -0.698   1.558   1.213  0.00  0.00    -0.249 N 
ATOM     10  N   UNL     1      -2.069   1.818   1.329  0.00  0.00    -0.174 NA
ATOM     11  C   UNL     1      -0.013   1.086   0.008  0.00  0.00    +0.174 C 
ENDROOT
BRANCH   6  12
ATOM     12  C   UNL     1       2.865   1.992   4.546  0.00  0.00    +0.001 A 
ATOM     13  C   UNL     1       3.211   2.336   5.853  0.00  0.00    +0.013 A 
ATOM     14  C   UNL     1       4.524   2.243   6.263  0.00  0.00    +0.046 A 
ATOM     15  C   UNL     1       5.503   1.819   5.375  0.00  0.00    +0.117 A 
ATOM     16  C   UNL     1       5.162   1.482   4.071  0.00  0.00    +0.046 A 
ATOM     17  C   UNL     1       3.851   1.567   3.656  0.00  0.00    +0.013 A 
BRANCH  15  18
ATOM     18  O   UNL     1       6.796   1.735   5.781  0.00  0.00    -0.507 OA
ATOM     19  H   UNL     1       7.304   2.547   5.647  0.00  0.00    +0.292 HD
ENDBRANCH  15  18
ENDBRANCH   6  12
BRANCH   4  20
ATOM     20  C   UNL     1      -1.901   3.058   5.557  0.00  0.00    +0.418 C 
ATOM     21  F   UNL     1      -1.330   3.342   6.803  0.00  0.00    -0.166 F 
ATOM     22  F   UNL     1      -2.513   4.210   5.051  0.00  0.00    -0.166 F 
ATOM     23  F   UNL     1      -2.857   2.047   5.702  0.00  0.00    -0.166 F 
ENDBRANCH   4  20
TORSDOF 3
