REMARK  Name = ZINC40680533
REMARK  8 active torsions:
REMARK  status: ('A' for Active; 'I' for Inactive)
REMARK    1  A    between atoms: C_1  and  C_2
REMARK    2  A    between atoms: C_2  and  C_3
REMARK    3  A    between atoms: C_2  and  C_4
REMARK    4  A    between atoms: C_2  and  N_5
REMARK    5  A    between atoms: C_7  and  N_20
REMARK    6  A    between atoms: C_8  and  N_12
REMARK    7  A    between atoms: N_12  and  N_13
REMARK    8  A    between atoms: N_13  and  C_14
REMARK                            x       y       z     vdW  Elec       q    Type
REMARK                         _______ _______ _______ _____ _____    ______ ____
ROOT
ATOM      1  N   UNL     1       0.688  -0.476  -1.203  0.00  0.00    -0.323 N 
ATOM      2  C   UNL     1       2.011  -0.121  -1.434  0.00  0.00    +0.145 A 
ATOM      3  C   UNL     1       2.674  -0.561  -2.582  0.00  0.00    +0.105 A 
ATOM      4  C   UNL     1       4.002  -0.175  -2.765  0.00  0.00    +0.138 A 
ATOM      5  N   UNL     1       4.583   0.592  -1.845  0.00  0.00    -0.332 N 
ATOM      6  C   UNL     1       3.923   0.985  -0.775  0.00  0.00    +0.200 A 
ATOM      7  N   UNL     1       2.666   0.647  -0.567  0.00  0.00    -0.221 NA
ATOM      8  H   UNL     1       0.218  -1.037  -1.840  0.00  0.00    +0.148 HD
ATOM      9  H   UNL     1       5.507   0.864  -1.964  0.00  0.00    +0.168 HD
ENDROOT
BRANCH   1  11
ATOM     10  C   UNL     1      -0.019   1.526   0.010  0.00  0.00    +0.031 C 
ATOM     11  C   UNL     1       0.002  -0.004   0.002  0.00  0.00    +0.025 C 
ATOM     12  C   UNL     1       0.742  -0.511   1.242  0.00  0.00    +0.031 C 
ATOM     13  C   UNL     1      -1.433  -0.534   0.013  0.00  0.00    +0.031 C 
ENDBRANCH   1  11
BRANCH   3  14
ATOM     14  N   UNL     1       2.021  -1.370  -3.526  0.00  0.00    -0.353 N 
ATOM     15  H   UNL     1       1.097  -1.630  -3.386  0.00  0.00    +0.143 HD
ATOM     16  H   UNL     1       2.493  -1.667  -4.319  0.00  0.00    +0.143 HD
ENDBRANCH   3  14
BRANCH   4  17
ATOM     17  N   UNL     1       4.708  -0.585  -3.890  0.00  0.00    -0.250 N 
ATOM     18  H   UNL     1       4.277  -1.144  -4.556  0.00  0.00    +0.171 HD
BRANCH  17  19
ATOM     19  N   UNL     1       6.041  -0.191  -4.063  0.00  0.00    -0.265 N 
ATOM     20  H   UNL     1       6.472   0.368  -3.397  0.00  0.00    +0.170 HD
BRANCH  19  21
ATOM     21  C   UNL     1       6.750  -0.604  -5.193  0.00  0.00    +0.044 A 
ATOM     22  C   UNL     1       6.133  -1.399  -6.150  0.00  0.00    +0.024 A 
ATOM     23  C   UNL     1       6.837  -1.804  -7.267  0.00  0.00    +0.002 A 
ATOM     24  C   UNL     1       8.154  -1.419  -7.434  0.00  0.00    +0.000 A 
ATOM     25  C   UNL     1       8.772  -0.628  -6.483  0.00  0.00    +0.002 A 
ATOM     26  C   UNL     1       8.072  -0.214  -5.366  0.00  0.00    +0.024 A 
ENDBRANCH  19  21
ENDBRANCH  17  19
ENDBRANCH   4  17
TORSDOF 5
