REMARK  Name = ZINC20208285
REMARK  10 active torsions:
REMARK  status: ('A' for Active; 'I' for Inactive)
REMARK    1  A    between atoms: C_1  and  C_2
REMARK    2  A    between atoms: C_2  and  O_3
REMARK    3  A    between atoms: O_3  and  C_4
REMARK    4  A    between atoms: C_6  and  C_19
REMARK    5  A    between atoms: C_9  and  O_10
REMARK    6  A    between atoms: O_10  and  C_11
REMARK    7  A    between atoms: C_11  and  C_12
REMARK    8  A    between atoms: C_29  and  S_31
REMARK    9  A    between atoms: S_31  and  C_34
REMARK   10  A    between atoms: C_34  and  C_35
REMARK                            x       y       z     vdW  Elec       q    Type
REMARK                         _______ _______ _______ _____ _____    ______ ____
ROOT
ATOM      1  C   UNL     1       0.464  -1.798   1.262  0.00  0.00    +0.162 A 
ATOM      2  C   UNL     1      -0.124  -2.674   0.373  0.00  0.00    +0.057 A 
ATOM      3  C   UNL     1       0.212  -4.035   0.410  0.00  0.00    -0.021 A 
ATOM      4  C   UNL     1       1.143  -4.496   1.351  0.00  0.00    +0.012 A 
ATOM      5  C   UNL     1       1.724  -3.614   2.234  0.00  0.00    +0.050 A 
ATOM      6  C   UNL     1       1.393  -2.265   2.192  0.00  0.00    +0.162 A 
ENDROOT
BRANCH   3   7
ATOM      7  C   UNL     1      -0.408  -4.971  -0.530  0.00  0.00    +0.024 C 
ATOM      8  C   UNL     1      -0.656  -6.269  -0.146  0.00  0.00    +0.081 C 
ATOM      9  C   UNL     1      -0.482  -6.718   1.264  0.00  0.00    +0.153 C 
ATOM     10  N   UNL     1      -0.704  -5.946   2.295  0.00  0.00    -0.283 NA
ATOM     11  N   UNL     1      -0.055  -8.059   1.377  0.00  0.00    -0.150 N 
ATOM     12  C   UNL     1      -0.320  -8.902   0.320  0.00  0.00    +0.182 C 
ATOM     13  N   UNL     1      -0.845  -8.590  -0.838  0.00  0.00    -0.152 NA
ATOM     14  C   UNL     1      -1.117  -7.296  -1.113  0.00  0.00    +0.273 C 
ATOM     15  O   UNL     1      -1.719  -6.980  -2.127  0.00  0.00    -0.268 OA
ATOM     16  S   UNL     1       0.250 -10.463   0.938  0.00  0.00    -0.015 S 
ATOM     17  C   UNL     1       0.887  -9.877   2.502  0.00  0.00    +0.235 C 
ATOM     18  N   UNL     1       0.597  -8.608   2.461  0.00  0.00    -0.145 NA
ATOM     19  H   UNL     1      -0.576  -6.289   3.194  0.00  0.00    +0.188 HD
BRANCH  17  20
ATOM     20  S   UNL     1       1.702 -10.784   3.774  0.00  0.00    +0.022 S 
ATOM     21  O   UNL     1       2.394 -11.821   3.094  0.00  0.00    -0.167 OA
ATOM     22  O   UNL     1       2.414  -9.805   4.519  0.00  0.00    -0.167 OA
BRANCH  20  23
ATOM     23  C   UNL     1       0.363 -11.482   4.779  0.00  0.00    +0.171 C 
ATOM     24  C   UNL     1       0.959 -12.299   5.927  0.00  0.00    +0.028 C 
ENDBRANCH  20  23
ENDBRANCH  17  20
ENDBRANCH   3   7
BRANCH   1  25
ATOM     25  O   UNL     1       0.141  -0.477   1.229  0.00  0.00    -0.489 OA
BRANCH  25  27
ATOM     26  C   UNL     1      -1.052   1.440   0.366  0.00  0.00    +0.048 C 
ATOM     27  C   UNL     1      -0.819  -0.068   0.252  0.00  0.00    +0.226 C 
ENDBRANCH  25  27
ENDBRANCH   1  25
BRANCH   6  28
ATOM     28  O   UNL     1       1.974  -1.399   3.062  0.00  0.00    -0.484 OA
BRANCH  28  29
ATOM     29  C   UNL     1       2.917  -1.943   3.987  0.00  0.00    +0.267 C 
BRANCH  29  30
ATOM     30  C   UNL     1       3.452  -0.842   4.865  0.00  0.00    +0.025 A 
ATOM     31  C   UNL     1       3.006   0.455   4.697  0.00  0.00    +0.010 A 
ATOM     32  C   UNL     1       3.497   1.466   5.502  0.00  0.00    +0.001 A 
ATOM     33  C   UNL     1       4.435   1.180   6.477  0.00  0.00    +0.003 A 
ATOM     34  C   UNL     1       4.882  -0.116   6.648  0.00  0.00    +0.039 A 
ATOM     35  C   UNL     1       4.387  -1.130   5.845  0.00  0.00    +0.130 A 
ATOM     36  F   UNL     1       4.820  -2.398   6.014  0.00  0.00    -0.205 F 
ENDBRANCH  29  30
ENDBRANCH  28  29
ENDBRANCH   6  28
TORSDOF 8
