REMARK  Name = ZINC39652647
REMARK  12 active torsions:
REMARK  status: ('A' for Active; 'I' for Inactive)
REMARK    1  A    between atoms: C_1  and  C_2
REMARK    2  A    between atoms: C_2  and  O_3
REMARK    3  A    between atoms: O_3  and  C_4
REMARK    4  A    between atoms: C_9  and  C_10
REMARK    5  A    between atoms: C_10  and  C_11
REMARK    6  A    between atoms: C_11  and  N_12
REMARK    7  A    between atoms: C_13  and  C_15
REMARK    8  A    between atoms: C_26  and  C_28
REMARK    9  A    between atoms: C_31  and  O_36
REMARK   10  A    between atoms: C_33  and  O_34
REMARK   11  A    between atoms: O_34  and  C_35
REMARK   12  A    between atoms: O_36  and  C_37
REMARK                            x       y       z     vdW  Elec       q    Type
REMARK                         _______ _______ _______ _____ _____    ______ ____
ROOT
ATOM      1  C   UNL     1      -7.205   1.181  -2.517  0.00  0.00    +0.100 C 
ATOM      2  C   UNL     1      -6.941   2.429  -1.646  0.00  0.00    +0.121 C 
ATOM      3  N   UNL     1      -6.484   3.464  -2.603  0.00  0.00    -0.296 N 
ATOM      4  C   UNL     1      -7.337   3.263  -3.798  0.00  0.00    +0.115 C 
ATOM      5  C   UNL     1      -7.468   1.733  -3.928  0.00  0.00    -0.004 C 
ATOM      6  C   UNL     1      -8.874   1.360  -4.388  0.00  0.00    -0.010 C 
ATOM      7  C   UNL     1      -9.092   1.869  -5.815  0.00  0.00    -0.082 C 
ATOM      8  N   UNL     1      -8.090   1.273  -6.707  0.00  0.00    +0.379 N 
ATOM      9  C   UNL     1      -6.746   1.712  -6.315  0.00  0.00    -0.082 C 
ATOM     10  C   UNL     1      -6.429   1.196  -4.908  0.00  0.00    -0.010 C 
ATOM     11  C   UNL     1      -5.512   4.381  -2.426  0.00  0.00    +0.250 C 
ATOM     12  O   UNL     1      -4.830   4.358  -1.419  0.00  0.00    -0.270 OA
ATOM     13  H   UNL     1      -8.145   0.268  -6.648  0.00  0.00    -0.086 HD
ATOM     14  H   UNL     1      -8.273   1.562  -7.657  0.00  0.00    -0.086 HD
ENDROOT
BRANCH  11  15
ATOM     15  C   UNL     1      -5.276   5.411  -3.452  0.00  0.00    +0.079 A 
ATOM     16  C   UNL     1      -6.349   5.943  -4.173  0.00  0.00    +0.020 A 
ATOM     17  C   UNL     1      -6.125   6.905  -5.130  0.00  0.00    +0.046 A 
ATOM     18  C   UNL     1      -4.831   7.351  -5.385  0.00  0.00    +0.124 A 
ATOM     19  C   UNL     1      -3.759   6.830  -4.676  0.00  0.00    +0.092 A 
ATOM     20  C   UNL     1      -3.973   5.866  -3.706  0.00  0.00    +0.136 A 
BRANCH  20  21
ATOM     21  O   UNL     1      -2.926   5.359  -3.008  0.00  0.00    -0.494 OA
ATOM     22  C   UNL     1      -1.629   5.871  -3.321  0.00  0.00    +0.277 C 
ENDBRANCH  20  21
BRANCH  18  23
ATOM     23  O   UNL     1      -4.619   8.301  -6.332  0.00  0.00    -0.495 OA
ATOM     24  C   UNL     1      -5.766   8.794  -7.025  0.00  0.00    +0.277 C 
ENDBRANCH  18  23
ENDBRANCH  11  15
BRANCH   1  26
ATOM     25  N   UNL     1      -6.150  -1.052  -2.658  0.00  0.00    -0.315 N 
ATOM     26  C   UNL     1      -5.997   0.280  -2.523  0.00  0.00    +0.218 C 
ATOM     27  O   UNL     1      -4.886   0.754  -2.408  0.00  0.00    -0.275 OA
ATOM     28  H   UNL     1      -7.038  -1.431  -2.751  0.00  0.00    +0.149 HD
BRANCH  25  29
ATOM     29  C   UNL     1      -4.975  -1.928  -2.664  0.00  0.00    +0.109 C 
BRANCH  29  30
ATOM     30  C   UNL     1      -5.424  -3.381  -2.829  0.00  0.00    +0.057 C 
BRANCH  30  36
ATOM     31  C   UNL     1      -3.674  -4.725  -1.637  0.00  0.00    +0.124 A 
ATOM     32  C   UNL     1      -2.564  -5.559  -1.647  0.00  0.00    +0.046 A 
ATOM     33  C   UNL     1      -1.999  -5.941  -2.848  0.00  0.00    +0.004 A 
ATOM     34  C   UNL     1      -2.538  -5.494  -4.040  0.00  0.00    +0.000 A 
ATOM     35  C   UNL     1      -3.643  -4.663  -4.034  0.00  0.00    +0.007 A 
ATOM     36  C   UNL     1      -4.215  -4.282  -2.835  0.00  0.00    -0.004 A 
BRANCH  31  37
ATOM     37  O   UNL     1      -4.232  -4.348  -0.457  0.00  0.00    -0.492 OA
BRANCH  37  39
ATOM     38  C   UNL     1      -4.382  -4.314   1.955  0.00  0.00    +0.048 C 
ATOM     39  C   UNL     1      -3.621  -4.841   0.737  0.00  0.00    +0.225 C 
ENDBRANCH  37  39
ENDBRANCH  31  37
ENDBRANCH  30  36
ENDBRANCH  29  30
ENDBRANCH  25  29
ENDBRANCH   1  26
TORSDOF 9
