REMARK  Name = ZINC22299814
REMARK  7 active torsions:
REMARK  status: ('A' for Active; 'I' for Inactive)
REMARK    1  A    between atoms: C_1  and  C_2
REMARK    2  A    between atoms: N_13  and  C_26
REMARK    3  A    between atoms: C_14  and  S_16
REMARK    4  A    between atoms: S_16  and  C_17
REMARK    5  A    between atoms: C_17  and  C_19
REMARK    6  A    between atoms: C_17  and  C_20
REMARK    7  A    between atoms: C_26  and  C_27
REMARK                            x       y       z     vdW  Elec       q    Type
REMARK                         _______ _______ _______ _____ _____    ______ ____
ROOT
ATOM      1  C   UNL     1     -13.167  -5.587   0.431  0.00  0.00    +0.008 C 
ATOM      2  C   UNL     1     -12.347  -4.310   0.236  0.00  0.00    -0.009 C 
ATOM      3  C   UNL     1     -12.583  -3.363   1.415  0.00  0.00    +0.008 C 
ATOM      4  C   UNL     1     -11.970  -1.995   1.114  0.00  0.00    +0.037 C 
ATOM      5  C   UNL     1     -10.512  -2.188   0.705  0.00  0.00    -0.023 A 
ATOM      6  C   UNL     1     -10.065  -3.393   0.297  0.00  0.00    -0.004 A 
ATOM      7  S   UNL     1      -8.348  -3.147  -0.068  0.00  0.00    -0.073 S 
ATOM      8  C   UNL     1      -8.235  -1.421   0.329  0.00  0.00    +0.117 A 
ATOM      9  C   UNL     1      -9.540  -1.093   0.734  0.00  0.00    +0.076 A 
ATOM     10  C   UNL     1      -9.748   0.268   1.122  0.00  0.00    +0.263 A 
ATOM     11  O   UNL     1     -10.848   0.644   1.488  0.00  0.00    -0.267 OA
ATOM     12  N   UNL     1      -8.713   1.127   1.077  0.00  0.00    -0.285 N 
ATOM     13  C   UNL     1      -7.475   0.724   0.669  0.00  0.00    +0.173 A 
ATOM     14  N   UNL     1      -7.257  -0.523   0.302  0.00  0.00    -0.216 NA
ATOM     15  C   UNL     1     -10.853  -4.661   0.178  0.00  0.00    +0.046 C 
ENDROOT
BRANCH  13  16
ATOM     16  S   UNL     1      -6.152   1.887   0.625  0.00  0.00    -0.075 S 
BRANCH  16  17
ATOM     17  C   UNL     1      -4.816   0.821   0.029  0.00  0.00    +0.137 C 
ATOM     18  C   UNL     1      -5.133   0.352  -1.392  0.00  0.00    +0.029 C 
BRANCH  17  19
ATOM     19  C   UNL     1      -3.522   1.592   0.027  0.00  0.00    +0.233 C 
ATOM     20  O   UNL     1      -3.538   2.804   0.034  0.00  0.00    -0.274 OA
ATOM     21  N   UNL     1      -2.345   0.934   0.018  0.00  0.00    -0.239 N 
ATOM     22  C   UNL     1      -1.187   1.624   0.017  0.00  0.00    +0.303 C 
ATOM     23  O   UNL     1      -1.204   2.839   0.023  0.00  0.00    -0.253 OA
ATOM     24  N   UNL     1      -0.011   0.966   0.007  0.00  0.00    -0.313 N 
ATOM     25  H   UNL     1      -2.330  -0.166   0.012  0.00  0.00    +0.159 HD
ATOM     26  H   UNL     1       0.934   1.529   0.006  0.00  0.00    +0.146 HD
ATOM     27  H   UNL     1       0.004  -0.134   0.001  0.00  0.00    +0.146 HD
ENDBRANCH  17  19
ENDBRANCH  16  17
ENDBRANCH  13  16
BRANCH  12  28
ATOM     28  C   UNL     1      -8.920   2.522   1.473  0.00  0.00    +0.159 C 
BRANCH  28  29
ATOM     29  C   UNL     1      -9.331   3.344   0.250  0.00  0.00    +0.138 C 
ATOM     30  C   UNL     1      -9.439   4.836   0.634  0.00  0.00    +0.035 C 
ATOM     31  C   UNL     1     -10.691   5.292  -0.164  0.00  0.00    +0.031 C 
ATOM     32  C   UNL     1     -11.556   4.007  -0.114  0.00  0.00    +0.160 C 
ATOM     33  O   UNL     1     -10.620   2.921  -0.209  0.00  0.00    -0.375 OA
ENDBRANCH  28  29
ENDBRANCH  12  28
TORSDOF 5
