REMARK  Name = ZINC15557167
REMARK  8 active torsions:
REMARK  status: ('A' for Active; 'I' for Inactive)
REMARK    1  A    between atoms: C_1  and  C_2
REMARK    2  A    between atoms: C_8  and  C_10
REMARK    3  A    between atoms: C_10  and  S_11
REMARK    4  A    between atoms: S_11  and  C_12
REMARK    5  A    between atoms: C_12  and  C_13
REMARK    6  A    between atoms: N_15  and  N_16
REMARK    7  A    between atoms: C_17  and  C_19
REMARK    8  A    between atoms: C_26  and  C_29
REMARK                            x       y       z     vdW  Elec       q    Type
REMARK                         _______ _______ _______ _____ _____    ______ ____
ROOT
ATOM      1  C   UNL     1       5.439   7.709  -1.087  0.00  0.00    +0.239 C 
ATOM      2  O   UNL     1       4.303   8.093  -1.269  0.00  0.00    -0.273 OA
ATOM      3  N   UNL     1       5.671   6.424  -0.753  0.00  0.00    -0.233 N 
ATOM      4  H   UNL     1       6.580   6.117  -0.607  0.00  0.00    +0.173 HD
ENDROOT
BRANCH   3   5
ATOM      5  N   UNL     1       4.600   5.532  -0.616  0.00  0.00    -0.230 N 
ATOM      6  C   UNL     1       4.831   4.247  -0.282  0.00  0.00    +0.267 C 
ATOM      7  O   UNL     1       5.971   3.861  -0.099  0.00  0.00    -0.268 OA
ATOM      8  H   UNL     1       3.691   5.839  -0.762  0.00  0.00    +0.173 HD
BRANCH   6   9
ATOM      9  C   UNL     1       3.710   3.313  -0.139  0.00  0.00    +0.076 A 
ATOM     10  C   UNL     1       3.730   1.971   0.193  0.00  0.00    +0.024 A 
ATOM     11  C   UNL     1       2.522   1.297   0.266  0.00  0.00    -0.036 A 
ATOM     12  C   UNL     1       1.396   2.023  -0.000  0.00  0.00    -0.006 A 
ATOM     13  S   UNL     1       1.963   3.612  -0.347  0.00  0.00    -0.088 S 
ATOM     14  C   UNL     1      -0.019   1.531   0.011  0.00  0.00    +0.043 C 
ATOM     15  C   UNL     1       0.002  -0.004   0.002  0.00  0.00    +0.009 C 
ATOM     16  C   UNL     1       0.991  -0.489   1.066  0.00  0.00    -0.009 C 
ATOM     17  C   UNL     1       2.423  -0.183   0.624  0.00  0.00    +0.039 C 
ATOM     18  C   UNL     1       0.830  -1.998   1.259  0.00  0.00    +0.008 C 
ENDBRANCH   6   9
ENDBRANCH   3   5
BRANCH   1  19
ATOM     19  C   UNL     1       6.592   8.669  -1.234  0.00  0.00    +0.166 C 
BRANCH  19  20
ATOM     20  S   UNL     1       5.960  10.308  -1.686  0.00  0.00    -0.142 S 
BRANCH  20  21
ATOM     21  C   UNL     1       7.451  11.331  -1.823  0.00  0.00    +0.165 C 
BRANCH  21  29
ATOM     22  C   UNL     1       5.457  17.787  -3.564  0.00  0.00    +0.089 C 
ATOM     23  C   UNL     1       6.526  16.777  -3.234  0.00  0.00    +0.136 A 
ATOM     24  C   UNL     1       6.340  15.473  -2.928  0.00  0.00    +0.091 A 
ATOM     25  C   UNL     1       7.654  14.982  -2.706  0.00  0.00    +0.168 A 
ATOM     26  N   UNL     1       8.458  15.996  -2.887  0.00  0.00    -0.063 NA
ATOM     27  O   UNL     1       7.848  16.997  -3.186  0.00  0.00    -0.358 OA
ATOM     28  N   UNL     1       8.013  13.680  -2.357  0.00  0.00    -0.267 N 
ATOM     29  C   UNL     1       7.063  12.738  -2.199  0.00  0.00    +0.228 C 
ATOM     30  O   UNL     1       5.894  13.022  -2.359  0.00  0.00    -0.275 OA
ATOM     31  H   UNL     1       8.947  13.453  -2.230  0.00  0.00    +0.156 HD
ENDBRANCH  21  29
ENDBRANCH  20  21
ENDBRANCH  19  20
ENDBRANCH   1  19
TORSDOF 6
