REMARK  Name = ZINC59045523
REMARK  8 active torsions:
REMARK  status: ('A' for Active; 'I' for Inactive)
REMARK    1  A    between atoms: C_5  and  C_7
REMARK    2  A    between atoms: C_7  and  N_8
REMARK    3  A    between atoms: C_9  and  C_11
REMARK    4  A    between atoms: C_11  and  S_12
REMARK    5  A    between atoms: S_12  and  C_13
REMARK    6  A    between atoms: C_16  and  C_19
REMARK    7  A    between atoms: N_17  and  N_18
REMARK    8  A    between atoms: C_24  and  O_25
REMARK                            x       y       z     vdW  Elec       q    Type
REMARK                         _______ _______ _______ _____ _____    ______ ____
ROOT
ATOM      1  C   UNL     1       2.090  -6.753   4.646  0.00  0.00    +0.209 A 
ATOM      2  N   UNL     1       2.409  -5.924   5.615  0.00  0.00    -0.121 NA
ATOM      3  N   UNL     1       2.668  -6.579   6.690  0.00  0.00    -0.127 NA
ATOM      4  C   UNL     1       2.529  -7.867   6.474  0.00  0.00    +0.185 A 
ATOM      5  N   UNL     1       2.150  -8.017   5.160  0.00  0.00    -0.224 N 
ENDROOT
BRANCH   4   6
ATOM      6  C   UNL     1       2.737  -8.950   7.458  0.00  0.00    +0.062 A 
ATOM      7  C   UNL     1       3.490 -10.074   7.115  0.00  0.00    +0.015 A 
ATOM      8  C   UNL     1       3.680 -11.081   8.038  0.00  0.00    +0.001 A 
ATOM      9  C   UNL     1       3.127 -10.982   9.303  0.00  0.00    +0.004 A 
ATOM     10  C   UNL     1       2.379  -9.874   9.653  0.00  0.00    +0.046 A 
ATOM     11  C   UNL     1       2.184  -8.851   8.740  0.00  0.00    +0.128 A 
BRANCH  11  12
ATOM     12  O   UNL     1       1.455  -7.758   9.086  0.00  0.00    -0.506 OA
ATOM     13  H   UNL     1       0.509  -7.841   8.901  0.00  0.00    +0.292 HD
ENDBRANCH  11  12
ENDBRANCH   4   6
BRANCH   5  14
ATOM     14  N   UNL     1       1.890  -9.188   4.505  0.00  0.00    -0.295 N 
ATOM     15  H   UNL     1       2.740  -9.601   4.151  0.00  0.00    +0.163 HD
ATOM     16  H   UNL     1       1.395  -9.834   5.101  0.00  0.00    +0.163 HD
ENDBRANCH   5  14
BRANCH   1  17
ATOM     17  S   UNL     1       1.658  -6.314   2.995  0.00  0.00    -0.075 S 
BRANCH  17  18
ATOM     18  C   UNL     1       1.773  -4.504   2.978  0.00  0.00    +0.173 C 
BRANCH  18  20
ATOM     19  N   UNL     1       1.442  -2.668   1.354  0.00  0.00    -0.310 N 
ATOM     20  C   UNL     1       1.424  -3.992   1.604  0.00  0.00    +0.224 C 
ATOM     21  O   UNL     1       1.127  -4.771   0.724  0.00  0.00    -0.275 OA
ATOM     22  H   UNL     1       1.679  -2.044   2.058  0.00  0.00    +0.149 HD
BRANCH  19  23
ATOM     23  C   UNL     1       1.102  -2.170   0.019  0.00  0.00    +0.141 C 
BRANCH  23  28
ATOM     24  C   UNL     1       0.139   1.480   0.098  0.00  0.00    +0.000 A 
ATOM     25  C   UNL     1       1.372   2.094  -0.024  0.00  0.00    +0.001 A 
ATOM     26  C   UNL     1       2.518   1.329  -0.133  0.00  0.00    +0.020 A 
ATOM     27  C   UNL     1       2.431  -0.052  -0.119  0.00  0.00    +0.046 A 
ATOM     28  C   UNL     1       1.197  -0.666   0.004  0.00  0.00    -0.012 A 
ATOM     29  C   UNL     1       0.052   0.101   0.112  0.00  0.00    +0.006 A 
ATOM     30 CL   UNL     1       3.869  -1.014  -0.256  0.00  0.00    -0.083 Cl
ENDBRANCH  23  28
ENDBRANCH  19  23
ENDBRANCH  18  20
ENDBRANCH  17  18
ENDBRANCH   1  17
TORSDOF 8
