REMARK  Name = ZINC24421414
REMARK  8 active torsions:
REMARK  status: ('A' for Active; 'I' for Inactive)
REMARK    1  A    between atoms: C_1  and  C_2
REMARK    2  A    between atoms: C_2  and  C_3
REMARK    3  A    between atoms: C_2  and  C_4
REMARK    4  A    between atoms: C_7  and  C_10
REMARK    5  A    between atoms: C_10  and  C_29
REMARK    6  A    between atoms: N_13  and  C_17
REMARK    7  A    between atoms: C_17  and  C_18
REMARK    8  A    between atoms: C_23  and  C_26
REMARK                            x       y       z     vdW  Elec       q    Type
REMARK                         _______ _______ _______ _____ _____    ______ ____
ROOT
ATOM      1  C   UNL     1      -3.673   8.912   5.527  0.00  0.00    +0.135 C 
ATOM      2  C   UNL     1      -3.062   7.626   5.008  0.00  0.00    +0.251 C 
ATOM      3  O   UNL     1      -3.223   6.508   5.450  0.00  0.00    -0.272 OA
ATOM      4  N   UNL     1      -2.304   7.982   3.952  0.00  0.00    -0.215 N 
ATOM      5  C   UNL     1      -2.347   9.302   3.737  0.00  0.00    +0.310 C 
ATOM      6  O   UNL     1      -1.741   9.861   2.844  0.00  0.00    -0.252 OA
ATOM      7  N   UNL     1      -3.138   9.941   4.618  0.00  0.00    -0.281 N 
ATOM      8  C   UNL     1      -5.199   8.856   5.442  0.00  0.00    +0.047 C 
ATOM      9  H   UNL     1      -3.420  10.995   4.754  0.00  0.00    +0.152 HD
ENDROOT
BRANCH   1  13
ATOM     10  C   UNL     1      -2.422   9.657   9.543  0.00  0.00    -0.045 A 
ATOM     11  C   UNL     1      -2.712  10.715   8.702  0.00  0.00    +0.004 A 
ATOM     12  C   UNL     1      -3.117  10.474   7.402  0.00  0.00    +0.006 A 
ATOM     13  C   UNL     1      -3.231   9.175   6.944  0.00  0.00    -0.015 A 
ATOM     14  C   UNL     1      -2.946   8.117   7.786  0.00  0.00    +0.006 A 
ATOM     15  C   UNL     1      -2.536   8.358   9.084  0.00  0.00    +0.004 A 
BRANCH  10  17
ATOM     16  C   UNL     1      -2.970   9.270  11.930  0.00  0.00    +0.012 C 
ATOM     17  C   UNL     1      -1.981   9.920  10.960  0.00  0.00    +0.013 C 
ATOM     18  C   UNL     1      -0.588   9.327  11.179  0.00  0.00    +0.012 C 
ENDBRANCH  10  17
ENDBRANCH   1  13
BRANCH   4  19
ATOM     19  C   UNL     1      -1.525   7.041   3.143  0.00  0.00    +0.213 C 
BRANCH  19  20
ATOM     20  C   UNL     1      -2.372   6.536   2.004  0.00  0.00    +0.234 C 
ATOM     21  O   UNL     1      -3.515   6.924   1.880  0.00  0.00    -0.274 OA
ATOM     22  N   UNL     1      -1.861   5.654   1.123  0.00  0.00    -0.300 N 
ATOM     23  C   UNL     1      -2.675   5.152   0.008  0.00  0.00    +0.108 C 
ATOM     24  C   UNL     1      -2.658   3.621   0.034  0.00  0.00    +0.032 C 
ATOM     25  C   UNL     1      -1.208   3.131   0.025  0.00  0.00    +0.078 C 
ATOM     26  C   UNL     1      -0.486   3.643   1.273  0.00  0.00    +0.032 C 
ATOM     27  C   UNL     1      -0.478   5.175   1.260  0.00  0.00    +0.108 C 
BRANCH  25  28
ATOM     28  C   UNL     1      -1.187   1.624   0.017  0.00  0.00    +0.214 C 
ATOM     29  O   UNL     1      -2.229   1.003   0.018  0.00  0.00    -0.276 OA
ATOM     30  N   UNL     1      -0.011   0.966   0.007  0.00  0.00    -0.329 N 
ATOM     31  H   UNL     1       0.004  -0.134   0.001  0.00  0.00    +0.145 HD
ATOM     32  H   UNL     1       0.934   1.529   0.006  0.00  0.00    +0.145 HD
ENDBRANCH  25  28
ENDBRANCH  19  20
ENDBRANCH   4  19
TORSDOF 5
