REMARK  Name = ZINC21177617
REMARK  3 active torsions:
REMARK  status: ('A' for Active; 'I' for Inactive)
REMARK    1  A    between atoms: C_1  and  C_2
REMARK    2  A    between atoms: C_20  and  C_22
REMARK    3  A    between atoms: C_26  and  O_28
REMARK                            x       y       z     vdW  Elec       q    Type
REMARK                         _______ _______ _______ _____ _____    ______ ____
ROOT
ATOM      1  C   UNL     1       5.366  -6.711  -0.091  0.00  0.00    +0.068 C 
ATOM      2  C   UNL     1       4.195  -5.762  -0.073  0.00  0.00    +0.066 A 
ATOM      3  C   UNL     1       2.856  -6.125  -0.066  0.00  0.00    +0.023 A 
ATOM      4  C   UNL     1       2.107  -4.978  -0.039  0.00  0.00    +0.135 A 
ATOM      5  N   UNL     1       2.963  -3.933  -0.047  0.00  0.00    -0.193 N 
ATOM      6  N   UNL     1       4.268  -4.452  -0.061  0.00  0.00    -0.168 NA
ATOM      7  C   UNL     1       2.615  -2.587  -0.037  0.00  0.00    +0.196 A 
ATOM      8  N   UNL     1       1.420  -2.046  -0.023  0.00  0.00    -0.221 NA
ATOM      9  C   UNL     1       1.228  -0.710  -0.014  0.00  0.00    +0.081 A 
ATOM     10  C   UNL     1       0.002  -0.004   0.002  0.00  0.00    +0.029 A 
ATOM     11  C   UNL     1      -0.017   1.366   0.010  0.00  0.00    +0.002 A 
ATOM     12  C   UNL     1       1.157   2.107   0.002  0.00  0.00    +0.001 A 
ATOM     13  C   UNL     1       2.373   1.450  -0.013  0.00  0.00    +0.017 A 
ATOM     14  C   UNL     1       2.402   0.078  -0.021  0.00  0.00    +0.041 A 
ATOM     15  S   UNL     1       3.682  -1.153  -0.040  0.00  0.00    -0.048 S 
ATOM     16  N   UNL     1       0.714  -5.009  -0.039  0.00  0.00    -0.270 N 
ATOM     17  C   UNL     1       0.106  -6.194   0.179  0.00  0.00    +0.219 C 
ATOM     18  O   UNL     1      -1.093  -6.279   0.018  0.00  0.00    -0.275 OA
ATOM     19  C   UNL     1       0.869  -7.413   0.616  0.00  0.00    +0.109 C 
ATOM     20  C   UNL     1       2.229  -7.496  -0.084  0.00  0.00    +0.063 C 
ATOM     21  H   UNL     1       0.143  -4.085  -0.214  0.00  0.00    +0.156 HD
ENDROOT
BRANCH  20  22
ATOM     22  C   UNL     1       2.040  -7.949  -1.509  0.00  0.00    -0.036 A 
ATOM     23  C   UNL     1       1.247  -7.212  -2.369  0.00  0.00    +0.004 A 
ATOM     24  C   UNL     1       1.072  -7.625  -3.676  0.00  0.00    +0.004 A 
ATOM     25  C   UNL     1       1.688  -8.776  -4.127  0.00  0.00    +0.045 A 
ATOM     26  C   UNL     1       2.484  -9.517  -3.267  0.00  0.00    +0.117 A 
ATOM     27  C   UNL     1       2.663  -9.098  -1.956  0.00  0.00    +0.049 A 
BRANCH  26  28
ATOM     28  O   UNL     1       3.092 -10.650  -3.707  0.00  0.00    -0.507 OA
ATOM     29  H   UNL     1       3.723 -11.238  -3.024  0.00  0.00    +0.292 HD
ENDBRANCH  26  28
ENDBRANCH  20  22
TORSDOF 2
