REMARK  Name = ZINC64891183
REMARK  10 active torsions:
REMARK  status: ('A' for Active; 'I' for Inactive)
REMARK    1  A    between atoms: C_1  and  C_2
REMARK    2  A    between atoms: C_2  and  C_3
REMARK    3  A    between atoms: C_3  and  N_4
REMARK    4  A    between atoms: C_8  and  C_15
REMARK    5  A    between atoms: C_18  and  C_21
REMARK    6  A    between atoms: C_21  and  C_23
REMARK    7  A    between atoms: C_21  and  N_26
REMARK    8  A    between atoms: C_23  and  C_24
REMARK    9  A    between atoms: C_23  and  C_25
REMARK   10  A    between atoms: C_27  and  C_29
REMARK                            x       y       z     vdW  Elec       q    Type
REMARK                         _______ _______ _______ _____ _____    ______ ____
ROOT
ATOM      1  C   UNL     1      -2.571  -6.052   3.191  0.00  0.00    +0.168 C 
ATOM      2  N   UNL     1      -2.275  -7.300   3.027  0.00  0.00    -0.067 NA
ATOM      3  O   UNL     1      -3.261  -8.134   3.605  0.00  0.00    -0.367 OA
ATOM      4  C   UNL     1      -4.251  -7.263   4.173  0.00  0.00    +0.312 C 
ATOM      5  N   UNL     1      -3.759  -5.907   3.885  0.00  0.00    -0.288 N 
ATOM      6  H   UNL     1      -4.186  -5.072   4.132  0.00  0.00    +0.151 HD
ENDROOT
BRANCH   1  11
ATOM      7  N   UNL     1       0.762  -1.976   1.234  0.00  0.00    -0.292 N 
ATOM      8  C   UNL     1      -0.202  -2.805   1.798  0.00  0.00    +0.070 A 
ATOM      9  C   UNL     1      -1.382  -2.558   2.486  0.00  0.00    +0.029 A 
ATOM     10  C   UNL     1      -2.150  -3.609   2.937  0.00  0.00    +0.013 A 
ATOM     11  C   UNL     1      -1.744  -4.926   2.704  0.00  0.00    +0.020 A 
ATOM     12  C   UNL     1      -0.560  -5.178   2.013  0.00  0.00    +0.039 A 
ATOM     13  C   UNL     1       0.209  -4.120   1.561  0.00  0.00    +0.068 A 
ATOM     14  N   UNL     1       1.411  -4.046   0.859  0.00  0.00    -0.306 N 
ATOM     15  H   UNL     1       1.937  -4.801   0.553  0.00  0.00    +0.170 HD
ATOM     16  C   UNL     1       1.713  -2.747   0.674  0.00  0.00    +0.328 A 
ATOM     17  O   UNL     1       2.697  -2.333   0.091  0.00  0.00    -0.247 OA
BRANCH   7  18
ATOM     18  C   UNL     1       0.742  -0.511   1.242  0.00  0.00    +0.127 C 
BRANCH  18  20
ATOM     19  C   UNL     1      -0.019   1.526   0.010  0.00  0.00    +0.005 C 
ATOM     20  C   UNL     1       0.002  -0.004   0.002  0.00  0.00    +0.018 C 
ENDBRANCH  18  20
ENDBRANCH   7  18
ENDBRANCH   1  11
BRANCH   4  21
ATOM     21  C   UNL     1      -4.351  -7.482   5.684  0.00  0.00    +0.138 C 
BRANCH  21  22
ATOM     22  N   UNL     1      -5.340  -6.560   6.247  0.00  0.00    -0.300 N 
ATOM     23  C   UNL     1      -5.262  -6.196   7.543  0.00  0.00    +0.280 C 
ATOM     24  O   UNL     1      -4.370  -6.633   8.245  0.00  0.00    -0.267 OA
ATOM     25  H   UNL     1      -6.052  -6.211   5.688  0.00  0.00    +0.150 HD
BRANCH  23  26
ATOM     26  C   UNL     1      -6.253  -5.273   8.106  0.00  0.00    +0.189 A 
ATOM     27  C   UNL     1      -6.287  -4.821   9.394  0.00  0.00    +0.054 A 
ATOM     28  C   UNL     1      -7.394  -3.964   9.492  0.00  0.00    +0.042 A 
ATOM     29  C   UNL     1      -7.981  -3.931   8.275  0.00  0.00    +0.196 A 
ATOM     30  O   UNL     1      -7.287  -4.717   7.441  0.00  0.00    -0.458 OA
ENDBRANCH  23  26
ENDBRANCH  21  22
BRANCH  21  31
ATOM     31  C   UNL     1      -4.780  -8.924   5.963  0.00  0.00    +0.008 C 
ATOM     32  C   UNL     1      -4.880  -9.143   7.474  0.00  0.00    +0.009 C 
ATOM     33  C   UNL     1      -6.144  -9.183   5.319  0.00  0.00    +0.009 C 
ENDBRANCH  21  31
ENDBRANCH   4  21
TORSDOF 7
