REMARK  Name = ZINC40953728
REMARK  8 active torsions:
REMARK  status: ('A' for Active; 'I' for Inactive)
REMARK    1  A    between atoms: C_1  and  C_2
REMARK    2  A    between atoms: C_2  and  C_3
REMARK    3  A    between atoms: C_2  and  C_4
REMARK    4  A    between atoms: C_2  and  N_5
REMARK    5  A    between atoms: N_5  and  C_6
REMARK    6  A    between atoms: C_6  and  C_7
REMARK    7  A    between atoms: C_14  and  C_23
REMARK    8  A    between atoms: C_15  and  C_16
REMARK                            x       y       z     vdW  Elec       q    Type
REMARK                         _______ _______ _______ _____ _____    ______ ____
ROOT
ATOM      1  C   UNL     1       2.773  -0.455  -2.457  0.00  0.00    -0.060 A 
ATOM      2  C   UNL     1       3.378  -1.721  -2.473  0.00  0.00    +0.020 A 
ATOM      3  C   UNL     1       4.011  -2.158  -3.585  0.00  0.00    +0.093 A 
ATOM      4  N   UNL     1       4.070  -1.379  -4.701  0.00  0.00    -0.297 N 
ATOM      5  C   UNL     1       3.489  -0.139  -4.717  0.00  0.00    +0.139 A 
ATOM      6  C   UNL     1       2.821   0.329  -3.568  0.00  0.00    +0.048 A 
ATOM      7  N   UNL     1       3.686   0.410  -5.910  0.00  0.00    -0.227 NA
ATOM      8  C   UNL     1       4.380  -0.431  -6.682  0.00  0.00    +0.099 A 
ATOM      9  C   UNL     1       4.639  -1.579  -5.941  0.00  0.00    +0.100 A 
ENDROOT
BRANCH   9  10
ATOM     10  C   UNL     1       5.375  -2.770  -6.390  0.00  0.00    +0.095 A 
ATOM     11  C   UNL     1       6.008  -3.610  -5.461  0.00  0.00    +0.050 A 
ATOM     12  C   UNL     1       6.686  -4.716  -5.931  0.00  0.00    +0.116 A 
ATOM     13  N   UNL     1       6.719  -4.952  -7.235  0.00  0.00    -0.223 NA
ATOM     14  C   UNL     1       6.113  -4.143  -8.093  0.00  0.00    +0.213 A 
ATOM     15  N   UNL     1       5.447  -3.074  -7.689  0.00  0.00    -0.213 NA
ATOM     16  N   UNL     1       6.173  -4.428  -9.446  0.00  0.00    -0.327 N 
ATOM     17  H   UNL     1       6.655  -5.211  -9.756  0.00  0.00    +0.145 HD
ATOM     18  H   UNL     1       5.734  -3.845 -10.084  0.00  0.00    +0.145 HD
ENDBRANCH   9  10
BRANCH   8  19
ATOM     19  C   UNL     1       4.799  -0.185  -8.082  0.00  0.00    +0.003 A 
ATOM     20  C   UNL     1       6.016  -0.683  -8.545  0.00  0.00    +0.013 A 
ATOM     21  C   UNL     1       6.403  -0.452  -9.849  0.00  0.00    +0.039 A 
ATOM     22  C   UNL     1       5.583   0.274 -10.698  0.00  0.00    +0.123 A 
ATOM     23  C   UNL     1       4.372   0.771 -10.242  0.00  0.00    +0.039 A 
ATOM     24  C   UNL     1       3.976   0.541  -8.942  0.00  0.00    +0.013 A 
ATOM     25  F   UNL     1       5.965   0.499 -11.975  0.00  0.00    -0.205 F 
ENDBRANCH   8  19
BRANCH   1  26
ATOM     26  C   UNL     1       2.068   0.031  -1.217  0.00  0.00    -0.046 C 
BRANCH  26  27
ATOM     27  N   UNL     1       0.690  -0.478  -1.207  0.00  0.00    +0.385 N 
ATOM     28  H   UNL     1       0.703  -1.487  -1.212  0.00  0.00    -0.085 HD
ATOM     29  H   UNL     1       0.202  -0.144  -2.024  0.00  0.00    -0.085 HD
BRANCH  27  31
ATOM     30  C   UNL     1      -0.019   1.526   0.010  0.00  0.00    -0.011 C 
ATOM     31  C   UNL     1       0.002  -0.004   0.002  0.00  0.00    -0.077 C 
ATOM     32  C   UNL     1       0.742  -0.511   1.242  0.00  0.00    -0.011 C 
ATOM     33  C   UNL     1      -1.433  -0.534   0.013  0.00  0.00    -0.011 C 
ENDBRANCH  27  31
ENDBRANCH  26  27
ENDBRANCH   1  26
TORSDOF 5
