REMARK  Name = ZINC10065765
REMARK  14 active torsions:
REMARK  status: ('A' for Active; 'I' for Inactive)
REMARK    1  A    between atoms: C_1  and  C_2
REMARK    2  A    between atoms: C_2  and  N_3
REMARK    3  A    between atoms: N_3  and  C_4
REMARK    4  A    between atoms: N_3  and  S_6
REMARK    5  A    between atoms: C_4  and  C_5
REMARK    6  A    between atoms: S_6  and  C_9
REMARK    7  A    between atoms: C_12  and  C_15
REMARK    8  A    between atoms: N_17  and  C_18
REMARK    9  A    between atoms: C_18  and  C_19
REMARK   10  A    between atoms: C_19  and  N_63
REMARK   11  A    between atoms: C_20  and  N_63
REMARK   12  A    between atoms: C_21  and  N_63
REMARK   13  A    between atoms: C_25  and  O_31
REMARK   14  A    between atoms: O_31  and  C_32
REMARK                            x       y       z     vdW  Elec       q    Type
REMARK                         _______ _______ _______ _____ _____    ______ ____
ROOT
ATOM      1  C   UNL     1       1.952  -4.295  -0.440  0.00  0.00    +0.252 C 
ATOM      2  O   UNL     1       0.979  -3.819   0.110  0.00  0.00    -0.270 OA
ATOM      3  N   UNL     1       3.031  -3.525  -0.685  0.00  0.00    -0.248 N 
ATOM      4  C   UNL     1       2.981  -2.163  -0.438  0.00  0.00    +0.168 A 
ATOM      5  N   UNL     1       1.985  -1.447   0.029  0.00  0.00    -0.221 NA
ATOM      6  C   UNL     1       2.078  -0.113   0.222  0.00  0.00    +0.122 A 
ATOM      7  C   UNL     1       1.085   0.771   0.716  0.00  0.00    +0.146 A 
ATOM      8  C   UNL     1       1.348   2.114   0.851  0.00  0.00    +0.048 A 
ATOM      9  C   UNL     1       2.583   2.647   0.512  0.00  0.00    +0.005 A 
ATOM     10  C   UNL     1       3.572   1.812   0.028  0.00  0.00    +0.017 A 
ATOM     11  C   UNL     1       3.320   0.469  -0.112  0.00  0.00    +0.044 A 
ATOM     12  S   UNL     1       4.256  -0.933  -0.673  0.00  0.00    -0.052 S 
ENDROOT
BRANCH   1  16
ATOM     13  C   UNL     1       1.955  -8.383  -1.589  0.00  0.00    +0.106 A 
ATOM     14  C   UNL     1       0.766  -7.676  -1.562  0.00  0.00    +0.029 A 
ATOM     15  C   UNL     1       0.758  -6.348  -1.189  0.00  0.00    +0.015 A 
ATOM     16  C   UNL     1       1.953  -5.718  -0.840  0.00  0.00    +0.037 A 
ATOM     17  C   UNL     1       3.150  -6.435  -0.875  0.00  0.00    +0.015 A 
ATOM     18  C   UNL     1       3.143  -7.764  -1.244  0.00  0.00    +0.029 A 
BRANCH  13  19
ATOM     19  S   UNL     1       1.956 -10.080  -2.066  0.00  0.00    +0.061 S 
ATOM     20  O   UNL     1       3.114 -10.664  -1.486  0.00  0.00    -0.153 OA
ATOM     21  O   UNL     1       0.647 -10.573  -1.815  0.00  0.00    -0.153 OA
BRANCH  19  22
ATOM     22  N   UNL     1       2.173 -10.127  -3.707  0.00  0.00    -0.177 NA
BRANCH  22  24
ATOM     23  C   UNL     1       3.891 -11.655  -4.541  0.00  0.00    +0.022 C 
ATOM     24  C   UNL     1       3.526 -10.195  -4.265  0.00  0.00    +0.106 C 
ENDBRANCH  22  24
BRANCH  22  25
ATOM     25  C   UNL     1       1.013 -10.102  -4.601  0.00  0.00    +0.106 C 
ATOM     26  C   UNL     1       0.743  -8.663  -5.045  0.00  0.00    +0.022 C 
ENDBRANCH  22  25
ENDBRANCH  19  22
ENDBRANCH  13  19
ENDBRANCH   1  16
BRANCH   7  27
ATOM     27  O   UNL     1      -0.138   0.286   1.059  0.00  0.00    -0.493 OA
ATOM     28  C   UNL     1      -1.094   1.228   1.550  0.00  0.00    +0.277 C 
ENDBRANCH   7  27
BRANCH   3  29
ATOM     29  C   UNL     1       4.257  -4.129  -1.213  0.00  0.00    +0.097 C 
BRANCH  29  30
ATOM     30  C   UNL     1       5.255  -4.338  -0.072  0.00  0.00    -0.060 C 
BRANCH  30  33
ATOM     31  C   UNL     1       7.571  -4.848   0.416  0.00  0.00    -0.097 C 
ATOM     32  C   UNL     1       6.362  -6.158  -1.223  0.00  0.00    -0.097 C 
ATOM     33  N   UNL     1       6.535  -4.811  -0.638  0.00  0.00    +0.377 N 
ATOM     34  H   UNL     1       6.833  -4.163  -1.376  0.00  0.00    -0.083 HD
ENDBRANCH  30  33
ENDBRANCH  29  30
ENDBRANCH   3  29
TORSDOF 9
