REMARK  Name = ZINC39946242
REMARK  7 active torsions:
REMARK  status: ('A' for Active; 'I' for Inactive)
REMARK    1  A    between atoms: C_4  and  C_7
REMARK    2  A    between atoms: C_9  and  C_12
REMARK    3  A    between atoms: C_12  and  S_13
REMARK    4  A    between atoms: S_13  and  C_14
REMARK    5  A    between atoms: C_18  and  C_27
REMARK    6  A    between atoms: N_19  and  C_20
REMARK    7  A    between atoms: C_20  and  C_21
REMARK                            x       y       z     vdW  Elec       q    Type
REMARK                         _______ _______ _______ _____ _____    ______ ____
ROOT
ATOM      1  C   UNL     1       5.876  -6.078  -1.809  0.00  0.00    +0.237 C 
ATOM      2  N   UNL     1       4.659  -6.462  -1.074  0.00  0.00    -0.237 N 
ATOM      3  N   UNL     1       5.078  -7.254   0.002  0.00  0.00    -0.169 NA
ATOM      4  C   UNL     1       6.377  -7.395   0.010  0.00  0.00    +0.147 C 
ATOM      5  N   UNL     1       6.971  -6.715  -1.060  0.00  0.00    -0.283 N 
ATOM      6  H   UNL     1       3.747  -6.215  -1.292  0.00  0.00    +0.171 HD
ENDROOT
BRANCH   4   7
ATOM      7  C   UNL     1       7.086  -8.135   0.969  0.00  0.00    +0.022 C 
ATOM      8  C   UNL     1       6.553  -8.919   1.993  0.00  0.00    +0.006 A 
ATOM      9  C   UNL     1       5.228  -9.211   2.378  0.00  0.00    +0.010 A 
ATOM     10  C   UNL     1       4.999 -10.026   3.440  0.00  0.00    +0.001 A 
ATOM     11  C   UNL     1       6.049 -10.590   4.168  0.00  0.00    +0.002 A 
ATOM     12  C   UNL     1       7.346 -10.353   3.854  0.00  0.00    +0.026 A 
ATOM     13  C   UNL     1       7.663  -9.511   2.757  0.00  0.00    +0.043 A 
ATOM     14  N   UNL     1       8.823  -9.131   2.256  0.00  0.00    -0.380 N 
ATOM     15  C   UNL     1       8.588  -8.254   1.105  0.00  0.00    +0.152 C 
ATOM     16  H   UNL     1       9.693  -9.393   2.593  0.00  0.00    +0.160 HD
ENDBRANCH   4   7
BRANCH   1  17
ATOM     17  S   UNL     1       6.073  -4.275  -1.811  0.00  0.00    -0.112 S 
BRANCH  17  18
ATOM     18  C   UNL     1       6.089  -3.833  -0.052  0.00  0.00    +0.128 C 
BRANCH  18  21
ATOM     19  C   UNL     1       5.304  -0.252   0.256  0.00  0.00    +0.109 A 
ATOM     20  N   UNL     1       5.191  -1.567   0.131  0.00  0.00    -0.243 NA
ATOM     21  C   UNL     1       6.250  -2.341   0.090  0.00  0.00    +0.059 A 
ATOM     22  C   UNL     1       7.492  -1.795   0.175  0.00  0.00    +0.071 A 
ATOM     23  S   UNL     1       7.080  -0.060   0.316  0.00  0.00    -0.075 S 
BRANCH  19  27
ATOM     24  C   UNL     1       2.264   2.709   0.442  0.00  0.00    +0.000 A 
ATOM     25  C   UNL     1       3.595   3.083   0.508  0.00  0.00    +0.001 A 
ATOM     26  C   UNL     1       4.587   2.126   0.449  0.00  0.00    +0.010 A 
ATOM     27  C   UNL     1       4.246   0.778   0.321  0.00  0.00    +0.007 A 
ATOM     28  C   UNL     1       2.902   0.408   0.255  0.00  0.00    +0.010 A 
ATOM     29  C   UNL     1       1.919   1.375   0.316  0.00  0.00    +0.001 A 
ENDBRANCH  19  27
ENDBRANCH  18  21
ENDBRANCH  17  18
ENDBRANCH   1  17
BRANCH   5  30
ATOM     30  C   UNL     1       8.401  -6.649  -1.373  0.00  0.00    +0.140 C 
BRANCH  30  31
ATOM     31  C   UNL     1       8.795  -7.862  -2.218  0.00  0.00    +0.136 C 
ATOM     32  C   UNL     1      10.316  -7.848  -2.478  0.00  0.00    +0.035 C 
ATOM     33  C   UNL     1      10.404  -8.331  -3.951  0.00  0.00    +0.031 C 
ATOM     34  C   UNL     1       9.112  -7.711  -4.541  0.00  0.00    +0.160 C 
ATOM     35  O   UNL     1       8.136  -7.804  -3.489  0.00  0.00    -0.375 OA
ENDBRANCH  30  31
ENDBRANCH   5  30
TORSDOF 7
