REMARK  Name = ZINC59790277
REMARK  7 active torsions:
REMARK  status: ('A' for Active; 'I' for Inactive)
REMARK    1  A    between atoms: C_3  and  N_27
REMARK    2  A    between atoms: C_6  and  C_7
REMARK    3  A    between atoms: C_10  and  S_13
REMARK    4  A    between atoms: N_11  and  N_12
REMARK    5  A    between atoms: S_13  and  C_14
REMARK    6  A    between atoms: C_14  and  C_15
REMARK    7  A    between atoms: C_15  and  C_17
REMARK                            x       y       z     vdW  Elec       q    Type
REMARK                         _______ _______ _______ _____ _____    ______ ____
ROOT
ATOM      1  C   UNL     1      -1.362  -0.667  -0.645  0.00  0.00    +0.182 A 
ATOM      2  N   UNL     1      -2.563  -0.182  -0.435  0.00  0.00    -0.127 NA
ATOM      3  N   UNL     1      -3.418  -1.140  -0.374  0.00  0.00    -0.121 NA
ATOM      4  C   UNL     1      -2.814  -2.296  -0.541  0.00  0.00    +0.209 A 
ATOM      5  N   UNL     1      -1.486  -2.035  -0.724  0.00  0.00    -0.224 N 
ENDROOT
BRANCH   1  11
ATOM      6  C   UNL     1      -0.163   1.490  -0.987  0.00  0.00    +0.014 A 
ATOM      7  C   UNL     1       1.008   2.210  -1.109  0.00  0.00    +0.033 A 
ATOM      8  C   UNL     1       2.231   1.568  -1.023  0.00  0.00    +0.126 A 
ATOM      9  C   UNL     1       2.288   0.202  -0.816  0.00  0.00    +0.033 A 
ATOM     10  C   UNL     1       1.125  -0.530  -0.693  0.00  0.00    +0.014 A 
ATOM     11  C   UNL     1      -0.111   0.111  -0.777  0.00  0.00    +0.021 A 
BRANCH   8  12
ATOM     12  N   UNL     1       3.483   2.348  -1.155  0.00  0.00    +0.056 N 
ATOM     13  O   UNL     1       3.435   3.542  -1.337  0.00  0.00    -0.126 OA
ATOM     14  O   UNL     1       4.553   1.790  -1.081  0.00  0.00    -0.126 OA
ENDBRANCH   8  12
ENDBRANCH   1  11
BRANCH   5  15
ATOM     15  N   UNL     1      -0.488  -2.943  -0.939  0.00  0.00    -0.295 N 
ATOM     16  H   UNL     1      -0.085  -3.250  -0.067  0.00  0.00    +0.163 HD
ATOM     17  H   UNL     1      -0.823  -3.727  -1.478  0.00  0.00    +0.163 HD
ENDBRANCH   5  15
BRANCH   4  18
ATOM     18  S   UNL     1      -3.576  -3.884  -0.535  0.00  0.00    -0.077 S 
BRANCH  18  19
ATOM     19  C   UNL     1      -5.332  -3.527  -0.254  0.00  0.00    +0.152 C 
BRANCH  19  20
ATOM     20  C   UNL     1      -6.109  -4.818  -0.226  0.00  0.00    +0.147 C 
ATOM     21  O   UNL     1      -5.537  -5.871  -0.381  0.00  0.00    -0.296 OA
BRANCH  20  22
ATOM     22  C   UNL     1      -7.599  -4.796  -0.006  0.00  0.00    +0.062 C 
ATOM     23  C   UNL     1      -7.893  -4.486   1.463  0.00  0.00    +0.000 C 
ATOM     24  C   UNL     1      -9.407  -4.464   1.687  0.00  0.00    +0.007 C 
ATOM     25  C   UNL     1      -9.996  -5.829   1.326  0.00  0.00    -0.010 C 
ATOM     26  C   UNL     1      -9.365  -6.906   2.211  0.00  0.00    +0.007 C 
ATOM     27  C   UNL     1      -7.852  -6.928   1.987  0.00  0.00    -0.010 C 
ATOM     28  C   UNL     1      -7.263  -5.563   2.348  0.00  0.00    +0.007 C 
ATOM     29  C   UNL     1      -7.558  -7.239   0.518  0.00  0.00    +0.007 C 
ATOM     30  C   UNL     1      -8.188  -6.162  -0.366  0.00  0.00    +0.000 C 
ATOM     31  C   UNL     1      -9.702  -6.139  -0.143  0.00  0.00    +0.007 C 
ENDBRANCH  20  22
ENDBRANCH  19  20
ENDBRANCH  18  19
ENDBRANCH   4  18
TORSDOF 7
