REMARK  Name = ZINC63503149
REMARK  8 active torsions:
REMARK  status: ('A' for Active; 'I' for Inactive)
REMARK    1  A    between atoms: C_4  and  C_7
REMARK    2  A    between atoms: C_7  and  N_8
REMARK    3  A    between atoms: C_9  and  C_11
REMARK    4  A    between atoms: C_11  and  C_13
REMARK    5  A    between atoms: C_11  and  N_23
REMARK    6  A    between atoms: C_13  and  C_14
REMARK    7  A    between atoms: C_24  and  O_26
REMARK    8  A    between atoms: O_26  and  C_27
REMARK                            x       y       z     vdW  Elec       q    Type
REMARK                         _______ _______ _______ _____ _____    ______ ____
ROOT
ATOM      1  C   UNL     1       5.934  -1.806   3.056  0.00  0.00    +0.166 C 
ENDROOT
BRANCH   1   3
ATOM      2  N   UNL     1       4.709  -0.407   1.425  0.00  0.00    -0.310 N 
ATOM      3  C   UNL     1       5.673  -1.321   1.653  0.00  0.00    +0.234 C 
ATOM      4  O   UNL     1       6.330  -1.754   0.730  0.00  0.00    -0.274 OA
ATOM      5  H   UNL     1       4.184  -0.061   2.163  0.00  0.00    +0.149 HD
BRANCH   2   6
ATOM      6  C   UNL     1       4.455   0.064   0.061  0.00  0.00    +0.139 C 
BRANCH   6  10
ATOM      7  C   UNL     1       1.287   2.928   0.108  0.00  0.00    +0.000 A 
ATOM      8  C   UNL     1       2.596   3.344   0.257  0.00  0.00    +0.000 A 
ATOM      9  C   UNL     1       3.622   2.417   0.242  0.00  0.00    +0.005 A 
ATOM     10  C   UNL     1       3.337   1.074   0.078  0.00  0.00    -0.030 A 
ATOM     11  C   UNL     1       2.027   0.658  -0.069  0.00  0.00    +0.005 A 
ATOM     12  C   UNL     1       1.002   1.585  -0.056  0.00  0.00    +0.000 A 
ENDBRANCH   6  10
ENDBRANCH   2   6
ENDBRANCH   1   3
BRANCH   1  13
ATOM     13  N   UNL     1       7.021  -2.788   3.039  0.00  0.00    -0.269 N 
ATOM     14  C   UNL     1       7.793  -2.957   4.131  0.00  0.00    +0.406 C 
ATOM     15  O   UNL     1       7.588  -2.295   5.129  0.00  0.00    -0.226 OA
ATOM     16  H   UNL     1       7.184  -3.316   2.243  0.00  0.00    +0.153 HD
BRANCH  14  17
ATOM     17  O   UNL     1       8.792  -3.860   4.115  0.00  0.00    -0.412 OA
BRANCH  17  18
ATOM     18  C   UNL     1       9.611  -3.925   5.199  0.00  0.00    +0.133 A 
ATOM     19  C   UNL     1      10.870  -3.345   5.154  0.00  0.00    +0.046 A 
ATOM     20  C   UNL     1      11.700  -3.412   6.256  0.00  0.00    +0.004 A 
ATOM     21  C   UNL     1      11.277  -4.058   7.403  0.00  0.00    +0.000 A 
ATOM     22  C   UNL     1      10.022  -4.638   7.450  0.00  0.00    +0.004 A 
ATOM     23  C   UNL     1       9.186  -4.567   6.353  0.00  0.00    +0.046 A 
ENDBRANCH  17  18
ENDBRANCH  14  17
ENDBRANCH   1  13
BRANCH   1  24
ATOM     24  C   UNL     1       4.667  -2.456   3.615  0.00  0.00    +0.065 C 
BRANCH  24  25
ATOM     25  C   UNL     1       4.299  -3.648   2.769  0.00  0.00    -0.039 C 
ATOM     26  C   UNL     1       4.639  -4.938   2.991  0.00  0.00    -0.001 A 
ATOM     27  C   UNL     1       5.424  -5.593   4.044  0.00  0.00    +0.010 A 
ATOM     28  C   UNL     1       5.597  -6.934   3.995  0.00  0.00    +0.001 A 
ATOM     29  C   UNL     1       5.047  -7.711   2.967  0.00  0.00    +0.002 A 
ATOM     30  C   UNL     1       4.315  -7.181   1.964  0.00  0.00    +0.026 A 
ATOM     31  C   UNL     1       4.069  -5.782   1.916  0.00  0.00    +0.043 A 
ATOM     32  N   UNL     1       3.402  -5.041   1.063  0.00  0.00    -0.380 N 
ATOM     33  C   UNL     1       3.470  -3.644   1.505  0.00  0.00    +0.144 C 
ATOM     34  H   UNL     1       2.939  -5.364   0.275  0.00  0.00    +0.160 HD
ENDBRANCH  24  25
ENDBRANCH   1  24
TORSDOF 8
