REMARK  Name = ZINC02791383
REMARK  5 active torsions:
REMARK  status: ('A' for Active; 'I' for Inactive)
REMARK    1  A    between atoms: C_4  and  C_7
REMARK    2  A    between atoms: C_7  and  N_8
REMARK    3  A    between atoms: C_9  and  C_15
REMARK    4  A    between atoms: C_19  and  C_30
REMARK    5  A    between atoms: C_22  and  C_26
REMARK                            x       y       z     vdW  Elec       q    Type
REMARK                         _______ _______ _______ _____ _____    ______ ____
ROOT
ATOM      1  C   UNL     1       5.360   1.413   1.516  0.00  0.00    +0.092 C 
ATOM      2  C   UNL     1       4.998   1.948   0.317  0.00  0.00    +0.071 C 
ATOM      3  C   UNL     1       5.602   3.217   0.203  0.00  0.00    +0.114 C 
ATOM      4  N   UNL     1       5.544   4.082  -0.778  0.00  0.00    -0.365 N 
ATOM      5  C   UNL     1       6.303   5.333  -0.671  0.00  0.00    +0.113 C 
ATOM      6  C   UNL     1       6.393   5.785   0.787  0.00  0.00    +0.062 C 
ATOM      7  C   UNL     1       7.053   4.684   1.631  0.00  0.00    +0.201 C 
ATOM      8  N   UNL     1       6.318   3.441   1.373  0.00  0.00    -0.226 N 
ATOM      9  N   UNL     1       6.178   2.315   2.178  0.00  0.00    -0.259 N 
ATOM     10  H   UNL     1       6.583   2.183   3.050  0.00  0.00    +0.170 HD
ATOM     11  H   UNL     1       5.007   3.899  -1.565  0.00  0.00    +0.161 HD
ENDROOT
BRANCH   1  13
ATOM     12  N   UNL     1       4.221  -0.852   1.328  0.00  0.00    -0.298 N 
ATOM     13  C   UNL     1       4.946   0.096   2.028  0.00  0.00    +0.178 A 
ATOM     14  N   UNL     1       5.201  -0.375   3.219  0.00  0.00    -0.152 NA
ATOM     15  N   UNL     1       4.636  -1.654   3.310  0.00  0.00    -0.254 N 
ATOM     16  H   UNL     1       4.668  -2.241   4.081  0.00  0.00    +0.191 HD
ATOM     17  C   UNL     1       4.035  -1.918   2.132  0.00  0.00    +0.176 A 
ATOM     18  S   UNL     1       3.190  -3.352   1.728  0.00  0.00    -0.011 S 
BRANCH  12  19
ATOM     19  C   UNL     1       3.735  -0.718  -0.047  0.00  0.00    +0.161 C 
BRANCH  19  23
ATOM     20  C   UNL     1      -0.343   0.555   0.000  0.00  0.00    +0.000 A 
ATOM     21  C   UNL     1       0.674   1.489   0.078  0.00  0.00    +0.000 A 
ATOM     22  C   UNL     1       1.994   1.077   0.063  0.00  0.00    +0.005 A 
ATOM     23  C   UNL     1       2.296  -0.269  -0.030  0.00  0.00    -0.028 A 
ATOM     24  C   UNL     1       1.280  -1.202  -0.106  0.00  0.00    +0.005 A 
ATOM     25  C   UNL     1      -0.040  -0.790  -0.093  0.00  0.00    +0.000 A 
ENDBRANCH  19  23
ENDBRANCH  12  19
ENDBRANCH   1  13
BRANCH   5  26
ATOM     26  C   UNL     1       7.693   5.119  -1.211  0.00  0.00    -0.025 A 
ATOM     27  C   UNL     1       8.362   3.938  -0.947  0.00  0.00    +0.007 A 
ATOM     28  C   UNL     1       9.638   3.740  -1.442  0.00  0.00    +0.020 A 
ATOM     29  C   UNL     1      10.245   4.724  -2.202  0.00  0.00    +0.041 A 
ATOM     30  C   UNL     1       9.575   5.906  -2.466  0.00  0.00    +0.020 A 
ATOM     31  C   UNL     1       8.297   6.100  -1.975  0.00  0.00    +0.007 A 
ATOM     32 CL   UNL     1      11.847   4.477  -2.823  0.00  0.00    -0.084 Cl
ENDBRANCH   5  26
BRANCH   7  33
ATOM     33  C   UNL     1       6.968   5.043   3.115  0.00  0.00    +0.410 C 
ATOM     34  F   UNL     1       5.625   5.169   3.488  0.00  0.00    -0.169 F 
ATOM     35  F   UNL     1       7.571   4.035   3.875  0.00  0.00    -0.169 F 
ATOM     36  F   UNL     1       7.630   6.255   3.340  0.00  0.00    -0.169 F 
ENDBRANCH   7  33
TORSDOF 5
