REMARK  Name = ZINC44460405
REMARK  6 active torsions:
REMARK  status: ('A' for Active; 'I' for Inactive)
REMARK    1  A    between atoms: C_1  and  C_2
REMARK    2  A    between atoms: C_13  and  O_15
REMARK    3  A    between atoms: N_21  and  N_22
REMARK    4  A    between atoms: N_22  and  C_23
REMARK    5  A    between atoms: C_23  and  N_25
REMARK    6  A    between atoms: C_28  and  C_29
REMARK                            x       y       z     vdW  Elec       q    Type
REMARK                         _______ _______ _______ _____ _____    ______ ____
ROOT
ATOM      1  C   UNL     1       1.105   2.590   0.499  0.00  0.00    +0.014 C 
ATOM      2  C   UNL     1       0.828   1.081   0.344  0.00  0.00    -0.003 C 
ATOM      3  C   UNL     1       1.276   0.682  -1.039  0.00  0.00    +0.010 C 
ATOM      4  C   UNL     1       1.472  -0.805  -1.253  0.00  0.00    +0.005 C 
ATOM      5  C   UNL     1       2.239  -1.494  -0.135  0.00  0.00    +0.002 C 
ATOM      6  C   UNL     1       1.662  -1.143   1.222  0.00  0.00    -0.003 C 
ATOM      7  C   UNL     1       1.555   0.354   1.482  0.00  0.00    +0.001 C 
ATOM      8  C   UNL     1       0.584   0.540   2.684  0.00  0.00    +0.007 C 
ATOM      9  C   UNL     1      -0.827   0.493   2.065  0.00  0.00    +0.032 C 
ATOM     10  C   UNL     1      -0.671   0.861   0.578  0.00  0.00    +0.121 C 
ATOM     11  C   UNL     1       2.398  -1.834   2.367  0.00  0.00    +0.008 C 
ATOM     12  C   UNL     1       3.897  -1.523   2.316  0.00  0.00    +0.031 C 
ATOM     13  C   UNL     1       4.395  -1.991   0.958  0.00  0.00    -0.062 C 
ATOM     14  C   UNL     1       5.377  -2.877   0.913  0.00  0.00    +0.024 C 
ATOM     15  C   UNL     1       5.830  -3.389  -0.391  0.00  0.00    +0.059 C 
ATOM     16  N   UNL     1       7.011  -3.897  -0.571  0.00  0.00    -0.186 NA
ATOM     17  C   UNL     1       4.804  -3.323  -1.507  0.00  0.00    +0.058 C 
ATOM     18  C   UNL     1       4.262  -1.901  -1.575  0.00  0.00    +0.017 C 
ATOM     19  C   UNL     1       3.743  -1.381  -0.250  0.00  0.00    -0.007 C 
ATOM     20  C   UNL     1       4.159   0.092  -0.227  0.00  0.00    +0.016 C 
ENDROOT
BRANCH  10  21
ATOM     21  O   UNL     1      -1.174  -0.188  -0.248  0.00  0.00    -0.391 OA
ATOM     22  H   UNL     1      -2.118  -0.361  -0.132  0.00  0.00    +0.210 HD
ENDBRANCH  10  21
BRANCH  16  23
ATOM     23  N   UNL     1       7.345  -4.475  -1.803  0.00  0.00    -0.218 N 
ATOM     24  H   UNL     1       6.670  -4.565  -2.495  0.00  0.00    +0.176 HD
BRANCH  23  25
ATOM     25  C   UNL     1       8.601  -4.907  -2.027  0.00  0.00    +0.147 C 
ATOM     26  S   UNL     1       9.009  -5.614  -3.532  0.00  0.00    -0.017 S 
BRANCH  25  27
ATOM     27  N   UNL     1       9.538  -4.782  -1.066  0.00  0.00    -0.339 N 
ATOM     28  H   UNL     1       9.307  -4.381  -0.213  0.00  0.00    +0.144 HD
ATOM     29  H   UNL     1      10.443  -5.092  -1.227  0.00  0.00    +0.144 HD
ENDBRANCH  25  27
ENDBRANCH  23  25
ENDBRANCH  16  23
TORSDOF 4
