REMARK  Name = ZINC63234745
REMARK  6 active torsions:
REMARK  status: ('A' for Active; 'I' for Inactive)
REMARK    1  A    between atoms: C_7  and  C_10
REMARK    2  A    between atoms: C_10  and  C_11
REMARK    3  A    between atoms: N_15  and  C_19
REMARK    4  A    between atoms: C_19  and  C_20
REMARK    5  A    between atoms: N_22  and  C_23
REMARK    6  A    between atoms: C_25  and  C_33
REMARK                            x       y       z     vdW  Elec       q    Type
REMARK                         _______ _______ _______ _____ _____    ______ ____
ROOT
ATOM      1  C   UNL     1       0.457  -3.653  -1.462  0.00  0.00    +0.165 C 
ATOM      2  C   UNL     1      -0.432  -4.881  -1.485  0.00  0.00    +0.244 C 
ATOM      3  O   UNL     1      -0.201  -5.962  -0.985  0.00  0.00    -0.273 OA
ATOM      4  N   UNL     1      -1.531  -4.523  -2.176  0.00  0.00    -0.216 N 
ATOM      5  C   UNL     1      -1.462  -3.252  -2.589  0.00  0.00    +0.310 C 
ATOM      6  O   UNL     1      -2.335  -2.702  -3.231  0.00  0.00    -0.252 OA
ATOM      7  N   UNL     1      -0.315  -2.649  -2.214  0.00  0.00    -0.287 N 
ATOM      8  H   UNL     1      -0.050  -1.735  -2.401  0.00  0.00    +0.151 HD
ENDROOT
BRANCH   1   9
ATOM      9  C   UNL     1       0.691  -3.186  -0.024  0.00  0.00    +0.065 C 
BRANCH   9  16
ATOM     10  C   UNL     1      -0.016   1.348   0.009  0.00  0.00    +0.001 A 
ATOM     11  C   UNL     1       1.166   2.101   0.002  0.00  0.00    +0.002 A 
ATOM     12  C   UNL     1       2.391   1.535  -0.013  0.00  0.00    +0.026 A 
ATOM     13  C   UNL     1       2.529   0.120  -0.022  0.00  0.00    +0.043 A 
ATOM     14  N   UNL     1       3.587  -0.654  -0.037  0.00  0.00    -0.380 N 
ATOM     15  C   UNL     1       3.143  -2.053  -0.041  0.00  0.00    +0.144 C 
ATOM     16  C   UNL     1       1.631  -2.008  -0.025  0.00  0.00    -0.039 C 
ATOM     17  C   UNL     1       1.295  -0.698  -0.014  0.00  0.00    -0.001 A 
ATOM     18  C   UNL     1       0.002  -0.004   0.002  0.00  0.00    +0.010 A 
ATOM     19  H   UNL     1       4.509  -0.353  -0.045  0.00  0.00    +0.160 HD
ENDBRANCH   9  16
ENDBRANCH   1   9
BRANCH   4  20
ATOM     20  C   UNL     1      -2.663  -5.415  -2.444  0.00  0.00    +0.213 C 
BRANCH  20  21
ATOM     21  C   UNL     1      -3.670  -5.296  -1.330  0.00  0.00    +0.232 C 
ATOM     22  O   UNL     1      -3.464  -4.541  -0.403  0.00  0.00    -0.274 OA
ATOM     23  N   UNL     1      -4.801  -6.029  -1.363  0.00  0.00    -0.301 N 
ATOM     24  H   UNL     1      -4.966  -6.633  -2.104  0.00  0.00    +0.150 HD
BRANCH  23  25
ATOM     25  C   UNL     1      -5.780  -5.914  -0.280  0.00  0.00    +0.151 C 
ATOM     26  C   UNL     1      -7.228  -5.922  -0.820  0.00  0.00    +0.132 C 
ATOM     27  C   UNL     1      -7.805  -7.325  -0.847  0.00  0.00    -0.046 C 
ATOM     28  C   UNL     1      -7.223  -8.239  -0.092  0.00  0.00    -0.013 C 
ATOM     29  S   UNL     1      -5.851  -7.449   0.734  0.00  0.00    -0.106 S 
ATOM     30  C   UNL     1      -7.904  -9.583  -0.191  0.00  0.00    +0.042 C 
ATOM     31  C   UNL     1      -9.280  -9.275  -0.818  0.00  0.00    +0.009 C 
ATOM     32  C   UNL     1      -8.976  -7.977  -1.591  0.00  0.00    +0.033 C 
BRANCH  26  33
ATOM     33  C   UNL     1      -8.088  -5.055   0.063  0.00  0.00    +0.220 C 
ATOM     34  O   UNL     1      -9.027  -5.540   0.659  0.00  0.00    -0.275 OA
ATOM     35  N   UNL     1      -7.816  -3.742   0.189  0.00  0.00    -0.329 N 
ATOM     36  H   UNL     1      -7.065  -3.354  -0.288  0.00  0.00    +0.145 HD
ATOM     37  H   UNL     1      -8.369  -3.184   0.758  0.00  0.00    +0.145 HD
ENDBRANCH  26  33
ENDBRANCH  23  25
ENDBRANCH  20  21
ENDBRANCH   4  20
TORSDOF 6
