REMARK  Name = ZINC38738665
REMARK  9 active torsions:
REMARK  status: ('A' for Active; 'I' for Inactive)
REMARK    1  A    between atoms: C_1  and  C_2
REMARK    2  A    between atoms: N_4  and  C_5
REMARK    3  A    between atoms: C_8  and  C_33
REMARK    4  A    between atoms: N_11  and  C_12
REMARK    5  A    between atoms: C_15  and  C_18
REMARK    6  A    between atoms: N_20  and  C_21
REMARK    7  A    between atoms: N_20  and  C_22
REMARK    8  A    between atoms: C_22  and  C_23
REMARK    9  A    between atoms: C_23  and  C_24
REMARK                            x       y       z     vdW  Elec       q    Type
REMARK                         _______ _______ _______ _____ _____    ______ ____
ROOT
ATOM      1  C   UNL     1      -1.234  -1.530   2.261  0.00  0.00    +0.047 A 
ATOM      2  C   UNL     1      -0.258  -0.539   2.335  0.00  0.00    +0.025 A 
ATOM      3  C   UNL     1       0.417  -0.323   3.514  0.00  0.00    +0.015 A 
ATOM      4  C   UNL     1       0.123  -1.099   4.639  0.00  0.00    +0.037 A 
ATOM      5  C   UNL     1      -0.858  -2.092   4.562  0.00  0.00    +0.015 A 
ATOM      6  C   UNL     1      -1.534  -2.300   3.381  0.00  0.00    +0.025 A 
ENDROOT
BRANCH   1  11
ATOM      7  C   UNL     1      -2.470  -3.037   0.633  0.00  0.00    +0.178 C 
ATOM      8  C   UNL     1      -3.054  -2.782  -0.777  0.00  0.00    +0.068 C 
ATOM      9  C   UNL     1      -2.300  -1.487  -1.185  0.00  0.00    +0.106 C 
ATOM     10  N   UNL     1      -2.171  -0.787   0.119  0.00  0.00    -0.231 NA
ATOM     11  N   UNL     1      -1.915  -1.745   1.068  0.00  0.00    -0.246 N 
ATOM     12  H   UNL     1      -3.012  -0.276   0.340  0.00  0.00    +0.145 HD
BRANCH   9  13
ATOM     13  C   UNL     1      -3.114  -0.672  -2.157  0.00  0.00    -0.029 A 
ATOM     14  C   UNL     1      -4.134   0.138  -1.695  0.00  0.00    +0.005 A 
ATOM     15  C   UNL     1      -4.881   0.885  -2.586  0.00  0.00    +0.000 A 
ATOM     16  C   UNL     1      -4.607   0.823  -3.940  0.00  0.00    +0.000 A 
ATOM     17  C   UNL     1      -3.586   0.013  -4.402  0.00  0.00    +0.000 A 
ATOM     18  C   UNL     1      -2.837  -0.731  -3.510  0.00  0.00    +0.005 A 
ENDBRANCH   9  13
BRANCH   7  22
ATOM     19  C   UNL     1      -0.326  -6.118   1.378  0.00  0.00    +0.109 C 
ATOM     20  C   UNL     1      -1.342  -5.012   1.507  0.00  0.00    +0.211 C 
ATOM     21  O   UNL     1      -2.097  -4.989   2.456  0.00  0.00    -0.276 OA
ATOM     22  N   UNL     1      -1.412  -4.048   0.568  0.00  0.00    -0.296 N 
ATOM     23  H   UNL     1      -0.761  -4.023  -0.151  0.00  0.00    +0.151 HD
ENDBRANCH   7  22
ENDBRANCH   1  11
BRANCH   4  24
ATOM     24  C   UNL     1       0.846  -0.870   5.904  0.00  0.00    +0.246 C 
ATOM     25  O   UNL     1       0.235  -0.836   6.955  0.00  0.00    -0.270 OA
ATOM     26  N   UNL     1       2.182  -0.699   5.896  0.00  0.00    -0.300 N 
ATOM     27  C   UNL     1       2.905  -0.639   4.622  0.00  0.00    +0.132 C 
BRANCH  26  28
ATOM     28  C   UNL     1       2.913  -0.572   7.159  0.00  0.00    +0.112 C 
BRANCH  28  29
ATOM     29  C   UNL     1       3.351  -1.958   7.636  0.00  0.00    +0.056 C 
BRANCH  29  30
ATOM     30  C   UNL     1       4.103  -1.827   8.936  0.00  0.00    -0.021 A 
ATOM     31  C   UNL     1       3.518  -1.763  10.278  0.00  0.00    +0.003 A 
ATOM     32  C   UNL     1       2.212  -1.798  10.770  0.00  0.00    +0.010 A 
ATOM     33  C   UNL     1       1.993  -1.715  12.117  0.00  0.00    +0.001 A 
ATOM     34  C   UNL     1       3.058  -1.597  12.999  0.00  0.00    +0.002 A 
ATOM     35  C   UNL     1       4.354  -1.561  12.534  0.00  0.00    +0.026 A 
ATOM     36  C   UNL     1       4.601  -1.644  11.168  0.00  0.00    +0.047 A 
ATOM     37  N   UNL     1       5.751  -1.637  10.410  0.00  0.00    -0.360 N 
ATOM     38  C   UNL     1       5.434  -1.753   9.084  0.00  0.00    +0.087 A 
ATOM     39  H   UNL     1       6.651  -1.565  10.764  0.00  0.00    +0.165 HD
ENDBRANCH  29  30
ENDBRANCH  28  29
ENDBRANCH  26  28
ENDBRANCH   4  24
TORSDOF 7
