REMARK  Name = ZINC16097134
REMARK  7 active torsions:
REMARK  status: ('A' for Active; 'I' for Inactive)
REMARK    1  A    between atoms: C_1  and  C_2
REMARK    2  A    between atoms: C_2  and  C_4
REMARK    3  A    between atoms: C_2  and  N_10
REMARK    4  A    between atoms: C_11  and  C_13
REMARK    5  A    between atoms: C_18  and  N_19
REMARK    6  A    between atoms: N_19  and  S_20
REMARK    7  A    between atoms: S_20  and  C_23
REMARK                            x       y       z     vdW  Elec       q    Type
REMARK                         _______ _______ _______ _____ _____    ______ ____
ROOT
ATOM      1  C   UNL     1      -1.231   1.914  -0.399  0.00  0.00    +0.059 A 
ATOM      2  C   UNL     1      -1.199   3.296  -0.600  0.00  0.00    +0.015 A 
ATOM      3  C   UNL     1      -2.375   4.010  -0.658  0.00  0.00    +0.001 A 
ATOM      4  C   UNL     1      -3.594   3.365  -0.509  0.00  0.00    +0.002 A 
ATOM      5  C   UNL     1      -3.642   2.002  -0.305  0.00  0.00    +0.025 A 
ATOM      6  C   UNL     1      -2.466   1.264  -0.248  0.00  0.00    +0.060 A 
ENDROOT
BRANCH   1   8
ATOM      7  N   UNL     1       1.208   1.770  -0.491  0.00  0.00    -0.305 N 
ATOM      8  C   UNL     1       0.024   1.143  -0.340  0.00  0.00    +0.246 C 
ATOM      9  O   UNL     1      -0.008  -0.059  -0.161  0.00  0.00    -0.270 OA
ATOM     10  H   UNL     1       1.234   2.729  -0.634  0.00  0.00    +0.150 HD
BRANCH   7  12
ATOM     11  C   UNL     1       2.754   0.421  -1.821  0.00  0.00    +0.033 C 
ATOM     12  C   UNL     1       2.455   1.003  -0.439  0.00  0.00    +0.100 C 
BRANCH  12  13
ATOM     13  C   UNL     1       3.584   1.909  -0.020  0.00  0.00    -0.027 A 
ATOM     14  C   UNL     1       3.656   3.198  -0.515  0.00  0.00    +0.005 A 
ATOM     15  C   UNL     1       4.690   4.030  -0.128  0.00  0.00    +0.000 A 
ATOM     16  C   UNL     1       5.657   3.571   0.746  0.00  0.00    +0.000 A 
ATOM     17  C   UNL     1       5.587   2.281   1.238  0.00  0.00    +0.000 A 
ATOM     18  C   UNL     1       4.551   1.450   0.854  0.00  0.00    +0.005 A 
ENDBRANCH  12  13
ENDBRANCH   7  12
ENDBRANCH   1   8
BRANCH   6  19
ATOM     19  N   UNL     1      -2.512  -0.109  -0.043  0.00  0.00    -0.215 N 
ATOM     20  H   UNL     1      -1.826  -0.543   0.487  0.00  0.00    +0.174 HD
BRANCH  19  21
ATOM     21  S   UNL     1      -3.740  -1.004  -0.703  0.00  0.00    +0.073 S 
ATOM     22  O   UNL     1      -3.882  -0.568  -2.048  0.00  0.00    -0.150 OA
ATOM     23  O   UNL     1      -3.481  -2.359  -0.364  0.00  0.00    -0.150 OA
BRANCH  21  24
ATOM     24  C   UNL     1      -5.223  -0.550   0.133  0.00  0.00    +0.122 A 
ATOM     25  C   UNL     1      -6.254   0.051  -0.565  0.00  0.00    +0.030 A 
ATOM     26  C   UNL     1      -7.419   0.403   0.090  0.00  0.00    +0.002 A 
ATOM     27  C   UNL     1      -7.550   0.163   1.445  0.00  0.00    +0.001 A 
ATOM     28  C   UNL     1      -6.518  -0.433   2.145  0.00  0.00    +0.017 A 
ATOM     29  C   UNL     1      -5.354  -0.790   1.489  0.00  0.00    +0.044 A 
ATOM     30 BR   UNL     1      -3.941  -1.604   2.446  0.00  0.00    -0.048 Br
ENDBRANCH  21  24
ENDBRANCH  19  21
ENDBRANCH   6  19
TORSDOF 6
