REMARK  Name = ZINC20615226
REMARK  5 active torsions:
REMARK  status: ('A' for Active; 'I' for Inactive)
REMARK    1  A    between atoms: C_4  and  C_7
REMARK    2  A    between atoms: C_7  and  N_8
REMARK    3  A    between atoms: C_9  and  C_11
REMARK    4  A    between atoms: N_21  and  N_22
REMARK    5  A    between atoms: C_23  and  C_25
REMARK                            x       y       z     vdW  Elec       q    Type
REMARK                         _______ _______ _______ _____ _____    ______ ____
ROOT
ATOM      1  C   UNL     1       3.612   8.746   0.014  0.00  0.00    +0.098 A 
ATOM      2  C   UNL     1       3.296   9.971  -0.525  0.00  0.00    +0.030 A 
ATOM      3  C   UNL     1       1.938  10.151  -1.050  0.00  0.00    +0.018 A 
ATOM      4  C   UNL     1       1.621  11.256  -1.847  0.00  0.00    +0.011 A 
ATOM      5  C   UNL     1       0.338  11.402  -2.330  0.00  0.00    +0.001 A 
ATOM      6  C   UNL     1      -0.635  10.461  -2.031  0.00  0.00    +0.004 A 
ATOM      7  C   UNL     1      -0.336   9.365  -1.244  0.00  0.00    +0.047 A 
ATOM      8  C   UNL     1       0.947   9.200  -0.747  0.00  0.00    +0.137 A 
ATOM      9  O   UNL     1       1.254   8.132   0.026  0.00  0.00    -0.437 OA
ATOM     10  C   UNL     1       2.551   7.714   0.018  0.00  0.00    +0.224 A 
ATOM     11  N   UNL     1       2.848   6.442   0.009  0.00  0.00    -0.273 N 
ATOM     12  H   UNL     1       3.901   6.124  -0.002  0.00  0.00    +0.188 HD
ENDROOT
BRANCH   1  14
ATOM     13  N   UNL     1       5.231   7.261   1.084  0.00  0.00    -0.307 N 
ATOM     14  C   UNL     1       4.951   8.472   0.563  0.00  0.00    +0.249 C 
ATOM     15  O   UNL     1       5.804   9.338   0.547  0.00  0.00    -0.270 OA
ATOM     16  H   UNL     1       4.459   6.477   1.099  0.00  0.00    +0.149 HD
BRANCH  13  17
ATOM     17  C   UNL     1       6.562   6.988   1.631  0.00  0.00    +0.139 C 
BRANCH  17  21
ATOM     18  C   UNL     1       6.709   2.977   3.093  0.00  0.00    +0.000 A 
ATOM     19  C   UNL     1       7.049   3.247   1.780  0.00  0.00    +0.000 A 
ATOM     20  C   UNL     1       7.001   4.545   1.307  0.00  0.00    +0.005 A 
ATOM     21  C   UNL     1       6.614   5.573   2.147  0.00  0.00    -0.030 A 
ATOM     22  C   UNL     1       6.279   5.304   3.460  0.00  0.00    +0.005 A 
ATOM     23  C   UNL     1       6.321   4.005   3.932  0.00  0.00    +0.000 A 
ENDBRANCH  17  21
ENDBRANCH  13  17
ENDBRANCH   1  14
BRANCH  11  24
ATOM     24  N   UNL     1       1.826   5.484   0.013  0.00  0.00    -0.223 N 
ATOM     25  C   UNL     1       2.133   4.172   0.004  0.00  0.00    +0.268 C 
ATOM     26  O   UNL     1       3.299   3.819  -0.008  0.00  0.00    -0.268 OA
ATOM     27  H   UNL     1       0.773   5.803   0.024  0.00  0.00    +0.175 HD
BRANCH  25  28
ATOM     28  C   UNL     1       1.064   3.169   0.008  0.00  0.00    +0.075 A 
ATOM     29  C   UNL     1       1.162   1.786   0.001  0.00  0.00    +0.021 A 
ATOM     30  C   UNL     1      -0.013   1.076   0.008  0.00  0.00    +0.008 A 
ATOM     31  C   UNL     1      -1.194   1.747   0.017  0.00  0.00    +0.046 A 
ATOM     32  S   UNL     1      -0.704   3.410   0.026  0.00  0.00    -0.092 S 
ENDBRANCH  25  28
ENDBRANCH  11  24
TORSDOF 5
