REMARK  Name = ZINC63254449
REMARK  8 active torsions:
REMARK  status: ('A' for Active; 'I' for Inactive)
REMARK    1  A    between atoms: C_1  and  C_2
REMARK    2  A    between atoms: C_9  and  N_12
REMARK    3  A    between atoms: C_13  and  C_15
REMARK    4  A    between atoms: C_15  and  C_17
REMARK    5  A    between atoms: C_15  and  N_27
REMARK    6  A    between atoms: C_17  and  C_18
REMARK    7  A    between atoms: C_28  and  O_30
REMARK    8  A    between atoms: O_30  and  C_31
REMARK                            x       y       z     vdW  Elec       q    Type
REMARK                         _______ _______ _______ _____ _____    ______ ____
ROOT
ATOM      1  C   UNL     1       2.669  -7.333   3.012  0.00  0.00    +0.166 C 
ENDROOT
BRANCH   1   3
ATOM      2  N   UNL     1       1.063  -6.324   1.425  0.00  0.00    -0.287 N 
ATOM      3  C   UNL     1       1.295  -6.830   2.652  0.00  0.00    +0.236 C 
ATOM      4  O   UNL     1       0.398  -6.880   3.467  0.00  0.00    -0.274 OA
ATOM      5  H   UNL     1       1.780  -6.284   0.773  0.00  0.00    +0.151 HD
BRANCH   2  14
ATOM      6  C   UNL     1      -1.489  -0.021  -1.482  0.00  0.00    +0.044 C 
ATOM      7  C   UNL     1      -1.191  -1.472  -1.206  0.00  0.00    -0.049 A 
ATOM      8  C   UNL     1      -1.026  -2.365  -2.249  0.00  0.00    +0.005 A 
ATOM      9  C   UNL     1      -0.753  -3.692  -2.011  0.00  0.00    +0.024 A 
ATOM     10  C   UNL     1      -0.633  -4.187  -0.701  0.00  0.00    +0.043 A 
ATOM     11  C   UNL     1      -0.805  -3.260   0.332  0.00  0.00    +0.032 A 
ATOM     12  C   UNL     1      -1.072  -1.931   0.095  0.00  0.00    +0.020 A 
ATOM     13  S   UNL     1      -0.594  -4.191   1.832  0.00  0.00    -0.082 S 
ATOM     14  C   UNL     1      -0.273  -5.834   1.075  0.00  0.00    +0.224 C 
ATOM     15  N   UNL     1      -0.359  -5.510  -0.355  0.00  0.00    -0.316 N 
ATOM     16  H   UNL     1      -0.232  -6.191  -1.034  0.00  0.00    +0.149 HD
ENDBRANCH   2  14
ENDBRANCH   1   3
BRANCH   1  17
ATOM     17  N   UNL     1       2.662  -7.829   4.391  0.00  0.00    -0.269 N 
ATOM     18  C   UNL     1       3.531  -8.788   4.767  0.00  0.00    +0.406 C 
ATOM     19  O   UNL     1       4.321  -9.241   3.962  0.00  0.00    -0.226 OA
ATOM     20  H   UNL     1       2.031  -7.467   5.033  0.00  0.00    +0.153 HD
BRANCH  18  21
ATOM     21  O   UNL     1       3.525  -9.243   6.034  0.00  0.00    -0.412 OA
BRANCH  21  22
ATOM     22  C   UNL     1       4.344 -10.284   6.343  0.00  0.00    +0.133 A 
ATOM     23  C   UNL     1       3.824 -11.564   6.465  0.00  0.00    +0.046 A 
ATOM     24  C   UNL     1       4.658 -12.620   6.779  0.00  0.00    +0.004 A 
ATOM     25  C   UNL     1       6.010 -12.401   6.970  0.00  0.00    +0.000 A 
ATOM     26  C   UNL     1       6.530 -11.125   6.849  0.00  0.00    +0.004 A 
ATOM     27  C   UNL     1       5.701 -10.068   6.530  0.00  0.00    +0.046 A 
ENDBRANCH  21  22
ENDBRANCH  18  21
ENDBRANCH   1  17
BRANCH   1  28
ATOM     28  C   UNL     1       3.680  -6.192   2.886  0.00  0.00    +0.065 C 
BRANCH  28  29
ATOM     29  C   UNL     1       3.346  -5.112   3.883  0.00  0.00    -0.039 C 
ATOM     30  C   UNL     1       3.861  -4.964   5.124  0.00  0.00    -0.001 A 
ATOM     31  C   UNL     1       4.849  -5.734   5.889  0.00  0.00    +0.010 A 
ATOM     32  C   UNL     1       5.170  -5.331   7.140  0.00  0.00    +0.001 A 
ATOM     33  C   UNL     1       4.584  -4.199   7.722  0.00  0.00    +0.002 A 
ATOM     34  C   UNL     1       3.669  -3.441   7.082  0.00  0.00    +0.026 A 
ATOM     35  C   UNL     1       3.258  -3.772   5.762  0.00  0.00    +0.043 A 
ATOM     36  N   UNL     1       2.402  -3.206   4.946  0.00  0.00    -0.380 N 
ATOM     37  C   UNL     1       2.370  -3.972   3.695  0.00  0.00    +0.144 C 
ATOM     38  H   UNL     1       1.879  -2.411   5.136  0.00  0.00    +0.160 HD
ENDBRANCH  28  29
ENDBRANCH   1  28
TORSDOF 7
