REMARK  Name = ZINC35593319
REMARK  10 active torsions:
REMARK  status: ('A' for Active; 'I' for Inactive)
REMARK    1  A    between atoms: C_1  and  C_2
REMARK    2  A    between atoms: C_4  and  C_30
REMARK    3  A    between atoms: C_5  and  C_9
REMARK    4  A    between atoms: C_6  and  C_8
REMARK    5  A    between atoms: C_9  and  S_10
REMARK    6  A    between atoms: S_10  and  C_11
REMARK    7  A    between atoms: N_17  and  N_18
REMARK    8  A    between atoms: C_19  and  C_20
REMARK    9  A    between atoms: C_22  and  N_27
REMARK   10  A    between atoms: C_25  and  O_26
REMARK                            x       y       z     vdW  Elec       q    Type
REMARK                         _______ _______ _______ _____ _____    ______ ____
ROOT
ATOM      1  C   UNL     1       1.640  -6.512  -0.042  0.00  0.00    +0.191 A 
ATOM      2  N   UNL     1       2.671  -7.409  -0.048  0.00  0.00    -0.303 N 
ATOM      3  H   UNL     1       3.620  -7.207  -0.048  0.00  0.00    +0.171 HD
ATOM      4  C   UNL     1       2.092  -8.655  -0.053  0.00  0.00    +0.235 A 
ATOM      5  N   UNL     1       0.758  -8.476  -0.051  0.00  0.00    -0.111 NA
ATOM      6  N   UNL     1       0.492  -7.218  -0.039  0.00  0.00    -0.121 NA
ATOM      7  N   UNL     1       2.735  -9.827  -0.059  0.00  0.00    -0.205 N 
ATOM      8  H   UNL     1       3.704  -9.849  -0.061  0.00  0.00    +0.177 HD
ENDROOT
BRANCH   7   9
ATOM      9  N   UNL     1       2.065 -10.930  -0.063  0.00  0.00    -0.187 NA
ATOM     10  C   UNL     1       2.698 -12.085  -0.070  0.00  0.00    +0.142 C 
BRANCH  10  11
ATOM     11  C   UNL     1       1.963 -13.296  -0.075  0.00  0.00    +0.038 A 
ATOM     12  C   UNL     1       2.632 -14.532  -0.076  0.00  0.00    +0.045 A 
ATOM     13  C   UNL     1       1.917 -15.694  -0.080  0.00  0.00    +0.127 A 
ATOM     14  C   UNL     1       0.528 -15.669  -0.083  0.00  0.00    +0.036 A 
ATOM     15  C   UNL     1      -0.152 -14.467  -0.082  0.00  0.00    +0.048 A 
ATOM     16  C   UNL     1       0.550 -13.271  -0.072  0.00  0.00    +0.126 A 
BRANCH  13  17
ATOM     17  N   UNL     1       2.627 -16.993  -0.081  0.00  0.00    +0.056 N 
ATOM     18  O   UNL     1       3.944 -17.023  -0.079  0.00  0.00    -0.126 OA
ATOM     19  O   UNL     1       1.942 -18.118  -0.085  0.00  0.00    -0.126 OA
ENDBRANCH  13  17
BRANCH  16  20
ATOM     20  O   UNL     1      -0.112 -12.089  -0.066  0.00  0.00    -0.506 OA
ATOM     21  H   UNL     1      -0.306 -11.742  -0.948  0.00  0.00    +0.292 HD
ENDBRANCH  16  20
ENDBRANCH  10  11
ENDBRANCH   7   9
BRANCH   1  22
ATOM     22  S   UNL     1       1.777  -4.858  -0.034  0.00  0.00    -0.081 S 
BRANCH  22  23
ATOM     23  C   UNL     1       0.059  -4.275  -0.021  0.00  0.00    +0.113 C 
BRANCH  23  28
ATOM     24  C   UNL     1      -0.018   1.503   0.010  0.00  0.00    +0.044 C 
ATOM     25  C   UNL     1       0.002  -0.004   0.002  0.00  0.00    -0.050 A 
ATOM     26  C   UNL     1       0.006  -0.689  -1.199  0.00  0.00    +0.007 A 
ATOM     27  C   UNL     1       0.025  -2.071  -1.206  0.00  0.00    -0.046 A 
ATOM     28  C   UNL     1       0.040  -2.768  -0.013  0.00  0.00    -0.031 A 
ATOM     29  C   UNL     1       0.037  -2.084   1.188  0.00  0.00    -0.046 A 
ATOM     30  C   UNL     1       0.023  -0.702   1.195  0.00  0.00    +0.007 A 
ATOM     31  C   UNL     1       0.054  -2.844   2.489  0.00  0.00    +0.044 C 
ATOM     32  C   UNL     1       0.027  -2.817  -2.516  0.00  0.00    +0.044 C 
ENDBRANCH  23  28
ENDBRANCH  22  23
ENDBRANCH   1  22
TORSDOF 7
