REMARK  Name = ZINC08832461
REMARK  4 active torsions:
REMARK  status: ('A' for Active; 'I' for Inactive)
REMARK    1  A    between atoms: C_1  and  C_2
REMARK    2  A    between atoms: C_9  and  N_14
REMARK    3  A    between atoms: C_10  and  C_11
REMARK    4  A    between atoms: C_15  and  C_17
REMARK                            x       y       z     vdW  Elec       q    Type
REMARK                         _______ _______ _______ _____ _____    ______ ____
ROOT
ATOM      1  C   UNL     1      -0.756   1.586  -1.230  0.00  0.00    +0.008 C 
ATOM      2  C   UNL     1      -0.008   1.071   0.001  0.00  0.00    -0.009 C 
ATOM      3  C   UNL     1      -0.715   1.550   1.272  0.00  0.00    +0.008 C 
ATOM      4  C   UNL     1      -0.125   0.840   2.493  0.00  0.00    +0.037 C 
ATOM      5  C   UNL     1       1.389   1.008   2.473  0.00  0.00    -0.023 A 
ATOM      6  C   UNL     1       2.036   1.356   1.340  0.00  0.00    -0.004 A 
ATOM      7  S   UNL     1       3.744   1.429   1.797  0.00  0.00    -0.077 S 
ATOM      8  C   UNL     1       3.604   1.004   3.471  0.00  0.00    +0.085 A 
ATOM      9  C   UNL     1       2.239   0.815   3.636  0.00  0.00    +0.068 A 
ATOM     10  C   UNL     1       1.427   1.619  -0.003  0.00  0.00    +0.046 C 
ENDROOT
BRANCH   9  11
ATOM     11  C   UNL     1       1.675   0.436   4.935  0.00  0.00    +0.244 C 
ATOM     12  O   UNL     1       1.331   1.297   5.724  0.00  0.00    -0.270 OA
ATOM     13  N   UNL     1       1.538  -0.866   5.256  0.00  0.00    -0.325 N 
ATOM     14  H   UNL     1       1.812  -1.552   4.628  0.00  0.00    +0.145 HD
ATOM     15  H   UNL     1       1.165  -1.116   6.116  0.00  0.00    +0.145 HD
ENDBRANCH   9  11
BRANCH   8  16
ATOM     16  N   UNL     1       4.610   0.881   4.415  0.00  0.00    -0.275 N 
ATOM     17  C   UNL     1       5.893   1.105   4.066  0.00  0.00    +0.249 C 
ATOM     18  O   UNL     1       6.167   1.415   2.923  0.00  0.00    -0.270 OA
ATOM     19  H   UNL     1       4.392   0.633   5.327  0.00  0.00    +0.156 HD
BRANCH  17  20
ATOM     20  C   UNL     1       6.963   0.974   5.071  0.00  0.00    +0.045 A 
ATOM     21  C   UNL     1       6.659   0.738   6.406  0.00  0.00    +0.014 A 
ATOM     22  C   UNL     1       7.669   0.608   7.348  0.00  0.00    +0.001 A 
ATOM     23  C   UNL     1       8.984   0.718   7.012  0.00  0.00    +0.009 A 
ATOM     24  C   UNL     1       9.365   0.963   5.682  0.00  0.00    -0.003 A 
ATOM     25  C   UNL     1       8.367   1.096   4.685  0.00  0.00    -0.005 A 
ATOM     26  C   UNL     1       8.743   1.340   3.359  0.00  0.00    +0.009 A 
ATOM     27  C   UNL     1      10.064   1.447   3.041  0.00  0.00    +0.002 A 
ATOM     28  C   UNL     1      11.048   1.317   4.018  0.00  0.00    +0.016 A 
ATOM     29  C   UNL     1      10.718   1.079   5.319  0.00  0.00    +0.026 A 
ATOM     30 BR   UNL     1      12.073   0.906   6.627  0.00  0.00    -0.050 Br
ENDBRANCH  17  20
ENDBRANCH   8  16
TORSDOF 3
