REMARK  Name = ZINC26525806
REMARK  5 active torsions:
REMARK  status: ('A' for Active; 'I' for Inactive)
REMARK    1  A    between atoms: C_4  and  O_32
REMARK    2  A    between atoms: C_5  and  N_7
REMARK    3  A    between atoms: C_13  and  C_15
REMARK    4  A    between atoms: N_18  and  S_21
REMARK    5  A    between atoms: S_21  and  C_24
REMARK                            x       y       z     vdW  Elec       q    Type
REMARK                         _______ _______ _______ _____ _____    ______ ____
ROOT
ATOM      1  C   UNL     1      -3.755  -5.132   1.235  0.00  0.00    +0.078 C 
ATOM      2  C   UNL     1      -2.571  -4.848   2.162  0.00  0.00    +0.030 C 
ATOM      3  C   UNL     1      -2.771  -5.598   3.483  0.00  0.00    +0.110 C 
ATOM      4  N   UNL     1      -2.981  -7.022   3.191  0.00  0.00    -0.176 NA
ATOM      5  C   UNL     1      -4.036  -7.401   2.242  0.00  0.00    +0.110 C 
ATOM      6  C   UNL     1      -3.822  -6.631   0.934  0.00  0.00    +0.030 C 
ENDROOT
BRANCH   1  13
ATOM      7  N   UNL     1      -5.212  -0.660  -0.470  0.00  0.00    -0.324 N 
ATOM      8  C   UNL     1      -4.818  -1.452  -1.643  0.00  0.00    +0.124 C 
ATOM      9  C   UNL     1      -3.561  -2.263  -1.308  0.00  0.00    +0.126 C 
ATOM     10  N   UNL     1      -3.820  -3.044  -0.089  0.00  0.00    -0.298 N 
ATOM     11  C   UNL     1      -4.349  -2.340   1.089  0.00  0.00    +0.126 C 
ATOM     12  C   UNL     1      -5.574  -1.526   0.660  0.00  0.00    +0.124 C 
ATOM     13  C   UNL     1      -3.579  -4.370  -0.053  0.00  0.00    +0.219 C 
ATOM     14  O   UNL     1      -3.220  -4.948  -1.056  0.00  0.00    -0.275 OA
BRANCH   7  19
ATOM     15  C   UNL     1      -8.525   0.586  -1.470  0.00  0.00    +0.002 A 
ATOM     16  C   UNL     1      -8.324   1.952  -1.407  0.00  0.00    +0.004 A 
ATOM     17  C   UNL     1      -7.092   2.457  -1.034  0.00  0.00    +0.047 A 
ATOM     18  C   UNL     1      -6.055   1.594  -0.722  0.00  0.00    +0.138 A 
ATOM     19  C   UNL     1      -6.256   0.217  -0.785  0.00  0.00    +0.072 A 
ATOM     20  C   UNL     1      -7.495  -0.283  -1.160  0.00  0.00    +0.027 A 
BRANCH  18  21
ATOM     21  O   UNL     1      -4.844   2.090  -0.349  0.00  0.00    -0.505 OA
ATOM     22  H   UNL     1      -4.021   1.403  -0.101  0.00  0.00    +0.292 HD
ENDBRANCH  18  21
ENDBRANCH   7  19
ENDBRANCH   1  13
BRANCH   4  23
ATOM     23  S   UNL     1      -2.046  -8.180   3.920  0.00  0.00    +0.062 S 
ATOM     24  O   UNL     1      -1.414  -7.553   5.027  0.00  0.00    -0.153 OA
ATOM     25  O   UNL     1      -2.865  -9.332   4.062  0.00  0.00    -0.153 OA
BRANCH  23  26
ATOM     26  C   UNL     1      -0.768  -8.607   2.785  0.00  0.00    +0.125 A 
ATOM     27  C   UNL     1      -0.749  -9.861   2.206  0.00  0.00    +0.050 A 
ATOM     28  C   UNL     1       0.253 -10.195   1.311  0.00  0.00    +0.043 A 
ATOM     29  C   UNL     1       1.241  -9.276   1.005  0.00  0.00    +0.021 A 
ATOM     30  C   UNL     1       1.225  -8.024   1.589  0.00  0.00    +0.023 A 
ATOM     31  C   UNL     1       0.221  -7.688   2.479  0.00  0.00    +0.067 A 
ATOM     32 CL   UNL     1       0.200  -6.115   3.212  0.00  0.00    -0.082 Cl
ATOM     33 CL   UNL     1       0.273 -11.768   0.578  0.00  0.00    -0.083 Cl
ENDBRANCH  23  26
ENDBRANCH   4  23
TORSDOF 5
