REMARK  Name = ZINC36660258
REMARK  12 active torsions:
REMARK  status: ('A' for Active; 'I' for Inactive)
REMARK    1  A    between atoms: C_1  and  C_2
REMARK    2  A    between atoms: C_2  and  C_3
REMARK    3  A    between atoms: C_3  and  N_4
REMARK    4  A    between atoms: C_10  and  N_17
REMARK    5  A    between atoms: C_11  and  C_12
REMARK    6  A    between atoms: C_12  and  O_14
REMARK    7  A    between atoms: O_14  and  C_15
REMARK    8  A    between atoms: C_15  and  C_16
REMARK    9  A    between atoms: C_18  and  C_20
REMARK   10  A    between atoms: N_25  and  S_26
REMARK   11  A    between atoms: S_26  and  C_29
REMARK   12  A    between atoms: C_32  and  C_35
REMARK                            x       y       z     vdW  Elec       q    Type
REMARK                         _______ _______ _______ _____ _____    ______ ____
ROOT
ATOM      1  N   UNL     1      -1.782  -7.341  -1.723  0.00  0.00    -0.278 N 
ATOM      2  C   UNL     1      -3.038  -7.824  -1.797  0.00  0.00    +0.236 C 
ATOM      3  O   UNL     1      -3.976  -7.060  -1.881  0.00  0.00    -0.274 OA
ATOM      4  H   UNL     1      -1.031  -7.952  -1.655  0.00  0.00    +0.155 HD
ENDROOT
BRANCH   1  11
ATOM      5  N   UNL     1      -0.819  -1.107  -1.418  0.00  0.00    +0.383 N 
ATOM      6  C   UNL     1       0.376  -1.547  -2.149  0.00  0.00    -0.074 C 
ATOM      7  C   UNL     1       0.817  -2.930  -1.658  0.00  0.00    +0.018 C 
ATOM      8  C   UNL     1      -0.392  -3.853  -1.715  0.00  0.00    -0.025 A 
ATOM      9  C   UNL     1      -1.638  -3.337  -1.812  0.00  0.00    -0.021 A 
ATOM     10  S   UNL     1      -2.704  -4.745  -1.852  0.00  0.00    -0.079 S 
ATOM     11  C   UNL     1      -1.562  -5.973  -1.742  0.00  0.00    +0.086 A 
ATOM     12  C   UNL     1      -0.348  -5.302  -1.676  0.00  0.00    +0.091 A 
ATOM     13  C   UNL     1      -1.989  -1.884  -1.868  0.00  0.00    -0.035 C 
ATOM     14  H   UNL     1      -0.680  -1.251  -0.430  0.00  0.00    -0.081 HD
BRANCH  12  15
ATOM     15  C   UNL     1       0.920  -6.026  -1.571  0.00  0.00    +0.342 C 
ATOM     16  O   UNL     1       1.375  -6.300  -0.476  0.00  0.00    -0.245 OA
BRANCH  15  17
ATOM     17  O   UNL     1       1.584  -6.389  -2.687  0.00  0.00    -0.461 OA
BRANCH  17  18
ATOM     18  C   UNL     1       2.815  -7.092  -2.510  0.00  0.00    +0.229 C 
ATOM     19  C   UNL     1       3.418  -7.417  -3.878  0.00  0.00    +0.048 C 
ENDBRANCH  17  18
ENDBRANCH  15  17
ENDBRANCH  12  15
BRANCH   5  20
ATOM     20  C   UNL     1      -1.052   0.321  -1.676  0.00  0.00    -0.079 C 
BRANCH  20  22
ATOM     21  C   UNL     1      -2.461   2.298  -1.085  0.00  0.00    +0.002 C 
ATOM     22  C   UNL     1      -2.218   0.811  -0.816  0.00  0.00    -0.022 C 
ENDBRANCH  20  22
ENDBRANCH   5  20
ENDBRANCH   1  11
BRANCH   2  23
ATOM     23  C   UNL     1      -3.276  -9.311  -1.775  0.00  0.00    +0.166 C 
ATOM     24  C   UNL     1      -3.224  -9.872  -3.212  0.00  0.00    +0.031 C 
ATOM     25  C   UNL     1      -4.349 -10.940  -3.209  0.00  0.00    +0.019 C 
ATOM     26  C   UNL     1      -5.404 -10.279  -2.288  0.00  0.00    +0.110 C 
ATOM     27  N   UNL     1      -4.616  -9.595  -1.241  0.00  0.00    -0.165 NA
BRANCH  27  28
ATOM     28  S   UNL     1      -5.151  -9.212   0.279  0.00  0.00    +0.062 S 
ATOM     29  O   UNL     1      -4.264  -8.222   0.783  0.00  0.00    -0.153 OA
ATOM     30  O   UNL     1      -6.552  -8.998   0.175  0.00  0.00    -0.153 OA
BRANCH  28  31
ATOM     31  C   UNL     1      -4.932 -10.643   1.284  0.00  0.00    +0.106 A 
ATOM     32  C   UNL     1      -5.909 -11.621   1.315  0.00  0.00    +0.029 A 
ATOM     33  C   UNL     1      -5.737 -12.743   2.103  0.00  0.00    +0.005 A 
ATOM     34  C   UNL     1      -4.590 -12.888   2.861  0.00  0.00    -0.050 A 
ATOM     35  C   UNL     1      -3.613 -11.910   2.829  0.00  0.00    +0.005 A 
ATOM     36  C   UNL     1      -3.783 -10.790   2.037  0.00  0.00    +0.029 A 
ATOM     37  C   UNL     1      -4.404 -14.111   3.721  0.00  0.00    +0.044 C 
ENDBRANCH  28  31
ENDBRANCH  27  28
ENDBRANCH   2  23
TORSDOF 9
