REMARK  Name = ZINC21560744
REMARK  9 active torsions:
REMARK  status: ('A' for Active; 'I' for Inactive)
REMARK    1  A    between atoms: C_1  and  C_2
REMARK    2  A    between atoms: C_7  and  C_9
REMARK    3  A    between atoms: C_7  and  C_10
REMARK    4  A    between atoms: N_13  and  C_17
REMARK    5  A    between atoms: C_17  and  C_18
REMARK    6  A    between atoms: N_20  and  C_21
REMARK    7  A    between atoms: C_21  and  C_22
REMARK    8  A    between atoms: C_22  and  C_23
REMARK    9  A    between atoms: C_23  and  N_24
REMARK                            x       y       z     vdW  Elec       q    Type
REMARK                         _______ _______ _______ _____ _____    ______ ____
ROOT
ATOM      1  C   UNL     1      -1.431  -5.488  -2.763  0.00  0.00    +0.231 C 
ATOM      2  O   UNL     1      -1.058  -5.765  -1.643  0.00  0.00    -0.274 OA
ATOM      3  N   UNL     1      -1.311  -6.391  -3.756  0.00  0.00    -0.314 N 
ATOM      4  H   UNL     1      -1.609  -6.169  -4.652  0.00  0.00    +0.149 HD
ENDROOT
BRANCH   1   5
ATOM      5  C   UNL     1      -2.030  -4.133  -3.044  0.00  0.00    +0.213 C 
BRANCH   5  17
ATOM      6  C   UNL     1      -0.019   1.528   0.010  0.00  0.00    +0.007 C 
ATOM      7  C   UNL     1       0.002  -0.004   0.002  0.00  0.00    -0.011 C 
ATOM      8  C   UNL     1      -1.435  -0.528   0.021  0.00  0.00    +0.038 C 
ATOM      9  C   UNL     1      -1.428  -2.050  -0.036  0.00  0.00    +0.113 C 
ATOM     10  C   UNL     1      -0.576  -2.676   1.050  0.00  0.00    +0.041 C 
ATOM     11  C   UNL     1       0.781  -2.031   1.272  0.00  0.00    -0.032 C 
ATOM     12  C   UNL     1       0.719  -0.508   1.253  0.00  0.00    +0.009 C 
ATOM     13  C   UNL     1       1.794  -2.527   0.236  0.00  0.00    +0.011 C 
ATOM     14  C   UNL     1       1.294  -2.463   2.663  0.00  0.00    +0.011 C 
ATOM     15  C   UNL     1      -1.044  -2.534  -1.413  0.00  0.00    +0.247 C 
ATOM     16  O   UNL     1      -0.057  -2.253  -2.059  0.00  0.00    -0.273 OA
ATOM     17  N   UNL     1      -2.050  -3.343  -1.811  0.00  0.00    -0.215 N 
ATOM     18  C   UNL     1      -3.063  -3.330  -0.939  0.00  0.00    +0.310 C 
ATOM     19  O   UNL     1      -4.089  -3.967  -1.084  0.00  0.00    -0.252 OA
ATOM     20  N   UNL     1      -2.817  -2.537   0.118  0.00  0.00    -0.285 N 
ATOM     21  H   UNL     1      -3.419  -2.317   0.843  0.00  0.00    +0.151 HD
ENDBRANCH   5  17
ENDBRANCH   1   5
BRANCH   3  22
ATOM     22  C   UNL     1      -0.729  -7.707  -3.483  0.00  0.00    +0.106 C 
BRANCH  22  23
ATOM     23  C   UNL     1      -0.708  -8.533  -4.771  0.00  0.00    +0.038 C 
BRANCH  23  24
ATOM     24  C   UNL     1      -0.101  -9.908  -4.485  0.00  0.00    +0.119 C 
BRANCH  24  25
ATOM     25  N   UNL     1      -0.081 -10.698  -5.718  0.00  0.00    -0.224 N 
ATOM     26  C   UNL     1      -1.088 -11.503  -6.120  0.00  0.00    +0.246 C 
ATOM     27  O   UNL     1      -2.141 -11.703  -5.554  0.00  0.00    -0.273 OA
ATOM     28  C   UNL     1      -0.624 -12.100  -7.425  0.00  0.00    +0.113 C 
ATOM     29  C   UNL     1      -1.579 -11.734  -8.569  0.00  0.00    +0.035 C 
ATOM     30  C   UNL     1      -1.573 -12.991  -9.478  0.00  0.00    +0.003 C 
ATOM     31  C   UNL     1      -1.500 -14.154  -8.457  0.00  0.00    +0.003 C 
ATOM     32  C   UNL     1      -0.564 -13.627  -7.347  0.00  0.00    +0.035 C 
ATOM     33  N   UNL     1       0.704 -11.522  -7.640  0.00  0.00    -0.285 N 
ATOM     34  C   UNL     1       0.936 -10.709  -6.590  0.00  0.00    +0.309 C 
ATOM     35  O   UNL     1       1.954 -10.060  -6.449  0.00  0.00    -0.252 OA
ATOM     36  H   UNL     1       1.298 -11.690  -8.389  0.00  0.00    +0.151 HD
ENDBRANCH  24  25
ENDBRANCH  23  24
ENDBRANCH  22  23
ENDBRANCH   3  22
TORSDOF 6
