REMARK  Name = ZINC23339482
REMARK  17 active torsions:
REMARK  status: ('A' for Active; 'I' for Inactive)
REMARK    1  A    between atoms: C_1  and  N_2
REMARK    2  A    between atoms: C_4  and  C_7
REMARK    3  A    between atoms: C_7  and  C_8
REMARK    4  A    between atoms: C_8  and  N_9
REMARK    5  A    between atoms: N_9  and  C_10
REMARK    6  A    between atoms: C_10  and  C_11
REMARK    7  A    between atoms: C_14  and  O_32
REMARK    8  A    between atoms: C_15  and  O_17
REMARK    9  A    between atoms: O_17  and  C_18
REMARK   10  A    between atoms: C_18  and  C_19
REMARK   11  A    between atoms: C_19  and  C_21
REMARK   12  A    between atoms: C_19  and  O_31
REMARK   13  A    between atoms: C_21  and  N_22
REMARK   14  A    between atoms: N_22  and  C_23
REMARK   15  A    between atoms: N_22  and  C_24
REMARK   16  A    between atoms: C_24  and  C_25
REMARK   17  A    between atoms: O_32  and  C_33
REMARK                            x       y       z     vdW  Elec       q    Type
REMARK                         _______ _______ _______ _____ _____    ______ ____
ROOT
ATOM      1  C   UNL     1       6.770   0.256  -3.564  0.00  0.00    -0.030 A 
ATOM      2  C   UNL     1       7.829   1.145  -3.558  0.00  0.00    +0.009 A 
ATOM      3  C   UNL     1       9.124   0.681  -3.412  0.00  0.00    +0.050 A 
ATOM      4  C   UNL     1       9.362  -0.678  -3.283  0.00  0.00    +0.162 A 
ATOM      5  C   UNL     1       8.296  -1.573  -3.295  0.00  0.00    +0.162 A 
ATOM      6  C   UNL     1       7.001  -1.101  -3.436  0.00  0.00    +0.054 A 
ENDROOT
BRANCH   4   7
ATOM      7  O   UNL     1      10.635  -1.137  -3.145  0.00  0.00    -0.491 OA
ATOM      8  C   UNL     1      11.679  -0.161  -3.142  0.00  0.00    +0.277 C 
ENDBRANCH   4   7
BRANCH   1   9
ATOM      9  C   UNL     1       5.361   0.768  -3.717  0.00  0.00    +0.116 C 
BRANCH   9  10
ATOM     10  N   UNL     1       4.794   1.045  -2.391  0.00  0.00    -0.312 NA
ATOM     11  H   UNL     1       5.420   1.799  -1.891  0.00  0.00    +0.122 HD
BRANCH  10  12
ATOM     12  C   UNL     1       3.418   1.547  -2.501  0.00  0.00    +0.086 C 
BRANCH  12  13
ATOM     13  C   UNL     1       2.862   1.824  -1.103  0.00  0.00    +0.053 C 
BRANCH  13  17
ATOM     14  C   UNL     1      -2.137   2.025  -1.398  0.00  0.00    +0.172 C 
ATOM     15  N   UNL     1      -0.728   2.419  -1.344  0.00  0.00    -0.274 N 
ATOM     16  C   UNL     1       0.326   1.585  -1.223  0.00  0.00    +0.111 A 
ATOM     17  C   UNL     1       1.450   2.339  -1.216  0.00  0.00    -0.009 A 
ATOM     18  C   UNL     1       1.070   3.680  -1.332  0.00  0.00    +0.138 A 
ATOM     19  N   UNL     1      -0.235   3.729  -1.406  0.00  0.00    -0.180 NA
ENDBRANCH  13  17
ENDBRANCH  12  13
ENDBRANCH  10  12
ENDBRANCH   9  10
ENDBRANCH   1   9
BRANCH   5  20
ATOM     20  O   UNL     1       8.525  -2.907  -3.168  0.00  0.00    -0.486 OA
BRANCH  20  21
ATOM     21  C   UNL     1       7.384  -3.766  -3.188  0.00  0.00    +0.258 C 
BRANCH  21  22
ATOM     22  C   UNL     1       7.836  -5.220  -3.034  0.00  0.00    +0.135 C 
BRANCH  22  23
ATOM     23  O   UNL     1       8.615  -5.599  -4.170  0.00  0.00    -0.390 OA
ATOM     24  H   UNL     1       9.030  -6.616  -4.238  0.00  0.00    +0.210 HD
ENDBRANCH  22  23
BRANCH  22  25
ATOM     25  C   UNL     1       6.609  -6.128  -2.931  0.00  0.00    -0.044 C 
BRANCH  25  26
ATOM     26  N   UNL     1       7.040  -7.505  -2.661  0.00  0.00    +0.382 N 
ATOM     27  C   UNL     1       5.983  -8.466  -3.006  0.00  0.00    -0.096 C 
ATOM     28  H   UNL     1       7.911  -7.718  -3.299  0.00  0.00    -0.082 HD
BRANCH  26  29
ATOM     29  C   UNL     1       7.457  -7.662  -1.261  0.00  0.00    -0.043 C 
BRANCH  29  30
ATOM     30  C   UNL     1       8.119  -9.004  -1.081  0.00  0.00    -0.064 A 
ATOM     31  C   UNL     1       7.362 -10.106  -0.731  0.00  0.00    +0.002 A 
ATOM     32  C   UNL     1       7.968 -11.338  -0.571  0.00  0.00    +0.000 A 
ATOM     33  C   UNL     1       9.333 -11.466  -0.750  0.00  0.00    +0.000 A 
ATOM     34  C   UNL     1      10.091 -10.362  -1.094  0.00  0.00    +0.000 A 
ATOM     35  C   UNL     1       9.484  -9.131  -1.260  0.00  0.00    +0.002 A 
ENDBRANCH  29  30
ENDBRANCH  26  29
ENDBRANCH  25  26
ENDBRANCH  22  25
ENDBRANCH  21  22
ENDBRANCH  20  21
ENDBRANCH   5  20
TORSDOF 14
