REMARK  Name = ZINC12052261
REMARK  10 active torsions:
REMARK  status: ('A' for Active; 'I' for Inactive)
REMARK    1  A    between atoms: C_1  and  N_2
REMARK    2  A    between atoms: C_5  and  C_9
REMARK    3  A    between atoms: C_5  and  C_18
REMARK    4  A    between atoms: C_9  and  C_10
REMARK    5  A    between atoms: C_14  and  O_16
REMARK    6  A    between atoms: O_16  and  C_17
REMARK    7  A    between atoms: C_23  and  C_24
REMARK    8  A    between atoms: C_23  and  N_69
REMARK    9  A    between atoms: C_33  and  O_34
REMARK   10  A    between atoms: O_34  and  C_35
REMARK                            x       y       z     vdW  Elec       q    Type
REMARK                         _______ _______ _______ _____ _____    ______ ____
ROOT
ATOM      1  C   UNL     1      -3.532   2.293   3.680  0.00  0.00    +0.018 C 
ATOM      2  C   UNL     1      -3.211   3.586   2.924  0.00  0.00    -0.013 C 
ATOM      3  C   UNL     1      -2.894   3.253   1.465  0.00  0.00    -0.078 C 
ATOM      4  C   UNL     1      -2.051   1.067   2.086  0.00  0.00    -0.078 C 
ATOM      5  C   UNL     1      -2.343   1.335   3.564  0.00  0.00    -0.013 C 
ATOM      6  N   UNL     1      -1.726   2.347   1.422  0.00  0.00    +0.382 N 
ATOM      7  H   UNL     1      -0.943   2.790   1.917  0.00  0.00    -0.081 HD
ENDROOT
BRANCH   1  12
ATOM      8  C   UNL     1      -4.984   5.961   6.229  0.00  0.00    +0.143 C 
ATOM      9  N   UNL     1      -4.292   4.713   5.899  0.00  0.00    -0.227 N 
ATOM     10  C   UNL     1      -4.875   3.662   5.289  0.00  0.00    +0.247 C 
ATOM     11  O   UNL     1      -6.028   3.575   4.925  0.00  0.00    -0.273 OA
ATOM     12  C   UNL     1      -3.790   2.613   5.153  0.00  0.00    +0.119 C 
ATOM     13  N   UNL     1      -2.610   3.255   5.759  0.00  0.00    -0.284 N 
ATOM     14  C   UNL     1      -3.002   4.476   6.164  0.00  0.00    +0.309 C 
ATOM     15  O   UNL     1      -2.267   5.275   6.710  0.00  0.00    -0.252 OA
ATOM     16  H   UNL     1      -1.723   2.871   5.848  0.00  0.00    +0.151 HD
BRANCH  12  17
ATOM     17  C   UNL     1      -4.165   1.343   5.920  0.00  0.00    +0.070 C 
BRANCH  17  18
ATOM     18  C   UNL     1      -4.414   1.685   7.367  0.00  0.00    -0.041 A 
ATOM     19  C   UNL     1      -3.372   1.642   8.276  0.00  0.00    +0.004 A 
ATOM     20  C   UNL     1      -3.596   1.960   9.602  0.00  0.00    +0.004 A 
ATOM     21  C   UNL     1      -4.864   2.311  10.025  0.00  0.00    +0.045 A 
ATOM     22  C   UNL     1      -5.911   2.349   9.117  0.00  0.00    +0.120 A 
ATOM     23  C   UNL     1      -5.683   2.035   7.785  0.00  0.00    +0.049 A 
BRANCH  22  24
ATOM     24  O   UNL     1      -7.159   2.695   9.530  0.00  0.00    -0.495 OA
ATOM     25  C   UNL     1      -7.320   3.006  10.916  0.00  0.00    +0.277 C 
ENDBRANCH  22  24
ENDBRANCH  17  18
ENDBRANCH  12  17
ENDBRANCH   1  12
BRANCH   6  26
ATOM     26  C   UNL     1      -1.329   2.102   0.020  0.00  0.00    -0.039 C 
BRANCH  26  27
ATOM     27  C   UNL     1      -0.016   1.361   0.009  0.00  0.00    -0.015 A 
ATOM     28  C   UNL     1       1.195   2.072   0.002  0.00  0.00    -0.013 A 
ATOM     29  C   UNL     1       1.215   3.478   0.009  0.00  0.00    +0.009 A 
ATOM     30  C   UNL     1       2.408   4.134   0.000  0.00  0.00    +0.001 A 
ATOM     31  C   UNL     1       3.612   3.433  -0.015  0.00  0.00    +0.001 A 
ATOM     32  C   UNL     1       3.631   2.072  -0.021  0.00  0.00    +0.008 A 
ATOM     33  C   UNL     1       2.420   1.360  -0.014  0.00  0.00    -0.017 A 
ATOM     34  C   UNL     1       2.402  -0.046  -0.021  0.00  0.00    +0.012 A 
ATOM     35  C   UNL     1       1.212  -0.705  -0.014  0.00  0.00    +0.046 A 
ATOM     36  C   UNL     1       0.002  -0.004   0.002  0.00  0.00    +0.122 A 
BRANCH  36  37
ATOM     37  O   UNL     1      -1.171  -0.691   0.009  0.00  0.00    -0.495 OA
ATOM     38  C   UNL     1      -1.087  -2.117   0.001  0.00  0.00    +0.277 C 
ENDBRANCH  36  37
ENDBRANCH  26  27
ENDBRANCH   6  26
TORSDOF 7
