REMARK  Name = ZINC17173622
REMARK  11 active torsions:
REMARK  status: ('A' for Active; 'I' for Inactive)
REMARK    1  A    between atoms: C_4  and  C_7
REMARK    2  A    between atoms: C_7  and  C_8
REMARK    3  A    between atoms: C_7  and  O_14
REMARK    4  A    between atoms: O_14  and  C_15
REMARK    5  A    between atoms: C_15  and  C_17
REMARK    6  A    between atoms: C_17  and  C_19
REMARK    7  A    between atoms: C_17  and  N_26
REMARK    8  A    between atoms: C_19  and  C_20
REMARK    9  A    between atoms: C_20  and  C_21
REMARK   10  A    between atoms: C_21  and  N_22
REMARK   11  A    between atoms: C_27  and  C_29
REMARK                            x       y       z     vdW  Elec       q    Type
REMARK                         _______ _______ _______ _____ _____    ______ ____
ROOT
ATOM      1  C   UNL     1      -1.209   1.216   0.045  0.00  0.00    +0.182 C 
ENDROOT
BRANCH   1   2
ATOM      2  N   UNL     1       0.129   0.626  -0.045  0.00  0.00    -0.295 N 
ATOM      3  C   UNL     1       1.218   1.419  -0.009  0.00  0.00    +0.318 C 
ATOM      4  O   UNL     1       1.091   2.620   0.103  0.00  0.00    -0.266 OA
ATOM      5  H   UNL     1       0.244  -0.463  -0.143  0.00  0.00    +0.150 HD
BRANCH   3   6
ATOM      6  C   UNL     1       2.595   0.813  -0.109  0.00  0.00    +0.469 C 
ATOM      7  F   UNL     1       3.556   1.827  -0.049  0.00  0.00    -0.162 F 
ATOM      8  F   UNL     1       2.789  -0.078   0.952  0.00  0.00    -0.162 F 
ATOM      9  F   UNL     1       2.716   0.127  -1.322  0.00  0.00    -0.162 F 
ENDBRANCH   3   6
ENDBRANCH   1   2
BRANCH   1  10
ATOM     10  C   UNL     1      -1.345   1.955   1.352  0.00  0.00    +0.329 C 
ATOM     11  O   UNL     1      -0.358   2.300   1.956  0.00  0.00    -0.249 OA
BRANCH  10  12
ATOM     12  O   UNL     1      -2.564   2.229   1.843  0.00  0.00    -0.450 OA
BRANCH  12  13
ATOM     13  C   UNL     1      -2.619   2.943   3.107  0.00  0.00    +0.237 C 
BRANCH  13  17
ATOM     14  C   UNL     1      -6.164   5.323   3.242  0.00  0.00    +0.000 A 
ATOM     15  C   UNL     1      -4.976   5.824   3.740  0.00  0.00    +0.000 A 
ATOM     16  C   UNL     1      -3.829   5.054   3.697  0.00  0.00    +0.007 A 
ATOM     17  C   UNL     1      -3.870   3.783   3.155  0.00  0.00    -0.003 A 
ATOM     18  C   UNL     1      -5.057   3.284   2.651  0.00  0.00    +0.007 A 
ATOM     19  C   UNL     1      -6.205   4.052   2.700  0.00  0.00    +0.000 A 
ENDBRANCH  13  17
BRANCH  13  20
ATOM     20  C   UNL     1      -2.635   1.954   4.243  0.00  0.00    -0.003 A 
ATOM     21  C   UNL     1      -3.296   0.748   4.101  0.00  0.00    +0.007 A 
ATOM     22  C   UNL     1      -3.306  -0.162   5.141  0.00  0.00    +0.000 A 
ATOM     23  C   UNL     1      -2.663   0.138   6.328  0.00  0.00    +0.000 A 
ATOM     24  C   UNL     1      -2.006   1.346   6.472  0.00  0.00    +0.000 A 
ATOM     25  C   UNL     1      -1.992   2.253   5.429  0.00  0.00    +0.007 A 
ENDBRANCH  13  20
ENDBRANCH  12  13
ENDBRANCH  10  12
ENDBRANCH   1  10
BRANCH   1  26
ATOM     26  C   UNL     1      -1.416   2.191  -1.116  0.00  0.00    +0.035 C 
BRANCH  26  27
ATOM     27  C   UNL     1      -1.402   1.421  -2.438  0.00  0.00    +0.023 C 
BRANCH  27  28
ATOM     28  C   UNL     1      -1.609   2.396  -3.599  0.00  0.00    +0.115 C 
BRANCH  28  29
ATOM     29  N   UNL     1      -1.595   1.658  -4.864  0.00  0.00    -0.358 N 
ATOM     30  C   UNL     1      -2.660   1.632  -5.615  0.00  0.00    +0.166 C 
ATOM     31  N   UNL     1      -3.752   2.400  -5.286  0.00  0.00    -0.372 N 
ATOM     32  N   UNL     1      -2.692   0.837  -6.736  0.00  0.00    -0.372 N 
ATOM     33  H   UNL     1      -4.651   2.378  -5.920  0.00  0.00    +0.159 HD
ATOM     34  H   UNL     1      -3.727   3.036  -4.389  0.00  0.00    +0.159 HD
ATOM     35  H   UNL     1      -3.591   0.815  -7.370  0.00  0.00    +0.159 HD
ATOM     36  H   UNL     1      -1.819   0.222  -6.999  0.00  0.00    +0.159 HD
ATOM     37  H   UNL     1      -0.686   1.126  -5.181  0.00  0.00    +0.162 HD
ENDBRANCH  28  29
ENDBRANCH  27  28
ENDBRANCH  26  27
ENDBRANCH   1  26
TORSDOF 11
