REMARK  Name = ZINC13137825
REMARK  8 active torsions:
REMARK  status: ('A' for Active; 'I' for Inactive)
REMARK    1  A    between atoms: C_1  and  O_2
REMARK    2  A    between atoms: O_2  and  C_3
REMARK    3  A    between atoms: C_6  and  N_9
REMARK    4  A    between atoms: N_11  and  C_25
REMARK    5  A    between atoms: C_12  and  C_15
REMARK    6  A    between atoms: C_18  and  O_24
REMARK    7  A    between atoms: C_19  and  C_21
REMARK    8  A    between atoms: C_25  and  C_26
REMARK                            x       y       z     vdW  Elec       q    Type
REMARK                         _______ _______ _______ _____ _____    ______ ____
ROOT
ATOM      1  N   UNL     1      -2.889   2.079   0.335  0.00  0.00    -0.224 NA
ATOM      2  C   UNL     1      -1.990   2.016   1.297  0.00  0.00    +0.174 A 
ATOM      3  N   UNL     1      -0.623   1.890   1.203  0.00  0.00    -0.317 N 
ATOM      4  C   UNL     1       0.113   1.853   2.356  0.00  0.00    +0.058 A 
ATOM      5  C   UNL     1      -0.510   1.933   3.549  0.00  0.00    +0.075 A 
ATOM      6  S   UNL     1      -2.224   2.070   3.067  0.00  0.00    -0.057 S 
ENDROOT
BRANCH   1  10
ATOM      7  C   UNL     1      -6.922   2.141   1.272  0.00  0.00    +0.120 A 
ATOM      8  C   UNL     1      -6.241   3.333   1.067  0.00  0.00    +0.048 A 
ATOM      9  C   UNL     1      -4.898   3.317   0.755  0.00  0.00    +0.031 A 
ATOM     10  C   UNL     1      -4.223   2.100   0.645  0.00  0.00    +0.067 A 
ATOM     11  C   UNL     1      -4.914   0.903   0.846  0.00  0.00    +0.031 A 
ATOM     12  C   UNL     1      -6.256   0.929   1.164  0.00  0.00    +0.048 A 
BRANCH   7  14
ATOM     13  C   UNL     1      -8.886   0.899   1.779  0.00  0.00    +0.277 C 
ATOM     14  O   UNL     1      -8.246   2.162   1.581  0.00  0.00    -0.495 OA
ENDBRANCH   7  14
ENDBRANCH   1  10
BRANCH   4  15
ATOM     15  C   UNL     1       1.586   1.724   2.294  0.00  0.00    -0.000 A 
ATOM     16  C   UNL     1       2.172   0.833   1.390  0.00  0.00    +0.013 A 
ATOM     17  C   UNL     1       3.543   0.712   1.325  0.00  0.00    +0.047 A 
ATOM     18  C   UNL     1       4.352   1.466   2.164  0.00  0.00    +0.129 A 
ATOM     19  C   UNL     1       3.775   2.358   3.078  0.00  0.00    +0.078 A 
ATOM     20  C   UNL     1       2.387   2.484   3.140  0.00  0.00    +0.026 A 
BRANCH  19  21
ATOM     21  C   UNL     1       4.632   3.161   3.972  0.00  0.00    +0.245 C 
ATOM     22  O   UNL     1       5.841   3.049   3.916  0.00  0.00    -0.270 OA
ATOM     23  N   UNL     1       4.074   4.017   4.850  0.00  0.00    -0.325 N 
ATOM     24  H   UNL     1       3.109   4.106   4.895  0.00  0.00    +0.145 HD
ATOM     25  H   UNL     1       4.638   4.545   5.438  0.00  0.00    +0.145 HD
ENDBRANCH  19  21
BRANCH  18  26
ATOM     26  O   UNL     1       5.701   1.339   2.099  0.00  0.00    -0.506 OA
ATOM     27  H   UNL     1       6.061   0.661   2.687  0.00  0.00    +0.292 HD
ENDBRANCH  18  26
ENDBRANCH   4  15
BRANCH   3  28
ATOM     28  C   UNL     1       0.032   1.804  -0.105  0.00  0.00    +0.156 C 
BRANCH  28  29
ATOM     29  C   UNL     1      -0.695   2.712  -1.099  0.00  0.00    +0.138 C 
ATOM     30  C   UNL     1       0.019   2.667  -2.467  0.00  0.00    +0.035 C 
ATOM     31  C   UNL     1      -0.066   4.147  -2.931  0.00  0.00    +0.031 C 
ATOM     32  C   UNL     1       0.053   4.888  -1.575  0.00  0.00    +0.160 C 
ATOM     33  O   UNL     1      -0.660   4.067  -0.636  0.00  0.00    -0.375 OA
ENDBRANCH  28  29
ENDBRANCH   3  28
TORSDOF 7
