REMARK  Name = ZINC36483295
REMARK  11 active torsions:
REMARK  status: ('A' for Active; 'I' for Inactive)
REMARK    1  A    between atoms: C_1  and  C_2
REMARK    2  A    between atoms: C_3  and  C_4
REMARK    3  A    between atoms: C_4  and  C_6
REMARK    4  A    between atoms: C_4  and  N_20
REMARK    5  A    between atoms: N_8  and  C_9
REMARK    6  A    between atoms: C_9  and  S_10
REMARK    7  A    between atoms: S_10  and  C_13
REMARK    8  A    between atoms: C_16  and  C_19
REMARK    9  A    between atoms: N_20  and  C_21
REMARK   10  A    between atoms: C_28  and  C_30
REMARK   11  A    between atoms: C_35  and  O_36
REMARK                            x       y       z     vdW  Elec       q    Type
REMARK                         _______ _______ _______ _____ _____    ______ ____
ROOT
ATOM      1  C   UNL     1       0.757  -1.291   0.029  0.00  0.00    +0.190 C 
ENDROOT
BRANCH   1   2
ATOM      2  C   UNL     1       0.248  -0.985  -1.357  0.00  0.00    +0.239 C 
ATOM      3  O   UNL     1      -0.709  -1.586  -1.797  0.00  0.00    -0.273 OA
ATOM      4  N   UNL     1       0.856  -0.044  -2.105  0.00  0.00    -0.294 N 
ATOM      5  H   UNL     1       1.622   0.436  -1.753  0.00  0.00    +0.150 HD
BRANCH   4   6
ATOM      6  C   UNL     1       0.361   0.254  -3.452  0.00  0.00    +0.278 C 
BRANCH   6   7
ATOM      7  S   UNL     1      -0.777   1.664  -3.379  0.00  0.00    +0.013 S 
ATOM      8  O   UNL     1      -1.217   2.006  -4.687  0.00  0.00    -0.168 OA
ATOM      9  O   UNL     1      -1.711   1.486  -2.324  0.00  0.00    -0.168 OA
BRANCH   7  10
ATOM     10  C   UNL     1       0.221   3.025  -2.871  0.00  0.00    +0.090 A 
ATOM     11  C   UNL     1       0.377   3.303  -1.526  0.00  0.00    +0.027 A 
ATOM     12  C   UNL     1       1.159   4.371  -1.127  0.00  0.00    +0.005 A 
ATOM     13  C   UNL     1       1.786   5.160  -2.074  0.00  0.00    -0.050 A 
ATOM     14  C   UNL     1       1.630   4.881  -3.419  0.00  0.00    +0.005 A 
ATOM     15  C   UNL     1       0.851   3.811  -3.817  0.00  0.00    +0.027 A 
ATOM     16  C   UNL     1       2.638   6.325  -1.639  0.00  0.00    +0.044 C 
ENDBRANCH   7  10
ENDBRANCH   6   7
ENDBRANCH   4   6
ENDBRANCH   1   2
BRANCH   1  19
ATOM     17  C   UNL     1      -0.036   1.175   2.864  0.00  0.00    +0.035 C 
ATOM     18  C   UNL     1       0.037  -0.069   2.015  0.00  0.00    -0.032 C 
ATOM     19  C   UNL     1       0.684  -0.048   0.877  0.00  0.00    +0.000 C 
ENDBRANCH   1  19
BRANCH   1  20
ATOM     20  N   UNL     1      -0.067  -2.342   0.630  0.00  0.00    -0.252 N 
ATOM     21  C   UNL     1       0.486  -3.527   0.960  0.00  0.00    +0.255 C 
ATOM     22  O   UNL     1      -0.206  -4.414   1.419  0.00  0.00    -0.269 OA
BRANCH  20  23
ATOM     23  C   UNL     1      -1.427  -2.117   0.864  0.00  0.00    +0.039 A 
ATOM     24  C   UNL     1      -2.033  -0.960   0.388  0.00  0.00    +0.023 A 
ATOM     25  C   UNL     1      -3.376  -0.740   0.620  0.00  0.00    +0.003 A 
ATOM     26  C   UNL     1      -4.119  -1.668   1.325  0.00  0.00    +0.020 A 
ATOM     27  C   UNL     1      -3.520  -2.821   1.801  0.00  0.00    +0.043 A 
ATOM     28  C   UNL     1      -2.177  -3.050   1.567  0.00  0.00    +0.043 A 
ATOM     29 CL   UNL     1      -4.457  -3.984   2.686  0.00  0.00    -0.083 Cl
ENDBRANCH  20  23
BRANCH  21  30
ATOM     30  C   UNL     1       1.931  -3.746   0.762  0.00  0.00    +0.079 A 
ATOM     31  C   UNL     1       2.589  -3.163  -0.324  0.00  0.00    +0.017 A 
ATOM     32  C   UNL     1       3.939  -3.372  -0.503  0.00  0.00    +0.001 A 
ATOM     33  C   UNL     1       4.649  -4.159   0.390  0.00  0.00    +0.004 A 
ATOM     34  C   UNL     1       4.011  -4.741   1.467  0.00  0.00    +0.046 A 
ATOM     35  C   UNL     1       2.654  -4.536   1.666  0.00  0.00    +0.129 A 
BRANCH  35  36
ATOM     36  O   UNL     1       2.028  -5.103   2.728  0.00  0.00    -0.506 OA
ATOM     37  H   UNL     1       1.671  -5.984   2.549  0.00  0.00    +0.292 HD
ENDBRANCH  35  36
ENDBRANCH  21  30
ENDBRANCH   1  20
TORSDOF 9
