REMARK  Name = ZINC39352657
REMARK  8 active torsions:
REMARK  status: ('A' for Active; 'I' for Inactive)
REMARK    1  A    between atoms: C_3  and  C_7
REMARK    2  A    between atoms: C_7  and  O_8
REMARK    3  A    between atoms: O_8  and  C_9
REMARK    4  A    between atoms: N_12  and  C_25
REMARK    5  A    between atoms: N_16  and  C_18
REMARK    6  A    between atoms: C_18  and  C_19
REMARK    7  A    between atoms: C_25  and  C_26
REMARK    8  A    between atoms: C_31  and  C_32
REMARK                            x       y       z     vdW  Elec       q    Type
REMARK                         _______ _______ _______ _____ _____    ______ ____
ROOT
ATOM      1  C   UNL     1       5.156   2.856   1.613  0.00  0.00    +0.119 C 
ATOM      2  C   UNL     1       5.266   3.753   2.829  0.00  0.00    -0.045 C 
ATOM      3  N   UNL     1       6.485   4.548   2.880  0.00  0.00    +0.388 N 
ATOM      4  C   UNL     1       7.662   3.699   3.103  0.00  0.00    +0.019 C 
ATOM      5  C   UNL     1       8.155   3.192   1.764  0.00  0.00    +0.199 C 
ATOM      6  O   UNL     1       9.185   3.628   1.296  0.00  0.00    -0.278 OA
ATOM      7  N   UNL     1       7.461   2.268   1.094  0.00  0.00    -0.300 N 
ATOM      8  C   UNL     1       6.207   1.743   1.661  0.00  0.00    +0.137 C 
ATOM      9  H   UNL     1       6.594   5.043   2.007  0.00  0.00    -0.081 HD
ENDROOT
BRANCH   1  10
ATOM     10  O   UNL     1       3.853   2.270   1.577  0.00  0.00    -0.372 OA
BRANCH  10  11
ATOM     11  C   UNL     1       3.372   2.003   0.259  0.00  0.00    +0.197 C 
BRANCH  11  14
ATOM     12  C   UNL     1      -0.376   1.588   0.411  0.00  0.00    +0.020 A 
ATOM     13  C   UNL     1       0.869   2.195   0.335  0.00  0.00    +0.009 A 
ATOM     14  C   UNL     1       1.997   1.390   0.340  0.00  0.00    -0.004 A 
ATOM     15  C   UNL     1       1.846   0.019   0.421  0.00  0.00    +0.116 A 
ATOM     16  N   UNL     1       0.646  -0.524   0.491  0.00  0.00    -0.263 NA
ATOM     17  C   UNL     1      -0.449   0.210   0.489  0.00  0.00    +0.111 A 
ENDBRANCH  11  14
ENDBRANCH  10  11
ENDBRANCH   1  10
BRANCH   7  18
ATOM     18  C   UNL     1       7.946   1.779  -0.199  0.00  0.00    +0.111 C 
BRANCH  18  19
ATOM     19  C   UNL     1       8.854   0.567   0.022  0.00  0.00    +0.011 C 
ATOM     20  C   UNL     1      10.114   1.002   0.777  0.00  0.00    +0.033 C 
ATOM     21  C   UNL     1      11.051  -0.200   0.924  0.00  0.00    +0.160 C 
ATOM     22  O   UNL     1      11.366  -0.718  -0.369  0.00  0.00    -0.380 OA
ATOM     23  C   UNL     1      10.232  -1.184  -1.103  0.00  0.00    +0.160 C 
ATOM     24  C   UNL     1       9.261  -0.022  -1.332  0.00  0.00    +0.033 C 
ENDBRANCH  18  19
ENDBRANCH   7  18
BRANCH   3  25
ATOM     25  C   UNL     1       6.380   5.523   3.974  0.00  0.00    -0.063 C 
BRANCH  25  26
ATOM     26  C   UNL     1       5.281   6.537   3.650  0.00  0.00    +0.066 C 
ATOM     27  C   UNL     1       5.698   7.426   2.495  0.00  0.00    +0.115 C 
ATOM     28  N   UNL     1       5.725   8.632   2.962  0.00  0.00    -0.161 NA
ATOM     29  N   UNL     1       5.376   8.690   4.308  0.00  0.00    -0.153 NA
ATOM     30  C   UNL     1       5.097   7.510   4.798  0.00  0.00    +0.077 C 
BRANCH  30  31
ATOM     31  C   UNL     1       4.689   7.190   6.175  0.00  0.00    -0.001 A 
ATOM     32  C   UNL     1       4.431   5.865   6.542  0.00  0.00    +0.012 A 
ATOM     33  C   UNL     1       4.050   5.573   7.833  0.00  0.00    +0.039 A 
ATOM     34  C   UNL     1       3.922   6.589   8.768  0.00  0.00    +0.123 A 
ATOM     35  C   UNL     1       4.176   7.904   8.411  0.00  0.00    +0.039 A 
ATOM     36  C   UNL     1       4.563   8.210   7.125  0.00  0.00    +0.012 A 
ATOM     37  F   UNL     1       3.547   6.296  10.033  0.00  0.00    -0.205 F 
ENDBRANCH  30  31
ENDBRANCH  25  26
ENDBRANCH   3  25
TORSDOF 8
