REMARK  Name = ZINC53575985
REMARK  7 active torsions:
REMARK  status: ('A' for Active; 'I' for Inactive)
REMARK    1  A    between atoms: C_1  and  C_2
REMARK    2  A    between atoms: C_2  and  C_3
REMARK    3  A    between atoms: C_6  and  C_8
REMARK    4  A    between atoms: N_10  and  C_11
REMARK    5  A    between atoms: C_13  and  S_18
REMARK    6  A    between atoms: C_16  and  O_17
REMARK    7  A    between atoms: S_18  and  N_21
REMARK                            x       y       z     vdW  Elec       q    Type
REMARK                         _______ _______ _______ _____ _____    ______ ____
ROOT
ATOM      1  C   UNL     1       5.888  -2.156   4.145  0.00  0.00    +0.077 A 
ATOM      2  C   UNL     1       5.740  -2.556   5.465  0.00  0.00    +0.055 A 
ATOM      3  C   UNL     1       6.853  -2.877   6.218  0.00  0.00    +0.107 A 
ATOM      4  C   UNL     1       8.116  -2.799   5.660  0.00  0.00    +0.032 A 
ATOM      5  C   UNL     1       8.271  -2.400   4.345  0.00  0.00    +0.049 A 
ATOM      6  C   UNL     1       7.160  -2.083   3.581  0.00  0.00    +0.138 A 
ENDROOT
BRANCH   1   9
ATOM      7  C   UNL     1       3.702  -1.233   3.960  0.00  0.00    +0.255 C 
ATOM      8  O   UNL     1       3.690  -1.050   5.163  0.00  0.00    -0.269 OA
ATOM      9  N   UNL     1       4.761  -1.830   3.380  0.00  0.00    -0.278 N 
ATOM     10  H   UNL     1       4.743  -2.035   2.432  0.00  0.00    +0.155 HD
BRANCH   7  14
ATOM     11  C   UNL     1       0.811  -0.235   1.257  0.00  0.00    -0.010 A 
ATOM     12  C   UNL     1       0.497   0.104   2.532  0.00  0.00    +0.012 A 
ATOM     13  C   UNL     1       1.390  -0.179   3.537  0.00  0.00    +0.021 A 
ATOM     14  C   UNL     1       2.563  -0.804   3.143  0.00  0.00    +0.074 A 
ATOM     15  S   UNL     1       2.324  -0.954   1.383  0.00  0.00    -0.089 S 
BRANCH  11  17
ATOM     16  C   UNL     1       0.336   1.336  -0.602  0.00  0.00    +0.009 C 
ATOM     17  C   UNL     1      -0.012  -0.021   0.013  0.00  0.00    +0.039 C 
ENDBRANCH  11  17
ENDBRANCH   7  14
ENDBRANCH   1   9
BRANCH   3  18
ATOM     18  S   UNL     1       6.663  -3.385   7.895  0.00  0.00    +0.061 S 
ATOM     19  O   UNL     1       7.895  -3.105   8.546  0.00  0.00    -0.153 OA
ATOM     20  O   UNL     1       5.425  -2.852   8.343  0.00  0.00    -0.153 OA
BRANCH  18  21
ATOM     21  N   UNL     1       6.495  -5.033   7.890  0.00  0.00    -0.177 NA
ATOM     22  C   UNL     1       5.224  -5.764   7.785  0.00  0.00    +0.109 C 
ATOM     23  C   UNL     1       5.555  -7.270   7.849  0.00  0.00    +0.018 C 
ATOM     24  C   UNL     1       6.936  -7.292   8.556  0.00  0.00    +0.018 C 
ATOM     25  C   UNL     1       7.596  -6.009   7.986  0.00  0.00    +0.109 C 
ENDBRANCH  18  21
ENDBRANCH   3  18
BRANCH   6  26
ATOM     26  O   UNL     1       7.311  -1.697   2.286  0.00  0.00    -0.505 OA
ATOM     27  H   UNL     1       7.421  -0.744   2.171  0.00  0.00    +0.292 HD
ENDBRANCH   6  26
TORSDOF 6
