REMARK  Name = ZINC22578117
REMARK  10 active torsions:
REMARK  status: ('A' for Active; 'I' for Inactive)
REMARK    1  A    between atoms: C_1  and  C_2
REMARK    2  A    between atoms: C_2  and  C_4
REMARK    3  A    between atoms: C_2  and  S_27
REMARK    4  A    between atoms: N_6  and  C_7
REMARK    5  A    between atoms: C_8  and  C_23
REMARK    6  A    between atoms: C_13  and  C_17
REMARK    7  A    between atoms: C_23  and  O_25
REMARK    8  A    between atoms: O_25  and  C_26
REMARK    9  A    between atoms: S_27  and  C_28
REMARK   10  A    between atoms: C_31  and  N_34
REMARK                            x       y       z     vdW  Elec       q    Type
REMARK                         _______ _______ _______ _____ _____    ______ ____
ROOT
ATOM      1  C   UNL     1       3.739  -7.184   0.485  0.00  0.00    +0.086 A 
ATOM      2  C   UNL     1       3.697  -6.948  -0.882  0.00  0.00    +0.091 A 
ATOM      3  C   UNL     1       3.472  -5.581  -1.321  0.00  0.00    -0.021 A 
ATOM      4  C   UNL     1       3.326  -4.675  -0.330  0.00  0.00    -0.004 A 
ATOM      5  S   UNL     1       3.482  -5.611   1.165  0.00  0.00    -0.077 S 
ATOM      6  C   UNL     1       3.083  -3.205  -0.478  0.00  0.00    +0.051 C 
ATOM      7  C   UNL     1       2.652  -2.929  -1.926  0.00  0.00    +0.024 C 
ATOM      8  C   UNL     1       3.616  -3.649  -2.874  0.00  0.00    +0.013 C 
ATOM      9  C   UNL     1       3.401  -5.161  -2.784  0.00  0.00    +0.037 C 
ENDROOT
BRANCH   7  10
ATOM     10  C   UNL     1       2.694  -1.447  -2.193  0.00  0.00    -0.044 A 
ATOM     11  C   UNL     1       1.546  -0.781  -2.580  0.00  0.00    +0.004 A 
ATOM     12  C   UNL     1       1.585   0.579  -2.824  0.00  0.00    +0.000 A 
ATOM     13  C   UNL     1       2.771   1.274  -2.680  0.00  0.00    +0.000 A 
ATOM     14  C   UNL     1       3.920   0.608  -2.293  0.00  0.00    +0.000 A 
ATOM     15  C   UNL     1       3.881  -0.752  -2.049  0.00  0.00    +0.004 A 
ENDBRANCH   7  10
BRANCH   1  18
ATOM     16  C   UNL     1       3.946  -8.420   2.494  0.00  0.00    +0.231 C 
ATOM     17  O   UNL     1       3.780  -7.399   3.128  0.00  0.00    -0.274 OA
ATOM     18  N   UNL     1       3.937  -8.386   1.147  0.00  0.00    -0.278 N 
ATOM     19  H   UNL     1       4.087  -9.312   0.572  0.00  0.00    +0.155 HD
BRANCH  16  21
ATOM     20  C   UNL     1       2.850 -10.516   3.239  0.00  0.00    +0.029 C 
ATOM     21  C   UNL     1       4.161  -9.727   3.213  0.00  0.00    +0.134 C 
BRANCH  21  22
ATOM     22  S   UNL     1       4.704  -9.400   4.912  0.00  0.00    -0.113 S 
BRANCH  22  23
ATOM     23  C   UNL     1       5.118 -10.993   5.542  0.00  0.00    +0.009 A 
ATOM     24  C   UNL     1       4.178 -11.722   6.259  0.00  0.00    +0.016 A 
ATOM     25  C   UNL     1       4.500 -12.973   6.747  0.00  0.00    +0.024 A 
ATOM     26  C   UNL     1       5.768 -13.497   6.531  0.00  0.00    +0.025 A 
ATOM     27  C   UNL     1       6.710 -12.765   5.819  0.00  0.00    +0.024 A 
ATOM     28  C   UNL     1       6.386 -11.517   5.326  0.00  0.00    +0.016 A 
BRANCH  26  29
ATOM     29  N   UNL     1       6.097 -14.763   7.030  0.00  0.00    -0.358 N 
ATOM     30  H   UNL     1       7.101 -15.178   6.860  0.00  0.00    +0.142 HD
ATOM     31  H   UNL     1       5.351 -15.342   7.594  0.00  0.00    +0.142 HD
ENDBRANCH  26  29
ENDBRANCH  22  23
ENDBRANCH  21  22
ENDBRANCH  16  21
ENDBRANCH   1  18
BRANCH   2  32
ATOM     32  C   UNL     1       3.873  -8.036  -1.847  0.00  0.00    +0.342 C 
ATOM     33  O   UNL     1       4.986  -8.318  -2.250  0.00  0.00    -0.245 OA
BRANCH  32  34
ATOM     34  O   UNL     1       2.801  -8.726  -2.288  0.00  0.00    -0.464 OA
ATOM     35  C   UNL     1       3.050  -9.791  -3.243  0.00  0.00    +0.280 C 
ENDBRANCH  32  34
ENDBRANCH   2  32
TORSDOF 8
