REMARK  Name = ZINC39874584
REMARK  7 active torsions:
REMARK  status: ('A' for Active; 'I' for Inactive)
REMARK    1  A    between atoms: C_1  and  C_2
REMARK    2  A    between atoms: C_5  and  N_9
REMARK    3  A    between atoms: C_7  and  C_8
REMARK    4  A    between atoms: C_10  and  C_26
REMARK    5  A    between atoms: C_29  and  O_32
REMARK    6  A    between atoms: O_32  and  C_33
REMARK    7  A    between atoms: C_33  and  C_34
REMARK                            x       y       z     vdW  Elec       q    Type
REMARK                         _______ _______ _______ _____ _____    ______ ____
ROOT
ATOM      1  N   UNL     1       0.057  -4.168  -0.021  0.00  0.00    -0.253 N 
ATOM      2  C   UNL     1       0.068  -5.027  -1.217  0.00  0.00    +0.150 C 
ATOM      3  C   UNL     1       0.084  -6.431  -0.710  0.00  0.00    +0.072 A 
ATOM      4  C   UNL     1       0.089  -7.715  -1.419  0.00  0.00    +0.199 A 
ATOM      5  O   UNL     1       0.258  -7.811  -2.622  0.00  0.00    -0.287 OA
ATOM      6  C   UNL     1      -0.130  -8.885  -0.532  0.00  0.00    +0.066 A 
ATOM      7  C   UNL     1      -0.350 -10.151  -1.075  0.00  0.00    +0.035 A 
ATOM      8  C   UNL     1      -0.557 -11.225  -0.237  0.00  0.00    +0.042 A 
ATOM      9  C   UNL     1      -0.547 -11.044   1.141  0.00  0.00    +0.023 A 
ATOM     10  C   UNL     1      -0.329  -9.800   1.687  0.00  0.00    +0.048 A 
ATOM     11  C   UNL     1      -0.114  -8.698   0.860  0.00  0.00    +0.140 A 
ATOM     12  O   UNL     1       0.107  -7.488   1.424  0.00  0.00    -0.450 OA
ATOM     13  C   UNL     1       0.087  -6.381   0.656  0.00  0.00    +0.199 A 
ATOM     14  C   UNL     1       0.073  -4.967   1.066  0.00  0.00    +0.287 C 
ATOM     15  O   UNL     1       0.074  -4.576   2.217  0.00  0.00    -0.266 OA
ATOM     16 CL   UNL     1      -0.831 -12.804  -0.903  0.00  0.00    -0.084 Cl
ENDROOT
BRANCH   1  21
ATOM     17  C   UNL     1      -0.018   1.503   0.010  0.00  0.00    +0.044 C 
ATOM     18  C   UNL     1       0.002  -0.004   0.002  0.00  0.00    -0.047 A 
ATOM     19  C   UNL     1       0.006  -0.688  -1.200  0.00  0.00    +0.005 A 
ATOM     20  C   UNL     1       0.024  -2.068  -1.212  0.00  0.00    +0.024 A 
ATOM     21  C   UNL     1       0.039  -2.771  -0.013  0.00  0.00    +0.038 A 
ATOM     22  C   UNL     1       0.036  -2.081   1.193  0.00  0.00    +0.027 A 
ATOM     23  C   UNL     1       0.023  -0.700   1.196  0.00  0.00    -0.046 A 
ATOM     24  C   UNL     1       0.026   0.049   2.504  0.00  0.00    +0.044 C 
ENDBRANCH   1  21
BRANCH   2  25
ATOM     25  C   UNL     1      -1.169  -4.784  -2.042  0.00  0.00    -0.022 A 
ATOM     26  C   UNL     1      -2.388  -4.593  -1.419  0.00  0.00    +0.009 A 
ATOM     27  C   UNL     1      -3.524  -4.371  -2.173  0.00  0.00    +0.046 A 
ATOM     28  C   UNL     1      -3.440  -4.338  -3.558  0.00  0.00    +0.121 A 
ATOM     29  C   UNL     1      -2.216  -4.530  -4.181  0.00  0.00    +0.046 A 
ATOM     30  C   UNL     1      -1.082  -4.746  -3.422  0.00  0.00    +0.009 A 
BRANCH  28  31
ATOM     31  O   UNL     1      -4.556  -4.120  -4.302  0.00  0.00    -0.483 OA
BRANCH  31  32
ATOM     32  C   UNL     1      -4.395  -4.100  -5.722  0.00  0.00    +0.324 C 
BRANCH  32  33
ATOM     33  C   UNL     1      -5.730  -3.848  -6.375  0.00  0.00    +0.248 C 
ATOM     34  O   UNL     1      -6.721  -3.699  -5.692  0.00  0.00    -0.272 OA
ATOM     35  N   UNL     1      -5.821  -3.786  -7.718  0.00  0.00    -0.327 N 
ATOM     36  H   UNL     1      -5.029  -3.905  -8.265  0.00  0.00    +0.145 HD
ATOM     37  H   UNL     1      -6.680  -3.623  -8.139  0.00  0.00    +0.145 HD
ENDBRANCH  32  33
ENDBRANCH  31  32
ENDBRANCH  28  31
ENDBRANCH   2  25
TORSDOF 5
