REMARK  Name = ZINC14269770
REMARK  9 active torsions:
REMARK  status: ('A' for Active; 'I' for Inactive)
REMARK    1  A    between atoms: C_1  and  C_2
REMARK    2  A    between atoms: C_4  and  N_10
REMARK    3  A    between atoms: C_5  and  O_9
REMARK    4  A    between atoms: C_7  and  C_8
REMARK    5  A    between atoms: N_10  and  C_11
REMARK    6  A    between atoms: C_11  and  N_13
REMARK    7  A    between atoms: C_14  and  C_16
REMARK    8  A    between atoms: C_17  and  C_18
REMARK    9  A    between atoms: C_21  and  C_23
REMARK                            x       y       z     vdW  Elec       q    Type
REMARK                         _______ _______ _______ _____ _____    ______ ____
ROOT
ATOM      1  N   UNL     1       0.024   0.969   0.389  0.00  0.00    -0.264 N 
ATOM      2  C   UNL     1      -1.100   1.600   0.784  0.00  0.00    +0.242 C 
ATOM      3  O   UNL     1      -1.051   2.763   1.143  0.00  0.00    -0.270 OA
ATOM      4  H   UNL     1      -0.015   0.043   0.104  0.00  0.00    +0.157 HD
ENDROOT
BRANCH   1   5
ATOM      5  C   UNL     1       1.200   1.627   0.386  0.00  0.00    +0.141 C 
ATOM      6  S   UNL     1       1.268   3.262   0.889  0.00  0.00    -0.018 S 
BRANCH   5   7
ATOM      7  N   UNL     1       2.323   0.998  -0.015  0.00  0.00    -0.294 N 
ATOM      8  H   UNL     1       2.300   0.051  -0.224  0.00  0.00    +0.154 HD
BRANCH   7  12
ATOM      9  C   UNL     1       4.731   5.023  -1.488  0.00  0.00    +0.044 C 
ATOM     10  C   UNL     1       4.720   3.664  -0.837  0.00  0.00    -0.046 A 
ATOM     11  C   UNL     1       3.535   2.962  -0.727  0.00  0.00    +0.030 A 
ATOM     12  C   UNL     1       3.523   1.711  -0.128  0.00  0.00    +0.075 A 
ATOM     13  C   UNL     1       4.708   1.168   0.365  0.00  0.00    +0.138 A 
ATOM     14  C   UNL     1       5.893   1.875   0.245  0.00  0.00    +0.051 A 
ATOM     15  C   UNL     1       5.896   3.122  -0.353  0.00  0.00    -0.044 A 
ATOM     16  C   UNL     1       7.186   3.892  -0.478  0.00  0.00    +0.044 C 
BRANCH  13  17
ATOM     17  O   UNL     1       4.702  -0.056   0.958  0.00  0.00    -0.505 OA
ATOM     18  H   UNL     1       4.852  -0.790   0.347  0.00  0.00    +0.292 HD
ENDBRANCH  13  17
ENDBRANCH   7  12
ENDBRANCH   5   7
ENDBRANCH   1   5
BRANCH   2  19
ATOM     19  C   UNL     1      -2.333   0.912   0.783  0.00  0.00    +0.071 C 
ATOM     20  C   UNL     1      -3.467   1.548   1.181  0.00  0.00    +0.051 C 
BRANCH  20  21
ATOM     21  C   UNL     1      -4.700   0.860   1.179  0.00  0.00    +0.129 A 
ATOM     22  C   UNL     1      -5.922   1.386   1.558  0.00  0.00    +0.050 A 
ATOM     23  C   UNL     1      -6.866   0.369   1.401  0.00  0.00    +0.050 A 
ATOM     24  C   UNL     1      -6.192  -0.737   0.934  0.00  0.00    +0.137 A 
ATOM     25  O   UNL     1      -4.891  -0.421   0.802  0.00  0.00    -0.455 OA
BRANCH  24  26
ATOM     26  C   UNL     1      -6.796  -2.047   0.625  0.00  0.00    +0.036 A 
ATOM     27  C   UNL     1      -7.624  -2.676   1.558  0.00  0.00    +0.014 A 
ATOM     28  C   UNL     1      -8.190  -3.898   1.261  0.00  0.00    +0.021 A 
ATOM     29  C   UNL     1      -7.929  -4.508   0.044  0.00  0.00    +0.042 A 
ATOM     30  C   UNL     1      -7.105  -3.894  -0.883  0.00  0.00    +0.040 A 
ATOM     31  C   UNL     1      -6.537  -2.668  -0.601  0.00  0.00    +0.053 A 
ATOM     32 CL   UNL     1      -5.504  -1.899  -1.765  0.00  0.00    -0.083 Cl
ATOM     33 CL   UNL     1      -8.640  -6.050  -0.318  0.00  0.00    -0.083 Cl
ENDBRANCH  24  26
ENDBRANCH  20  21
ENDBRANCH   2  19
TORSDOF 7
