REMARK  Name = ZINC63385997
REMARK  10 active torsions:
REMARK  status: ('A' for Active; 'I' for Inactive)
REMARK    1  A    between atoms: C_1  and  C_2
REMARK    2  A    between atoms: C_13  and  C_15
REMARK    3  A    between atoms: C_15  and  C_16
REMARK    4  A    between atoms: N_18  and  C_19
REMARK    5  A    between atoms: C_19  and  C_20
REMARK    6  A    between atoms: C_20  and  C_21
REMARK    7  A    between atoms: C_25  and  O_30
REMARK    8  A    between atoms: O_30  and  C_31
REMARK    9  A    between atoms: C_33  and  C_36
REMARK   10  A    between atoms: C_33  and  C_37
REMARK                            x       y       z     vdW  Elec       q    Type
REMARK                         _______ _______ _______ _____ _____    ______ ____
ROOT
ATOM      1  C   UNL     1       1.115  -1.984   1.060  0.00  0.00    +0.111 C 
ENDROOT
BRANCH   1  13
ATOM      2  C   UNL     1      -0.019   1.526   0.010  0.00  0.00    +0.013 C 
ATOM      3  C   UNL     1       0.002  -0.004   0.002  0.00  0.00    +0.034 C 
ATOM      4  C   UNL     1      -1.413  -0.524   0.009  0.00  0.00    -0.001 A 
ATOM      5  C   UNL     1      -2.116  -0.546  -1.185  0.00  0.00    +0.014 A 
ATOM      6  C   UNL     1      -3.419  -1.008  -1.230  0.00  0.00    -0.005 A 
ATOM      7  C   UNL     1      -4.031  -1.456  -0.071  0.00  0.00    +0.128 A 
ATOM      8  C   UNL     1      -3.330  -1.435   1.127  0.00  0.00    +0.092 A 
ATOM      9  C   UNL     1      -2.021  -0.974   1.168  0.00  0.00    +0.139 A 
ATOM     10  O   UNL     1      -1.366  -0.989   2.362  0.00  0.00    -0.425 OA
ATOM     11  C   UNL     1      -0.179  -0.354   2.429  0.00  0.00    +0.316 C 
ATOM     12  O   UNL     1       0.132   0.307   3.392  0.00  0.00    -0.250 OA
ATOM     13  C   UNL     1       0.747  -0.510   1.241  0.00  0.00    +0.114 C 
ATOM     14  O   UNL     1      -5.306  -1.925  -0.070  0.00  0.00    -0.486 OA
ATOM     15  C   UNL     1      -6.134  -1.607  -1.190  0.00  0.00    +0.105 C 
ATOM     16  C   UNL     1      -5.360  -1.935  -2.473  0.00  0.00    +0.052 C 
ATOM     17  C   UNL     1      -4.145  -1.008  -2.551  0.00  0.00    +0.042 C 
ATOM     18  C   UNL     1      -6.484  -0.118  -1.165  0.00  0.00    +0.055 C 
ATOM     19  C   UNL     1      -7.417  -2.440  -1.134  0.00  0.00    +0.055 C 
ENDBRANCH   1  13
BRANCH   1  20
ATOM     20  C   UNL     1       1.952  -2.439   2.227  0.00  0.00    +0.214 C 
ATOM     21  O   UNL     1       2.227  -1.662   3.117  0.00  0.00    -0.276 OA
ATOM     22  N   UNL     1       2.396  -3.711   2.283  0.00  0.00    -0.315 N 
ATOM     23  H   UNL     1       2.176  -4.332   1.572  0.00  0.00    +0.149 HD
BRANCH  22  24
ATOM     24  C   UNL     1       3.210  -4.154   3.418  0.00  0.00    +0.108 C 
BRANCH  24  25
ATOM     25  C   UNL     1       3.579  -5.627   3.236  0.00  0.00    +0.052 C 
BRANCH  25  26
ATOM     26  C   UNL     1       4.416  -6.083   4.404  0.00  0.00    -0.040 C 
ATOM     27  C   UNL     1       3.980  -6.708   5.520  0.00  0.00    -0.001 A 
ATOM     28  C   UNL     1       2.646  -7.133   5.963  0.00  0.00    +0.013 A 
ATOM     29  C   UNL     1       2.517  -7.750   7.158  0.00  0.00    +0.046 A 
ATOM     30  C   UNL     1       3.629  -7.994   7.987  0.00  0.00    +0.122 A 
ATOM     31  C   UNL     1       4.890  -7.629   7.642  0.00  0.00    +0.071 A 
ATOM     32  C   UNL     1       5.135  -6.976   6.409  0.00  0.00    +0.046 A 
ATOM     33  N   UNL     1       6.242  -6.532   5.860  0.00  0.00    -0.380 N 
ATOM     34  C   UNL     1       5.913  -5.939   4.559  0.00  0.00    +0.144 C 
ATOM     35  H   UNL     1       7.129  -6.590   6.248  0.00  0.00    +0.160 HD
BRANCH  30  36
ATOM     36  O   UNL     1       3.432  -8.617   9.175  0.00  0.00    -0.495 OA
ATOM     37  C   UNL     1       2.090  -8.984   9.500  0.00  0.00    +0.277 C 
ENDBRANCH  30  36
ENDBRANCH  25  26
ENDBRANCH  24  25
ENDBRANCH  22  24
ENDBRANCH   1  20
TORSDOF 6
