REMARK  Name = ZINC21318885
REMARK  9 active torsions:
REMARK  status: ('A' for Active; 'I' for Inactive)
REMARK    1  A    between atoms: C_1  and  O_2
REMARK    2  A    between atoms: O_2  and  C_3
REMARK    3  A    between atoms: C_7  and  C_10
REMARK    4  A    between atoms: C_8  and  O_9
REMARK    5  A    between atoms: N_11  and  N_12
REMARK    6  A    between atoms: C_16  and  S_19
REMARK    7  A    between atoms: N_17  and  N_18
REMARK    8  A    between atoms: S_19  and  C_20
REMARK    9  A    between atoms: C_20  and  C_21
REMARK                            x       y       z     vdW  Elec       q    Type
REMARK                         _______ _______ _______ _____ _____    ______ ____
ROOT
ATOM      1  N   UNL     1       0.002  -0.004   0.002  0.00  0.00    -0.204 N 
ATOM      2  C   UNL     1      -0.017   1.383   0.010  0.00  0.00    +0.254 A 
ATOM      3  N   UNL     1      -1.088   2.139   0.018  0.00  0.00    -0.109 NA
ATOM      4  N   UNL     1      -0.673   3.477   0.026  0.00  0.00    -0.119 NA
ATOM      5  C   UNL     1       0.639   3.495   0.014  0.00  0.00    +0.210 A 
ATOM      6  N   UNL     1       1.078   2.202   0.004  0.00  0.00    -0.211 N 
ATOM      7  H   UNL     1       0.962  -0.541  -0.010  0.00  0.00    +0.177 HD
ENDROOT
BRANCH   6   8
ATOM      8  N   UNL     1       2.383   1.797  -0.010  0.00  0.00    -0.294 N 
ATOM      9  H   UNL     1       3.190   2.544  -0.014  0.00  0.00    +0.163 HD
ATOM     10  H   UNL     1       2.626   0.725  -0.018  0.00  0.00    +0.163 HD
ENDBRANCH   6   8
BRANCH   1  12
ATOM     11  C   UNL     1      -1.184  -2.020   0.003  0.00  0.00    +0.142 C 
ATOM     12  N   UNL     1      -1.202  -0.721   0.010  0.00  0.00    -0.187 NA
BRANCH  11  17
ATOM     13  C   UNL     1      -4.862  -2.814   0.034  0.00  0.00    +0.162 A 
ATOM     14  C   UNL     1      -4.832  -4.201   0.027  0.00  0.00    +0.049 A 
ATOM     15  C   UNL     1      -3.622  -4.873   0.011  0.00  0.00    +0.004 A 
ATOM     16  C   UNL     1      -2.435  -4.171   0.003  0.00  0.00    +0.013 A 
ATOM     17  C   UNL     1      -2.450  -2.774   0.011  0.00  0.00    +0.040 A 
ATOM     18  C   UNL     1      -3.674  -2.094   0.032  0.00  0.00    +0.167 A 
BRANCH  13  20
ATOM     19  C   UNL     1      -7.235  -2.964   0.058  0.00  0.00    +0.277 C 
ATOM     20  O   UNL     1      -6.054  -2.160   0.050  0.00  0.00    -0.491 OA
ENDBRANCH  13  20
BRANCH  18  21
ATOM     21  O   UNL     1      -3.700  -0.735   0.045  0.00  0.00    -0.503 OA
ATOM     22  H   UNL     1      -2.758  -0.167   0.043  0.00  0.00    +0.292 HD
ENDBRANCH  18  21
ENDBRANCH  11  17
ENDBRANCH   1  12
BRANCH   5  23
ATOM     23  S   UNL     1       1.655   4.934   0.012  0.00  0.00    -0.080 S 
BRANCH  23  24
ATOM     24  C   UNL     1       0.470   6.308   0.029  0.00  0.00    +0.114 C 
BRANCH  24  25
ATOM     25  C   UNL     1       1.218   7.616   0.029  0.00  0.00    -0.019 A 
ATOM     26  C   UNL     1       1.567   8.213   1.226  0.00  0.00    +0.006 A 
ATOM     27  C   UNL     1       2.257   9.411   1.226  0.00  0.00    +0.000 A 
ATOM     28  C   UNL     1       2.590  10.018   0.029  0.00  0.00    +0.001 A 
ATOM     29  C   UNL     1       2.237   9.425  -1.168  0.00  0.00    +0.020 A 
ATOM     30  C   UNL     1       1.551   8.223  -1.169  0.00  0.00    +0.045 A 
ATOM     31 CL   UNL     1       1.107   7.477  -2.672  0.00  0.00    -0.083 Cl
ENDBRANCH  24  25
ENDBRANCH  23  24
ENDBRANCH   5  23
TORSDOF 8
