REMARK  Name = ZINC20288344
REMARK  10 active torsions:
REMARK  status: ('A' for Active; 'I' for Inactive)
REMARK    1  A    between atoms: C_1  and  C_2
REMARK    2  A    between atoms: C_2  and  C_4
REMARK    3  A    between atoms: C_2  and  N_23
REMARK    4  A    between atoms: C_4  and  C_6
REMARK    5  A    between atoms: C_4  and  N_11
REMARK    6  A    between atoms: N_14  and  C_17
REMARK    7  A    between atoms: C_24  and  C_26
REMARK    8  A    between atoms: N_28  and  C_29
REMARK    9  A    between atoms: C_29  and  C_30
REMARK   10  A    between atoms: C_30  and  C_31
REMARK                            x       y       z     vdW  Elec       q    Type
REMARK                         _______ _______ _______ _____ _____    ______ ____
ROOT
ATOM      1  C   UNL     1      -0.729   1.579   1.267  0.00  0.00    +0.030 C 
ATOM      2  C   UNL     1      -0.013   1.086   0.008  0.00  0.00    +0.092 C 
ENDROOT
BRANCH   2   3
ATOM      3  N   UNL     1       1.362   1.593  -0.002  0.00  0.00    -0.303 N 
ATOM      4  C   UNL     1       2.331   0.926   0.654  0.00  0.00    +0.299 C 
ATOM      5  O   UNL     1       2.066  -0.095   1.254  0.00  0.00    -0.265 OA
ATOM      6  H   UNL     1       1.602   2.518  -0.546  0.00  0.00    +0.149 HD
BRANCH   4   7
ATOM      7  C   UNL     1       3.733   1.443   0.644  0.00  0.00    +0.299 C 
ATOM      8  O   UNL     1       3.999   2.464   0.044  0.00  0.00    -0.265 OA
ATOM      9  N   UNL     1       4.703   0.775   1.300  0.00  0.00    -0.307 N 
ATOM     10  H   UNL     1       4.462  -0.150   1.844  0.00  0.00    +0.149 HD
BRANCH   9  11
ATOM     11  C   UNL     1       6.077   1.283   1.290  0.00  0.00    +0.109 C 
BRANCH  11  12
ATOM     12  C   UNL     1       6.972   0.346   2.104  0.00  0.00    +0.056 C 
BRANCH  12  13
ATOM     13  C   UNL     1       8.386   0.868   2.093  0.00  0.00    -0.021 A 
ATOM     14  C   UNL     1       9.369   0.494   1.259  0.00  0.00    +0.087 A 
ATOM     15  N   UNL     1      10.514   1.185   1.548  0.00  0.00    -0.360 N 
ATOM     16  H   UNL     1      11.426   1.010   0.957  0.00  0.00    +0.165 HD
ATOM     17  C   UNL     1      10.293   2.036   2.607  0.00  0.00    +0.047 A 
ATOM     18  C   UNL     1       8.950   1.875   2.995  0.00  0.00    +0.003 A 
ATOM     19  C   UNL     1       8.438   2.621   4.058  0.00  0.00    +0.010 A 
ATOM     20  C   UNL     1       9.245   3.505   4.717  0.00  0.00    +0.001 A 
ATOM     21  C   UNL     1      10.571   3.667   4.338  0.00  0.00    +0.002 A 
ATOM     22  C   UNL     1      11.097   2.941   3.292  0.00  0.00    +0.026 A 
ENDBRANCH  12  13
ENDBRANCH  11  12
ENDBRANCH   9  11
ENDBRANCH   4   7
ENDBRANCH   2   3
BRANCH   2  23
ATOM     23  C   UNL     1      -0.753   1.593  -1.232  0.00  0.00    +0.114 C 
BRANCH  23  24
ATOM     24  N   UNL     1      -2.162   1.185  -1.161  0.00  0.00    -0.290 NA
ATOM     25  C   UNL     1      -2.282  -0.273  -1.014  0.00  0.00    +0.104 C 
ATOM     26  C   UNL     1      -3.758  -0.648  -0.865  0.00  0.00    +0.120 C 
ATOM     27  N   UNL     1      -4.502  -0.178  -2.042  0.00  0.00    -0.327 N 
ATOM     28  C   UNL     1      -4.382   1.279  -2.189  0.00  0.00    +0.120 C 
ATOM     29  C   UNL     1      -2.906   1.655  -2.338  0.00  0.00    +0.104 C 
BRANCH  27  30
ATOM     30  C   UNL     1      -5.842  -0.566  -1.976  0.00  0.00    +0.030 A 
ATOM     31  C   UNL     1      -6.847   0.390  -2.043  0.00  0.00    +0.023 A 
ATOM     32  C   UNL     1      -8.171   0.002  -1.982  0.00  0.00    +0.002 A 
ATOM     33  C   UNL     1      -8.496  -1.335  -1.843  0.00  0.00    +0.000 A 
ATOM     34  C   UNL     1      -7.498  -2.288  -1.770  0.00  0.00    +0.002 A 
ATOM     35  C   UNL     1      -6.172  -1.908  -1.836  0.00  0.00    +0.023 A 
ENDBRANCH  27  30
ENDBRANCH  23  24
BRANCH  23  36
ATOM     36  C   UNL     1      -0.667   3.096  -1.288  0.00  0.00    +0.009 A 
ATOM     37  C   UNL     1       0.163   3.877  -2.022  0.00  0.00    +0.013 A 
ATOM     38  C   UNL     1       0.059   5.251  -1.915  0.00  0.00    +0.008 A 
ATOM     39  C   UNL     1      -0.863   5.777  -1.071  0.00  0.00    +0.045 A 
ATOM     40  S   UNL     1      -1.628   4.311  -0.399  0.00  0.00    -0.100 S 
ENDBRANCH  23  36
ENDBRANCH   2  23
TORSDOF 9
