REMARK  Name = ZINC39961122
REMARK  3 active torsions:
REMARK  status: ('A' for Active; 'I' for Inactive)
REMARK    1  A    between atoms: C_11  and  C_13
REMARK    2  A    between atoms: C_13  and  N_14
REMARK    3  A    between atoms: C_16  and  C_20
REMARK                            x       y       z     vdW  Elec       q    Type
REMARK                         _______ _______ _______ _____ _____    ______ ____
ROOT
ATOM      1  N   UNL     1       6.055  -1.565  -0.069  0.00  0.00    -0.262 NA
ATOM      2  N   UNL     1       6.186  -0.938   1.250  0.00  0.00    -0.247 NA
ATOM      3  C   UNL     1       7.628  -0.684   1.451  0.00  0.00    +0.152 C 
ATOM      4  N   UNL     1       8.308  -1.181   0.233  0.00  0.00    -0.328 NA
ATOM      5  N   UNL     1       7.371  -2.170  -0.324  0.00  0.00    +0.411 N 
ATOM      6  H   UNL     1       5.657  -0.080   1.296  0.00  0.00    +0.141 HD
ATOM      7  H   UNL     1       8.473  -0.431  -0.421  0.00  0.00    +0.106 HD
ATOM      8  H   UNL     1       7.457  -3.052   0.157  0.00  0.00    -0.031 HD
ATOM      9  H   UNL     1       7.523  -2.285  -1.315  0.00  0.00    -0.031 HD
ENDROOT
BRANCH   3  10
ATOM     10  C   UNL     1       7.875   0.793   1.618  0.00  0.00    -0.013 A 
ATOM     11  C   UNL     1       6.902   1.596   2.183  0.00  0.00    +0.010 A 
ATOM     12  C   UNL     1       7.125   2.951   2.339  0.00  0.00    +0.050 A 
ATOM     13  C   UNL     1       8.325   3.509   1.929  0.00  0.00    +0.166 A 
ATOM     14  C   UNL     1       9.305   2.700   1.359  0.00  0.00    +0.167 A 
ATOM     15  C   UNL     1       9.077   1.341   1.211  0.00  0.00    +0.056 A 
ATOM     16  O   UNL     1      10.381   3.477   1.042  0.00  0.00    -0.453 OA
ATOM     17  C   UNL     1       9.893   4.832   1.047  0.00  0.00    +0.466 C 
ATOM     18  O   UNL     1       8.787   4.793   1.968  0.00  0.00    -0.453 OA
ENDBRANCH   3  10
BRANCH   1  19
ATOM     19  C   UNL     1       4.999  -2.586  -0.063  0.00  0.00    +0.159 C 
BRANCH  19  30
ATOM     20  C   UNL     1      -0.017   1.373   0.010  0.00  0.00    +0.001 A 
ATOM     21  C   UNL     1       1.169   2.096   0.002  0.00  0.00    +0.002 A 
ATOM     22  C   UNL     1       2.387   1.453  -0.013  0.00  0.00    +0.028 A 
ATOM     23  C   UNL     1       2.432   0.058  -0.021  0.00  0.00    +0.078 A 
ATOM     24  C   UNL     1       1.224  -0.674  -0.013  0.00  0.00    +0.065 A 
ATOM     25  C   UNL     1       0.002  -0.004   0.002  0.00  0.00    +0.015 A 
ATOM     26  C   UNL     1       1.306  -2.142  -0.022  0.00  0.00    +0.259 A 
ATOM     27  O   UNL     1       0.302  -2.832  -0.017  0.00  0.00    -0.267 OA
ATOM     28  N   UNL     1       2.540  -2.697  -0.038  0.00  0.00    -0.309 N 
ATOM     29  H   UNL     1       2.633  -3.663  -0.045  0.00  0.00    +0.170 HD
ATOM     30  C   UNL     1       3.650  -1.914  -0.045  0.00  0.00    +0.124 A 
ATOM     31  N   UNL     1       3.609  -0.616  -0.037  0.00  0.00    -0.232 NA
ENDBRANCH  19  30
ENDBRANCH   1  19
TORSDOF 3
