REMARK  Name = ZINC22325541
REMARK  7 active torsions:
REMARK  status: ('A' for Active; 'I' for Inactive)
REMARK    1  A    between atoms: C_1  and  C_2
REMARK    2  A    between atoms: N_5  and  C_11
REMARK    3  A    between atoms: C_7  and  C_10
REMARK    4  A    between atoms: C_11  and  C_12
REMARK    5  A    between atoms: N_17  and  C_18
REMARK    6  A    between atoms: C_18  and  C_20
REMARK    7  A    between atoms: N_26  and  C_27
REMARK                            x       y       z     vdW  Elec       q    Type
REMARK                         _______ _______ _______ _____ _____    ______ ____
ROOT
ATOM      1  C   UNL     1      -3.019   6.449   1.401  0.00  0.00    +0.039 A 
ATOM      2  C   UNL     1      -4.183   5.758   1.491  0.00  0.00    +0.071 A 
ATOM      3  S   UNL     1      -3.618   4.105   1.116  0.00  0.00    -0.060 S 
ATOM      4  C   UNL     1      -1.938   4.486   0.892  0.00  0.00    +0.163 A 
ATOM      5  N   UNL     1      -1.918   5.788   1.102  0.00  0.00    -0.338 N 
ATOM      6  N   UNL     1      -0.886   3.638   0.570  0.00  0.00    -0.151 NA
ATOM      7  H   UNL     1      -0.960   6.323   1.022  0.00  0.00    +0.167 HD
ENDROOT
BRANCH   6   8
ATOM      8  C   UNL     1      -1.113   2.321   0.395  0.00  0.00    +0.288 C 
ATOM      9  O   UNL     1      -2.250   1.889   0.425  0.00  0.00    -0.266 OA
BRANCH   8  10
ATOM     10  C   UNL     1       0.011   1.408   0.167  0.00  0.00    +0.129 A 
ATOM     11  C   UNL     1      -0.055   0.060   0.077  0.00  0.00    +0.116 A 
ATOM     12  N   UNL     1       1.212  -0.409  -0.144  0.00  0.00    -0.339 N 
ATOM     13  H   UNL     1       1.388  -1.490  -0.251  0.00  0.00    +0.167 HD
ATOM     14  C   UNL     1       2.059   0.637  -0.191  0.00  0.00    +0.163 A 
ATOM     15  S   UNL     1       3.749   0.544  -0.446  0.00  0.00    -0.013 S 
ATOM     16  N   UNL     1       1.352   1.769  -0.003  0.00  0.00    -0.284 N 
BRANCH  16  17
ATOM     17  C   UNL     1       1.867   3.071   0.018  0.00  0.00    +0.049 A 
ATOM     18  C   UNL     1       1.566   3.955  -1.009  0.00  0.00    +0.026 A 
ATOM     19  C   UNL     1       2.071   5.240  -0.983  0.00  0.00    +0.002 A 
ATOM     20  C   UNL     1       2.885   5.643   0.059  0.00  0.00    +0.000 A 
ATOM     21  C   UNL     1       3.192   4.763   1.081  0.00  0.00    +0.002 A 
ATOM     22  C   UNL     1       2.685   3.478   1.064  0.00  0.00    +0.026 A 
ENDBRANCH  16  17
ENDBRANCH   8  10
ENDBRANCH   6   8
BRANCH   1  23
ATOM     23  C   UNL     1      -2.985   7.936   1.639  0.00  0.00    +0.138 C 
BRANCH  23  27
ATOM     24  C   UNL     1      -1.705  11.345   4.950  0.00  0.00    +0.039 C 
ATOM     25  C   UNL     1      -1.915   9.850   4.702  0.00  0.00    +0.130 C 
ATOM     26  C   UNL     1      -2.347   9.629   3.249  0.00  0.00    +0.116 C 
ATOM     27  N   UNL     1      -2.622   8.200   3.037  0.00  0.00    -0.292 NA
ATOM     28  C   UNL     1      -3.672   7.731   3.953  0.00  0.00    +0.116 C 
ATOM     29  C   UNL     1      -3.227   7.971   5.398  0.00  0.00    +0.130 C 
ATOM     30  O   UNL     1      -2.934   9.359   5.577  0.00  0.00    -0.371 OA
ATOM     31  C   UNL     1      -1.974   7.143   5.691  0.00  0.00    +0.039 C 
ENDBRANCH  23  27
ENDBRANCH   1  23
TORSDOF 5
