REMARK  Name = ZINC63385022
REMARK  11 active torsions:
REMARK  status: ('A' for Active; 'I' for Inactive)
REMARK    1  A    between atoms: C_1  and  O_2
REMARK    2  A    between atoms: O_2  and  C_3
REMARK    3  A    between atoms: C_6  and  C_9
REMARK    4  A    between atoms: C_18  and  O_20
REMARK    5  A    between atoms: O_20  and  C_21
REMARK    6  A    between atoms: C_21  and  C_22
REMARK    7  A    between atoms: N_24  and  C_25
REMARK    8  A    between atoms: C_25  and  C_26
REMARK    9  A    between atoms: C_26  and  C_27
REMARK   10  A    between atoms: C_30  and  O_36
REMARK   11  A    between atoms: O_36  and  C_37
REMARK                            x       y       z     vdW  Elec       q    Type
REMARK                         _______ _______ _______ _____ _____    ______ ____
ROOT
ATOM      1  O   UNL     1      -0.386  -5.622  -7.996  0.00  0.00    -0.483 OA
ENDROOT
BRANCH   1  11
ATOM      2  C   UNL     1       2.493  -2.492  -4.361  0.00  0.00    -0.000 A 
ATOM      3  C   UNL     1       3.853  -2.359  -4.578  0.00  0.00    +0.101 A 
ATOM      4  C   UNL     1       4.443  -2.997  -5.681  0.00  0.00    +0.338 A 
ATOM      5  O   UNL     1       5.642  -2.875  -5.864  0.00  0.00    -0.245 OA
ATOM      6  O   UNL     1       3.724  -3.737  -6.539  0.00  0.00    -0.422 OA
ATOM      7  C   UNL     1       2.393  -3.911  -6.390  0.00  0.00    +0.143 A 
ATOM      8  C   UNL     1       1.722  -3.313  -5.310  0.00  0.00    +0.026 A 
ATOM      9  C   UNL     1       0.347  -3.495  -5.150  0.00  0.00    +0.016 A 
ATOM     10  C   UNL     1      -0.345  -4.261  -6.045  0.00  0.00    +0.046 A 
ATOM     11  C   UNL     1       0.314  -4.862  -7.115  0.00  0.00    +0.125 A 
ATOM     12  C   UNL     1       1.676  -4.682  -7.293  0.00  0.00    +0.092 A 
BRANCH   2  16
ATOM     13  C   UNL     1       0.605  -0.607  -1.055  0.00  0.00    +0.120 A 
ATOM     14  C   UNL     1       1.172   0.165  -2.061  0.00  0.00    +0.046 A 
ATOM     15  C   UNL     1       1.786  -0.442  -3.135  0.00  0.00    +0.012 A 
ATOM     16  C   UNL     1       1.837  -1.836  -3.211  0.00  0.00    -0.017 A 
ATOM     17  C   UNL     1       1.266  -2.608  -2.197  0.00  0.00    +0.012 A 
ATOM     18  C   UNL     1       0.659  -1.993  -1.124  0.00  0.00    +0.046 A 
BRANCH  13  20
ATOM     19  C   UNL     1      -0.017   1.425   0.010  0.00  0.00    +0.277 C 
ATOM     20  O   UNL     1       0.002  -0.004   0.002  0.00  0.00    -0.495 OA
ENDBRANCH  13  20
ENDBRANCH   2  16
ENDBRANCH   1  11
BRANCH   1  21
ATOM     21  C   UNL     1      -1.789  -5.759  -7.762  0.00  0.00    +0.324 C 
BRANCH  21  22
ATOM     22  C   UNL     1      -2.394  -6.630  -8.833  0.00  0.00    +0.251 C 
ATOM     23  O   UNL     1      -1.692  -7.088  -9.710  0.00  0.00    -0.272 OA
ATOM     24  N   UNL     1      -3.714  -6.900  -8.816  0.00  0.00    -0.312 N 
ATOM     25  H   UNL     1      -4.275  -6.534  -8.115  0.00  0.00    +0.149 HD
BRANCH  24  26
ATOM     26  C   UNL     1      -4.302  -7.747  -9.857  0.00  0.00    +0.108 C 
BRANCH  26  27
ATOM     27  C   UNL     1      -5.804  -7.894  -9.607  0.00  0.00    +0.052 C 
BRANCH  27  28
ATOM     28  C   UNL     1      -6.409  -8.765 -10.678  0.00  0.00    -0.040 C 
ATOM     29  C   UNL     1      -6.639 -10.096 -10.610  0.00  0.00    +0.002 A 
ATOM     30  C   UNL     1      -6.404 -11.094  -9.561  0.00  0.00    +0.055 A 
ATOM     31  C   UNL     1      -6.744 -12.387  -9.782  0.00  0.00    +0.121 A 
ATOM     32  C   UNL     1      -7.319 -12.816 -10.991  0.00  0.00    +0.047 A 
ATOM     33  C   UNL     1      -7.572 -11.973 -12.014  0.00  0.00    +0.029 A 
ATOM     34  C   UNL     1      -7.245 -10.549 -11.883  0.00  0.00    +0.043 A 
ATOM     35  N   UNL     1      -7.384  -9.539 -12.705  0.00  0.00    -0.380 N 
ATOM     36  C   UNL     1      -6.887  -8.327 -12.044  0.00  0.00    +0.144 C 
ATOM     37  H   UNL     1      -7.756  -9.584 -13.600  0.00  0.00    +0.160 HD
BRANCH  31  38
ATOM     38  O   UNL     1      -6.520 -13.301  -8.801  0.00  0.00    -0.495 OA
ATOM     39  C   UNL     1      -6.893 -14.652  -9.076  0.00  0.00    +0.277 C 
ENDBRANCH  31  38
ENDBRANCH  27  28
ENDBRANCH  26  27
ENDBRANCH  24  26
ENDBRANCH  21  22
ENDBRANCH   1  21
TORSDOF 9
