REMARK  Name = ZINC32717065
REMARK  10 active torsions:
REMARK  status: ('A' for Active; 'I' for Inactive)
REMARK    1  A    between atoms: C_1  and  C_2
REMARK    2  A    between atoms: C_2  and  C_3
REMARK    3  A    between atoms: C_3  and  C_4
REMARK    4  A    between atoms: C_4  and  N_5
REMARK    5  A    between atoms: C_6  and  N_31
REMARK    6  A    between atoms: C_7  and  N_14
REMARK    7  A    between atoms: N_14  and  C_15
REMARK    8  A    between atoms: C_15  and  C_16
REMARK    9  A    between atoms: C_17  and  C_19
REMARK   10  A    between atoms: C_22  and  C_24
REMARK                            x       y       z     vdW  Elec       q    Type
REMARK                         _______ _______ _______ _____ _____    ______ ____
ROOT
ATOM      1  N   UNL     1       0.272  -3.481  -6.012  0.00  0.00    -0.258 N 
ATOM      2  C   UNL     1      -1.027  -3.150  -5.871  0.00  0.00    +0.286 C 
ATOM      3  O   UNL     1      -1.434  -2.721  -4.807  0.00  0.00    -0.266 OA
ENDROOT
BRANCH   1   6
ATOM      4  N   UNL     1       3.069  -2.129  -4.051  0.00  0.00    -0.280 N 
ATOM      5  C   UNL     1       2.202  -2.335  -5.099  0.00  0.00    +0.127 A 
ATOM      6  C   UNL     1       1.177  -3.248  -4.956  0.00  0.00    +0.140 A 
ATOM      7  C   UNL     1       1.051  -3.943  -3.738  0.00  0.00    +0.277 A 
ATOM      8  O   UNL     1       0.155  -4.756  -3.585  0.00  0.00    -0.266 OA
ATOM      9  N   UNL     1       1.927  -3.704  -2.743  0.00  0.00    -0.273 N 
ATOM     10  H   UNL     1       1.841  -4.182  -1.903  0.00  0.00    +0.173 HD
ATOM     11  C   UNL     1       2.923  -2.814  -2.902  0.00  0.00    +0.331 A 
ATOM     12  O   UNL     1       3.703  -2.622  -1.989  0.00  0.00    -0.246 OA
BRANCH   5  13
ATOM     13  N   UNL     1       2.354  -1.639  -6.274  0.00  0.00    -0.343 N 
ATOM     14  H   UNL     1       3.031  -0.948  -6.345  0.00  0.00    +0.144 HD
ATOM     15  H   UNL     1       1.784  -1.839  -7.034  0.00  0.00    +0.144 HD
ENDBRANCH   5  13
BRANCH   4  16
ATOM     16  C   UNL     1       4.161  -1.163  -4.189  0.00  0.00    +0.128 C 
BRANCH  16  17
ATOM     17  C   UNL     1       5.398  -1.868  -4.749  0.00  0.00    +0.021 C 
BRANCH  17  19
ATOM     18  C   UNL     1       7.776  -1.563  -5.453  0.00  0.00    +0.004 C 
ATOM     19  C   UNL     1       6.539  -0.859  -4.893  0.00  0.00    -0.002 C 
ENDBRANCH  17  19
ENDBRANCH  16  17
ENDBRANCH   4  16
ENDBRANCH   1   6
BRANCH   2  20
ATOM     20  C   UNL     1      -1.949  -3.305  -6.999  0.00  0.00    +0.190 A 
ATOM     21  C   UNL     1      -3.265  -2.898  -7.030  0.00  0.00    +0.055 A 
ATOM     22  C   UNL     1      -3.764  -3.241  -8.291  0.00  0.00    +0.050 A 
ATOM     23  C   UNL     1      -2.746  -3.840  -8.976  0.00  0.00    +0.136 A 
ATOM     24  O   UNL     1      -1.656  -3.867  -8.191  0.00  0.00    -0.450 OA
BRANCH  23  25
ATOM     25  C   UNL     1      -2.827  -4.363 -10.355  0.00  0.00    +0.017 A 
ATOM     26  C   UNL     1      -4.020  -4.263 -11.074  0.00  0.00    +0.013 A 
ATOM     27  C   UNL     1      -4.089  -4.754 -12.361  0.00  0.00    +0.021 A 
ATOM     28  C   UNL     1      -2.979  -5.346 -12.940  0.00  0.00    +0.041 A 
ATOM     29  C   UNL     1      -1.793  -5.449 -12.232  0.00  0.00    +0.021 A 
ATOM     30  C   UNL     1      -1.709  -4.956 -10.947  0.00  0.00    +0.013 A 
ATOM     31 CL   UNL     1      -3.074  -5.962 -14.560  0.00  0.00    -0.084 Cl
ENDBRANCH  23  25
ENDBRANCH   2  20
BRANCH   1  32
ATOM     32  C   UNL     1       0.743  -4.084  -7.261  0.00  0.00    +0.111 C 
ATOM     33  C   UNL     1       0.479  -5.590  -7.233  0.00  0.00    +0.025 C 
ENDBRANCH   1  32
TORSDOF 8
