REMARK  Name = ZINC39604053
REMARK  10 active torsions:
REMARK  status: ('A' for Active; 'I' for Inactive)
REMARK    1  A    between atoms: C_1  and  C_2
REMARK    2  A    between atoms: C_2  and  O_3
REMARK    3  A    between atoms: O_3  and  C_4
REMARK    4  A    between atoms: C_4  and  C_6
REMARK    5  A    between atoms: C_6  and  C_7
REMARK    6  A    between atoms: C_7  and  N_8
REMARK    7  A    between atoms: C_9  and  C_11
REMARK    8  A    between atoms: C_22  and  C_24
REMARK    9  A    between atoms: C_25  and  C_37
REMARK   10  A    between atoms: C_28  and  C_29
REMARK                            x       y       z     vdW  Elec       q    Type
REMARK                         _______ _______ _______ _____ _____    ______ ____
ROOT
ATOM      1  C   UNL     1       2.631  -5.348  -4.874  0.00  0.00    +0.100 C 
ATOM      2  C   UNL     1       1.881  -5.318  -6.224  0.00  0.00    +0.121 C 
ATOM      3  N   UNL     1       2.094  -6.666  -6.801  0.00  0.00    -0.296 N 
ATOM      4  C   UNL     1       1.993  -7.584  -5.642  0.00  0.00    +0.115 C 
ATOM      5  C   UNL     1       2.702  -6.837  -4.495  0.00  0.00    -0.004 C 
ATOM      6  C   UNL     1       4.156  -7.287  -4.391  0.00  0.00    -0.010 C 
ATOM      7  C   UNL     1       4.201  -8.756  -3.958  0.00  0.00    -0.082 C 
ATOM      8  N   UNL     1       3.528  -8.906  -2.663  0.00  0.00    +0.379 N 
ATOM      9  C   UNL     1       2.107  -8.559  -2.793  0.00  0.00    -0.082 C 
ATOM     10  C   UNL     1       1.974  -7.083  -3.177  0.00  0.00    -0.010 C 
ATOM     11  C   UNL     1       2.328  -6.985  -8.090  0.00  0.00    +0.252 C 
ATOM     12  O   UNL     1       2.483  -8.148  -8.410  0.00  0.00    -0.270 OA
ATOM     13  H   UNL     1       3.612  -9.862  -2.351  0.00  0.00    -0.086 HD
ATOM     14  H   UNL     1       3.962  -8.295  -1.987  0.00  0.00    -0.086 HD
ENDROOT
BRANCH  11  15
ATOM     15  C   UNL     1       2.395  -5.926  -9.111  0.00  0.00    +0.106 A 
ATOM     16  C   UNL     1       3.510  -5.248  -9.507  0.00  0.00    +0.147 A 
ATOM     17  O   UNL     1       3.154  -4.371 -10.450  0.00  0.00    -0.359 OA
ATOM     18  N   UNL     1       1.764  -4.470 -10.685  0.00  0.00    -0.077 NA
ATOM     19  C   UNL     1       1.274  -5.399  -9.903  0.00  0.00    +0.130 A 
ATOM     20  C   UNL     1       4.904  -5.452  -8.973  0.00  0.00    +0.090 C 
BRANCH  19  21
ATOM     21  C   UNL     1      -0.142  -5.832  -9.828  0.00  0.00    +0.058 A 
ATOM     22  C   UNL     1      -0.466  -7.187  -9.921  0.00  0.00    +0.134 A 
ATOM     23  C   UNL     1      -1.788  -7.585  -9.849  0.00  0.00    +0.039 A 
ATOM     24  C   UNL     1      -2.788  -6.644  -9.686  0.00  0.00    +0.004 A 
ATOM     25  C   UNL     1      -2.473  -5.300  -9.594  0.00  0.00    +0.021 A 
ATOM     26  C   UNL     1      -1.155  -4.890  -9.659  0.00  0.00    +0.053 A 
ATOM     27 CL   UNL     1      -0.763  -3.203  -9.535  0.00  0.00    -0.083 Cl
ATOM     28  F   UNL     1       0.511  -8.108 -10.080  0.00  0.00    -0.205 F 
ENDBRANCH  19  21
ENDBRANCH  11  15
BRANCH   1  30
ATOM     29  N   UNL     1       2.521  -3.985  -2.813  0.00  0.00    -0.314 N 
ATOM     30  C   UNL     1       1.865  -4.577  -3.830  0.00  0.00    +0.218 C 
ATOM     31  O   UNL     1       0.657  -4.490  -3.906  0.00  0.00    -0.275 OA
ATOM     32  H   UNL     1       3.486  -4.055  -2.752  0.00  0.00    +0.149 HD
BRANCH  29  33
ATOM     33  C   UNL     1       1.776  -3.235  -1.798  0.00  0.00    +0.115 C 
BRANCH  33  34
ATOM     34  C   UNL     1       2.751  -2.669  -0.764  0.00  0.00    +0.139 C 
BRANCH  34  35
ATOM     35  C   UNL     1       1.985  -1.897   0.279  0.00  0.00    +0.309 C 
ATOM     36  O   UNL     1       0.782  -1.810   0.204  0.00  0.00    -0.251 OA
BRANCH  35  37
ATOM     37  O   UNL     1       2.638  -1.308   1.292  0.00  0.00    -0.465 OA
BRANCH  37  39
ATOM     38  C   UNL     1       2.761   0.006   3.317  0.00  0.00    +0.048 C 
ATOM     39  C   UNL     1       1.848  -0.593   2.245  0.00  0.00    +0.229 C 
ENDBRANCH  37  39
ENDBRANCH  35  37
ENDBRANCH  34  35
ENDBRANCH  33  34
ENDBRANCH  29  33
ENDBRANCH   1  30
TORSDOF 8
