REMARK  Name = ZINC20805565
REMARK  7 active torsions:
REMARK  status: ('A' for Active; 'I' for Inactive)
REMARK    1  A    between atoms: C_4  and  N_7
REMARK    2  A    between atoms: C_8  and  C_10
REMARK    3  A    between atoms: C_10  and  S_11
REMARK    4  A    between atoms: S_11  and  C_12
REMARK    5  A    between atoms: N_16  and  N_17
REMARK    6  A    between atoms: N_18  and  N_19
REMARK    7  A    between atoms: C_20  and  C_21
REMARK                            x       y       z     vdW  Elec       q    Type
REMARK                         _______ _______ _______ _____ _____    ______ ____
ROOT
ATOM      1  C   UNL     1      -2.292  -1.642  -0.054  0.00  0.00    +0.210 A 
ATOM      2  N   UNL     1      -2.727  -0.405  -0.046  0.00  0.00    -0.119 NA
ATOM      3  N   UNL     1      -1.613   0.445  -0.013  0.00  0.00    -0.109 NA
ATOM      4  C   UNL     1      -0.535  -0.301  -0.010  0.00  0.00    +0.254 A 
ATOM      5  N   UNL     1      -0.927  -1.611  -0.033  0.00  0.00    -0.211 N 
ATOM      6  N   UNL     1       0.774   0.157   0.017  0.00  0.00    -0.204 N 
ATOM      7  H   UNL     1       1.608  -0.560   0.022  0.00  0.00    +0.177 HD
ENDROOT
BRANCH   5   8
ATOM      8  N   UNL     1      -0.099  -2.697  -0.033  0.00  0.00    -0.294 N 
ATOM      9  H   UNL     1       0.992  -2.558  -0.014  0.00  0.00    +0.163 HD
ATOM     10  H   UNL     1      -0.523  -3.712  -0.052  0.00  0.00    +0.163 HD
ENDBRANCH   5   8
BRANCH   6  11
ATOM     11  N   UNL     1       1.034   1.534   0.038  0.00  0.00    -0.187 NA
ATOM     12  C   UNL     1       2.261   1.964   0.064  0.00  0.00    +0.139 C 
BRANCH  12  13
ATOM     13  C   UNL     1       2.533   3.408   0.086  0.00  0.00    +0.002 A 
ATOM     14  C   UNL     1       3.836   3.886   0.001  0.00  0.00    +0.010 A 
ATOM     15  C   UNL     1       4.089   5.251   0.016  0.00  0.00    +0.001 A 
ATOM     16  C   UNL     1       3.088   6.166   0.126  0.00  0.00    +0.008 A 
ATOM     17  C   UNL     1       1.748   5.755   0.222  0.00  0.00    -0.017 A 
ATOM     18  C   UNL     1       1.441   4.372   0.204  0.00  0.00    -0.009 A 
ATOM     19  C   UNL     1       0.107   3.958   0.298  0.00  0.00    +0.009 A 
ATOM     20  C   UNL     1      -0.882   4.891   0.407  0.00  0.00    +0.001 A 
ATOM     21  C   UNL     1      -0.583   6.251   0.426  0.00  0.00    +0.001 A 
ATOM     22  C   UNL     1       0.703   6.688   0.335  0.00  0.00    +0.008 A 
ENDBRANCH  12  13
ENDBRANCH   6  11
BRANCH   1  23
ATOM     23  S   UNL     1      -3.295  -3.091  -0.089  0.00  0.00    -0.075 S 
BRANCH  23  24
ATOM     24  C   UNL     1      -4.939  -2.336  -0.105  0.00  0.00    +0.173 C 
BRANCH  24  26
ATOM     25  N   UNL     1      -7.295  -3.087  -0.152  0.00  0.00    -0.285 N 
ATOM     26  C   UNL     1      -5.989  -3.417  -0.136  0.00  0.00    +0.227 C 
ATOM     27  O   UNL     1      -5.657  -4.583  -0.146  0.00  0.00    -0.275 OA
ATOM     28  H   UNL     1      -7.598  -2.033  -0.066  0.00  0.00    +0.155 HD
BRANCH  25  32
ATOM     29  C   UNL     1     -10.189  -6.061  -0.527  0.00  0.00    +0.000 A 
ATOM     30  C   UNL     1      -9.030  -6.312   0.184  0.00  0.00    +0.002 A 
ATOM     31  C   UNL     1      -8.068  -5.328   0.310  0.00  0.00    +0.023 A 
ATOM     32  C   UNL     1      -8.267  -4.086  -0.278  0.00  0.00    +0.033 A 
ATOM     33  C   UNL     1      -9.435  -3.835  -0.986  0.00  0.00    +0.023 A 
ATOM     34  C   UNL     1     -10.390  -4.825  -1.113  0.00  0.00    +0.002 A 
ENDBRANCH  25  32
ENDBRANCH  24  26
ENDBRANCH  23  24
ENDBRANCH   1  23
TORSDOF 7
