REMARK  Name = ZINC27596188
REMARK  12 active torsions:
REMARK  status: ('A' for Active; 'I' for Inactive)
REMARK    1  A    between atoms: C_1  and  C_2
REMARK    2  A    between atoms: C_2  and  C_3
REMARK    3  A    between atoms: C_6  and  C_9
REMARK    4  A    between atoms: C_9  and  C_11
REMARK    5  A    between atoms: C_9  and  N_32
REMARK    6  A    between atoms: C_11  and  N_12
REMARK    7  A    between atoms: C_13  and  C_15
REMARK    8  A    between atoms: C_15  and  S_16
REMARK    9  A    between atoms: S_16  and  C_17
REMARK   10  A    between atoms: C_17  and  C_18
REMARK   11  A    between atoms: N_32  and  C_33
REMARK   12  A    between atoms: N_32  and  C_34
REMARK                            x       y       z     vdW  Elec       q    Type
REMARK                         _______ _______ _______ _____ _____    ______ ____
ROOT
ATOM      1  N   UNL     1       3.266  -3.747   6.205  0.00  0.00    -0.316 N 
ATOM      2  C   UNL     1       3.276  -5.034   6.607  0.00  0.00    +0.223 C 
ATOM      3  O   UNL     1       2.687  -5.875   5.963  0.00  0.00    -0.275 OA
ATOM      4  H   UNL     1       3.737  -3.074   6.720  0.00  0.00    +0.149 HD
ENDROOT
BRANCH   1   5
ATOM      5  C   UNL     1       2.543  -3.366   4.989  0.00  0.00    +0.093 C 
BRANCH   5   6
ATOM      6  C   UNL     1       2.798  -1.888   4.687  0.00  0.00    -0.021 C 
BRANCH   6  10
ATOM      7  C   UNL     1       6.931  -1.317   3.769  0.00  0.00    -0.048 A 
ATOM      8  C   UNL     1       6.454  -1.011   5.030  0.00  0.00    +0.004 A 
ATOM      9  C   UNL     1       5.117  -1.195   5.327  0.00  0.00    +0.002 A 
ATOM     10  C   UNL     1       4.256  -1.685   4.363  0.00  0.00    -0.059 A 
ATOM     11  C   UNL     1       4.732  -1.990   3.101  0.00  0.00    +0.002 A 
ATOM     12  C   UNL     1       6.069  -1.802   2.803  0.00  0.00    +0.004 A 
BRANCH   7  14
ATOM     13  C   UNL     1       8.601   0.302   2.909  0.00  0.00    +0.009 C 
ATOM     14  C   UNL     1       8.389  -1.115   3.445  0.00  0.00    +0.032 C 
ENDBRANCH   7  14
ENDBRANCH   6  10
BRANCH   6  15
ATOM     15  N   UNL     1       1.980  -1.474   3.539  0.00  0.00    +0.382 N 
ATOM     16  C   UNL     1       0.558  -1.655   3.861  0.00  0.00    -0.096 C 
ATOM     17  C   UNL     1       2.238  -0.060   3.238  0.00  0.00    -0.096 C 
ATOM     18  H   UNL     1       2.217  -2.038   2.736  0.00  0.00    -0.082 HD
ENDBRANCH   6  15
ENDBRANCH   5   6
ENDBRANCH   1   5
BRANCH   2  19
ATOM     19  C   UNL     1       4.019  -5.426   7.858  0.00  0.00    +0.165 C 
BRANCH  19  20
ATOM     20  S   UNL     1       3.845  -7.211   8.130  0.00  0.00    -0.144 S 
BRANCH  20  21
ATOM     21  C   UNL     1       4.784  -7.517   9.652  0.00  0.00    +0.143 C 
BRANCH  21  22
ATOM     22  C   UNL     1       4.720  -8.983   9.995  0.00  0.00    +0.121 A 
ATOM     23  N   UNL     1       5.354  -9.434  11.108  0.00  0.00    -0.310 N 
ATOM     24  H   UNL     1       5.839  -8.807  11.666  0.00  0.00    +0.170 HD
ATOM     25  C   UNL     1       5.322 -10.736  11.451  0.00  0.00    +0.260 A 
ATOM     26  O   UNL     1       5.896 -11.128  12.453  0.00  0.00    -0.267 OA
ATOM     27  C   UNL     1       4.602 -11.652  10.618  0.00  0.00    +0.075 A 
ATOM     28  C   UNL     1       4.434 -13.102  10.798  0.00  0.00    -0.023 A 
ATOM     29  C   UNL     1       3.707 -13.749   9.871  0.00  0.00    -0.004 A 
ATOM     30  S   UNL     1       3.204 -12.489   8.721  0.00  0.00    -0.073 S 
ATOM     31  C   UNL     1       3.980 -11.095   9.493  0.00  0.00    +0.116 A 
ATOM     32  N   UNL     1       4.051  -9.794   9.220  0.00  0.00    -0.226 NA
ATOM     33  C   UNL     1       3.608 -15.224  10.154  0.00  0.00    +0.043 C 
ATOM     34  C   UNL     1       4.740 -15.501  11.168  0.00  0.00    +0.010 C 
ATOM     35  C   UNL     1       4.904 -14.123  11.838  0.00  0.00    +0.037 C 
ENDBRANCH  21  22
ENDBRANCH  20  21
ENDBRANCH  19  20
ENDBRANCH   2  19
TORSDOF 9
