REMARK  Name = ZINC00716011
REMARK  9 active torsions:
REMARK  status: ('A' for Active; 'I' for Inactive)
REMARK    1  A    between atoms: C_1  and  O_2
REMARK    2  A    between atoms: O_2  and  C_3
REMARK    3  A    between atoms: C_5  and  C_20
REMARK    4  A    between atoms: C_8  and  O_9
REMARK    5  A    between atoms: O_9  and  C_10
REMARK    6  A    between atoms: C_10  and  C_11
REMARK    7  A    between atoms: C_14  and  N_17
REMARK    8  A    between atoms: C_22  and  C_33
REMARK    9  A    between atoms: C_23  and  N_32
REMARK                            x       y       z     vdW  Elec       q    Type
REMARK                         _______ _______ _______ _____ _____    ______ ____
ROOT
ATOM      1  C   UNL     1       2.399   0.024  -0.021  0.00  0.00    +0.162 A 
ATOM      2  C   UNL     1       1.207  -0.682  -0.014  0.00  0.00    +0.054 A 
ATOM      3  C   UNL     1       0.002  -0.004   0.002  0.00  0.00    -0.031 A 
ATOM      4  C   UNL     1      -0.017   1.378   0.010  0.00  0.00    +0.008 A 
ATOM      5  C   UNL     1       1.169   2.089   0.002  0.00  0.00    +0.050 A 
ATOM      6  C   UNL     1       2.380   1.415  -0.013  0.00  0.00    +0.162 A 
ENDROOT
BRANCH   3   7
ATOM      7  C   UNL     1      -1.294  -0.774   0.010  0.00  0.00    +0.101 C 
ATOM      8  C   UNL     1      -2.096  -0.412  -1.208  0.00  0.00    +0.098 C 
ATOM      9  C   UNL     1      -3.136   0.451  -1.113  0.00  0.00    +0.198 C 
ATOM     10  O   UNL     1      -3.476   1.010   0.059  0.00  0.00    -0.445 OA
ATOM     11  C   UNL     1      -3.100   0.428   1.214  0.00  0.00    +0.115 C 
ATOM     12  C   UNL     1      -2.069  -0.435   1.260  0.00  0.00    +0.046 C 
ATOM     13  C   UNL     1      -1.682  -1.048   2.467  0.00  0.00    +0.163 C 
ATOM     14  O   UNL     1      -0.735  -1.809   2.473  0.00  0.00    -0.292 OA
ATOM     15  C   UNL     1      -2.420  -0.779   3.750  0.00  0.00    +0.080 C 
ATOM     16  C   UNL     1      -3.872  -0.419   3.420  0.00  0.00    +0.016 C 
ATOM     17  C   UNL     1      -3.870   0.777   2.466  0.00  0.00    +0.075 C 
BRANCH   9  18
ATOM     18  N   UNL     1      -3.858   0.760  -2.238  0.00  0.00    -0.328 N 
ATOM     19  H   UNL     1      -3.622   0.362  -3.091  0.00  0.00    +0.145 HD
ATOM     20  H   UNL     1      -4.605   1.377  -2.182  0.00  0.00    +0.145 HD
ENDBRANCH   9  18
BRANCH   8  21
ATOM     21  C   UNL     1      -1.759  -0.983  -2.478  0.00  0.00    +0.101 C 
ATOM     22  N   UNL     1      -1.492  -1.436  -3.485  0.00  0.00    -0.191 NA
ENDBRANCH   8  21
ENDBRANCH   3   7
BRANCH   1  24
ATOM     23  C   UNL     1       3.528  -2.069  -0.045  0.00  0.00    +0.277 C 
ATOM     24  O   UNL     1       3.585  -0.641  -0.037  0.00  0.00    -0.491 OA
ENDBRANCH   1  24
BRANCH   6  25
ATOM     25  O   UNL     1       3.548   2.113  -0.020  0.00  0.00    -0.484 OA
BRANCH  25  26
ATOM     26  C   UNL     1       3.452   3.539  -0.011  0.00  0.00    +0.264 C 
BRANCH  26  27
ATOM     27  C   UNL     1       4.835   4.135  -0.020  0.00  0.00    -0.010 A 
ATOM     28  C   UNL     1       5.479   4.407   1.172  0.00  0.00    +0.009 A 
ATOM     29  C   UNL     1       6.750   4.951   1.163  0.00  0.00    +0.033 A 
ATOM     30  C   UNL     1       7.374   5.231  -0.038  0.00  0.00    +0.126 A 
ATOM     31  C   UNL     1       6.728   4.963  -1.231  0.00  0.00    +0.033 A 
ATOM     32  C   UNL     1       5.459   4.416  -1.222  0.00  0.00    +0.009 A 
BRANCH  30  33
ATOM     33  N   UNL     1       8.733   5.817  -0.047  0.00  0.00    +0.056 N 
ATOM     34  O   UNL     1       9.283   6.063  -1.106  0.00  0.00    -0.126 OA
ATOM     35  O   UNL     1       9.302   6.053   1.004  0.00  0.00    -0.126 OA
ENDBRANCH  30  33
ENDBRANCH  26  27
ENDBRANCH  25  26
ENDBRANCH   6  25
TORSDOF 8
