REMARK  Name = ZINC20522052
REMARK  5 active torsions:
REMARK  status: ('A' for Active; 'I' for Inactive)
REMARK    1  A    between atoms: C_4  and  C_7
REMARK    2  A    between atoms: C_7  and  C_8
REMARK    3  A    between atoms: C_8  and  C_9
REMARK    4  A    between atoms: C_9  and  N_10
REMARK    5  A    between atoms: N_19  and  C_23
REMARK                            x       y       z     vdW  Elec       q    Type
REMARK                         _______ _______ _______ _____ _____    ______ ____
ROOT
ATOM      1  N   UNL     1       2.006   1.320  -1.627  0.00  0.00    -0.282 NA
ATOM      2  C   UNL     1       0.859   2.181  -1.304  0.00  0.00    +0.130 C 
ATOM      3  C   UNL     1      -0.206   1.364  -0.620  0.00  0.00    +0.069 A 
ATOM      4  C   UNL     1      -1.250   2.027   0.048  0.00  0.00    +0.260 A 
ATOM      5  O   UNL     1      -1.282   3.246   0.077  0.00  0.00    -0.267 OA
ATOM      6  N   UNL     1      -2.210   1.311   0.665  0.00  0.00    -0.274 N 
ATOM      7  H   UNL     1      -3.024   1.826   1.197  0.00  0.00    +0.173 HD
ATOM      8  C   UNL     1      -2.182  -0.033   0.634  0.00  0.00    +0.335 A 
ATOM      9  O   UNL     1      -3.061  -0.664   1.189  0.00  0.00    -0.246 OA
ATOM     10  N   UNL     1      -1.196  -0.690  -0.001  0.00  0.00    -0.250 N 
ATOM     11  C   UNL     1      -0.186   0.003  -0.637  0.00  0.00    +0.118 A 
ATOM     12  N   UNL     1       0.801  -0.711  -1.262  0.00  0.00    -0.317 N 
ATOM     13  C   UNL     1       1.527   0.080  -2.260  0.00  0.00    +0.190 C 
ATOM     14  H   UNL     1       1.076  -1.762  -1.087  0.00  0.00    +0.149 HD
ENDROOT
BRANCH  10  15
ATOM     15  C   UNL     1      -1.193  -2.092  -0.017  0.00  0.00    +0.053 A 
ATOM     16  C   UNL     1      -1.890  -2.777  -1.003  0.00  0.00    +0.029 A 
ATOM     17  C   UNL     1      -1.883  -4.158  -1.019  0.00  0.00    +0.040 A 
ATOM     18  C   UNL     1      -1.189  -4.860  -0.047  0.00  0.00    +0.124 A 
ATOM     19  C   UNL     1      -0.498  -4.178   0.940  0.00  0.00    +0.040 A 
ATOM     20  C   UNL     1      -0.499  -2.797   0.957  0.00  0.00    +0.029 A 
ATOM     21  F   UNL     1      -1.187  -6.210  -0.062  0.00  0.00    -0.205 F 
ENDBRANCH  10  15
BRANCH   1  22
ATOM     22  C   UNL     1       2.962   2.019  -2.496  0.00  0.00    +0.086 C 
BRANCH  22  23
ATOM     23  C   UNL     1       2.243   2.507  -3.755  0.00  0.00    +0.020 C 
BRANCH  23  24
ATOM     24  C   UNL     1       3.238   3.236  -4.661  0.00  0.00    +0.036 C 
BRANCH  24  28
ATOM     25  C   UNL     1       1.231   4.599  -8.177  0.00  0.00    +0.000 A 
ATOM     26  C   UNL     1       1.298   5.411  -7.061  0.00  0.00    +0.000 A 
ATOM     27  C   UNL     1       1.947   4.970  -5.923  0.00  0.00    +0.003 A 
ATOM     28  C   UNL     1       2.530   3.717  -5.901  0.00  0.00    -0.047 A 
ATOM     29  C   UNL     1       2.468   2.907  -7.019  0.00  0.00    +0.003 A 
ATOM     30  C   UNL     1       1.815   3.346  -8.156  0.00  0.00    +0.000 A 
ENDBRANCH  24  28
ENDBRANCH  23  24
ENDBRANCH  22  23
ENDBRANCH   1  22
TORSDOF 5
