REMARK  Name = ZINC64074205
REMARK  11 active torsions:
REMARK  status: ('A' for Active; 'I' for Inactive)
REMARK    1  A    between atoms: C_1  and  C_2
REMARK    2  A    between atoms: C_10  and  C_12
REMARK    3  A    between atoms: C_12  and  N_13
REMARK    4  A    between atoms: N_13  and  C_14
REMARK    5  A    between atoms: C_15  and  C_17
REMARK    6  A    between atoms: C_17  and  C_18
REMARK    7  A    between atoms: N_25  and  C_26
REMARK    8  A    between atoms: C_26  and  C_27
REMARK    9  A    between atoms: C_27  and  C_28
REMARK   10  A    between atoms: C_28  and  C_29
REMARK   11  A    between atoms: C_28  and  C_30
REMARK                            x       y       z     vdW  Elec       q    Type
REMARK                         _______ _______ _______ _____ _____    ______ ____
ROOT
ATOM      1  N   UNL     1       1.249  -1.880   3.194  0.00  0.00    -0.302 N 
ATOM      2  C   UNL     1       1.881  -3.193   3.051  0.00  0.00    +0.132 C 
ATOM      3  C   UNL     1       0.785  -1.483   4.396  0.00  0.00    +0.214 C 
ATOM      4  O   UNL     1       0.261  -0.395   4.515  0.00  0.00    -0.276 OA
ENDROOT
BRANCH   1   5
ATOM      5  C   UNL     1       1.121  -0.997   2.032  0.00  0.00    +0.136 C 
BRANCH   5  15
ATOM      6  C   UNL     1      -0.277   1.043  -0.063  0.00  0.00    +0.042 C 
ATOM      7  C   UNL     1      -0.300  -0.460   0.054  0.00  0.00    -0.040 C 
ATOM      8  C   UNL     1      -0.403  -1.352  -0.957  0.00  0.00    -0.001 A 
ATOM      9  C   UNL     1      -0.520  -1.198  -2.412  0.00  0.00    +0.010 A 
ATOM     10  C   UNL     1      -0.608  -2.305  -3.184  0.00  0.00    +0.001 A 
ATOM     11  C   UNL     1      -0.591  -3.592  -2.631  0.00  0.00    +0.002 A 
ATOM     12  C   UNL     1      -0.485  -3.815  -1.304  0.00  0.00    +0.026 A 
ATOM     13  C   UNL     1      -0.386  -2.723  -0.398  0.00  0.00    +0.043 A 
ATOM     14  N   UNL     1      -0.277  -2.679   0.908  0.00  0.00    -0.376 N 
ATOM     15  C   UNL     1      -0.206  -1.274   1.324  0.00  0.00    +0.123 C 
ATOM     16  H   UNL     1      -0.245  -3.447   1.499  0.00  0.00    +0.160 HD
ENDBRANCH   5  15
ENDBRANCH   1   5
BRANCH   3  17
ATOM     17  C   UNL     1       0.916  -2.391   5.592  0.00  0.00    +0.090 C 
BRANCH  17  18
ATOM     18  C   UNL     1       0.234  -1.745   6.800  0.00  0.00    +0.028 C 
ATOM     19  C   UNL     1       0.835  -0.390   7.045  0.00  0.00    +0.200 C 
ATOM     20  O   UNL     1       2.037  -0.261   6.950  0.00  0.00    -0.278 OA
ATOM     21  N   UNL     1       0.098   0.680   7.365  0.00  0.00    -0.318 N 
ATOM     22  C   UNL     1      -1.357   0.628   7.475  0.00  0.00    +0.085 C 
ATOM     23  C   UNL     1      -1.818  -0.824   7.612  0.00  0.00    -0.059 C 
ATOM     24  N   UNL     1      -1.204  -1.616   6.535  0.00  0.00    +0.389 N 
ATOM     25  H   UNL     1       0.548   1.523   7.530  0.00  0.00    +0.149 HD
ATOM     26  H   UNL     1      -1.345  -1.152   5.650  0.00  0.00    -0.081 HD
BRANCH  24  27
ATOM     27  C   UNL     1      -1.819  -2.950   6.498  0.00  0.00    -0.077 C 
BRANCH  27  28
ATOM     28  C   UNL     1      -3.283  -2.825   6.072  0.00  0.00    -0.016 C 
BRANCH  28  29
ATOM     29  C   UNL     1      -3.924  -4.214   6.033  0.00  0.00    -0.019 C 
ATOM     30  C   UNL     1      -3.962  -4.798   7.446  0.00  0.00    +0.007 C 
ATOM     31  C   UNL     1      -5.349  -4.103   5.488  0.00  0.00    +0.007 C 
ENDBRANCH  28  29
ENDBRANCH  27  28
ENDBRANCH  24  27
ENDBRANCH  17  18
ENDBRANCH   3  17
TORSDOF 7
