REMARK  Name = ZINC39623851
REMARK  8 active torsions:
REMARK  status: ('A' for Active; 'I' for Inactive)
REMARK    1  A    between atoms: C_1  and  C_2
REMARK    2  A    between atoms: C_2  and  C_3
REMARK    3  A    between atoms: C_3  and  C_4
REMARK    4  A    between atoms: C_4  and  N_5
REMARK    5  A    between atoms: C_6  and  C_8
REMARK    6  A    between atoms: C_19  and  C_21
REMARK    7  A    between atoms: C_26  and  O_27
REMARK    8  A    between atoms: O_27  and  C_28
REMARK                            x       y       z     vdW  Elec       q    Type
REMARK                         _______ _______ _______ _____ _____    ______ ____
ROOT
ATOM      1  C   UNL     1       2.271  -4.302  -3.936  0.00  0.00    +0.100 C 
ATOM      2  C   UNL     1       3.711  -3.743  -3.996  0.00  0.00    +0.121 C 
ATOM      3  N   UNL     1       4.550  -4.806  -3.395  0.00  0.00    -0.296 N 
ATOM      4  C   UNL     1       3.966  -6.069  -3.904  0.00  0.00    +0.115 C 
ATOM      5  C   UNL     1       2.443  -5.829  -3.880  0.00  0.00    -0.004 C 
ATOM      6  C   UNL     1       1.786  -6.480  -5.093  0.00  0.00    -0.010 C 
ATOM      7  C   UNL     1       1.919  -8.002  -4.985  0.00  0.00    -0.082 C 
ATOM      8  N   UNL     1       1.276  -8.464  -3.749  0.00  0.00    +0.379 N 
ATOM      9  C   UNL     1       1.973  -7.906  -2.583  0.00  0.00    -0.082 C 
ATOM     10  C   UNL     1       1.843  -6.381  -2.590  0.00  0.00    -0.010 C 
ATOM     11  C   UNL     1       5.607  -4.657  -2.572  0.00  0.00    +0.250 C 
ATOM     12  O   UNL     1       5.910  -3.552  -2.164  0.00  0.00    -0.270 OA
ATOM     13  H   UNL     1       0.313  -8.163  -3.739  0.00  0.00    -0.086 HD
ATOM     14  H   UNL     1       1.311  -9.472  -3.710  0.00  0.00    -0.086 HD
ENDROOT
BRANCH  11  15
ATOM     15  C   UNL     1       6.397  -5.835  -2.166  0.00  0.00    +0.078 A 
ATOM     16  C   UNL     1       6.598  -6.889  -3.060  0.00  0.00    +0.017 A 
ATOM     17  C   UNL     1       7.337  -7.986  -2.675  0.00  0.00    +0.001 A 
ATOM     18  C   UNL     1       7.883  -8.049  -1.403  0.00  0.00    +0.004 A 
ATOM     19  C   UNL     1       7.693  -7.015  -0.509  0.00  0.00    +0.046 A 
ATOM     20  C   UNL     1       6.956  -5.900  -0.882  0.00  0.00    +0.132 A 
BRANCH  20  21
ATOM     21  O   UNL     1       6.772  -4.881  -0.006  0.00  0.00    -0.494 OA
ATOM     22  C   UNL     1       7.371  -5.018   1.284  0.00  0.00    +0.277 C 
ENDBRANCH  20  21
ENDBRANCH  11  15
BRANCH   1  24
ATOM     23  N   UNL     1       0.232  -3.626  -2.711  0.00  0.00    -0.315 N 
ATOM     24  C   UNL     1       1.567  -3.807  -2.699  0.00  0.00    +0.218 C 
ATOM     25  O   UNL     1       2.202  -3.571  -1.693  0.00  0.00    -0.275 OA
ATOM     26  H   UNL     1      -0.276  -3.815  -3.515  0.00  0.00    +0.149 HD
BRANCH  23  27
ATOM     27  C   UNL     1      -0.453  -3.145  -1.508  0.00  0.00    +0.104 C 
BRANCH  27  28
ATOM     28  C   UNL     1      -1.953  -3.028  -1.788  0.00  0.00    +0.018 C 
BRANCH  28  30
ATOM     29  C   UNL     1      -4.168  -2.409  -0.811  0.00  0.00    +0.004 C 
ATOM     30  C   UNL     1      -2.668  -2.526  -0.532  0.00  0.00    -0.002 C 
ENDBRANCH  28  30
ENDBRANCH  27  28
ENDBRANCH  23  27
ENDBRANCH   1  24
TORSDOF 6
