REMARK  Name = ZINC57594942
REMARK  11 active torsions:
REMARK  status: ('A' for Active; 'I' for Inactive)
REMARK    1  A    between atoms: C_1  and  C_2
REMARK    2  A    between atoms: C_2  and  O_3
REMARK    3  A    between atoms: O_3  and  C_4
REMARK    4  A    between atoms: C_11  and  C_16
REMARK    5  A    between atoms: C_16  and  C_18
REMARK    6  A    between atoms: C_16  and  N_28
REMARK    7  A    between atoms: N_22  and  C_23
REMARK    8  A    between atoms: C_31  and  C_34
REMARK    9  A    between atoms: C_34  and  O_36
REMARK   10  A    between atoms: O_36  and  C_37
REMARK   11  A    between atoms: C_37  and  C_38
REMARK                            x       y       z     vdW  Elec       q    Type
REMARK                         _______ _______ _______ _____ _____    ______ ____
ROOT
ATOM      1  C   UNL     1       3.020  -6.310   4.966  0.00  0.00    +0.162 C 
ENDROOT
BRANCH   1   9
ATOM      2  C   UNL     1       0.802  -1.825   1.306  0.00  0.00    +0.121 A 
ATOM      3  C   UNL     1       0.256  -2.672   0.345  0.00  0.00    +0.047 A 
ATOM      4  C   UNL     1       0.356  -4.040   0.476  0.00  0.00    +0.030 A 
ATOM      5  C   UNL     1       1.008  -4.586   1.577  0.00  0.00    +0.049 A 
ATOM      6  C   UNL     1       1.562  -3.733   2.550  0.00  0.00    +0.002 A 
ATOM      7  C   UNL     1       1.458  -2.346   2.403  0.00  0.00    +0.055 A 
ATOM      8  C   UNL     1       2.246  -4.321   3.703  0.00  0.00    +0.021 A 
ATOM      9  C   UNL     1       2.322  -5.672   3.792  0.00  0.00    +0.042 A 
ATOM     10  C   UNL     1       1.750  -6.484   2.789  0.00  0.00    +0.254 A 
ATOM     11  O   UNL     1       1.830  -7.696   2.888  0.00  0.00    -0.268 OA
ATOM     12  N   UNL     1       1.120  -5.953   1.726  0.00  0.00    -0.322 N 
ATOM     13  H   UNL     1       0.739  -6.540   1.055  0.00  0.00    +0.169 HD
BRANCH   2  14
ATOM     14  O   UNL     1       0.693  -0.477   1.160  0.00  0.00    -0.492 OA
BRANCH  14  16
ATOM     15  C   UNL     1      -0.019   1.526   0.010  0.00  0.00    +0.048 C 
ATOM     16  C   UNL     1       0.002  -0.004   0.002  0.00  0.00    +0.225 C 
ENDBRANCH  14  16
ENDBRANCH   2  14
ENDBRANCH   1   9
BRANCH   1  17
ATOM     17  N   UNL     1       2.107  -7.254   5.624  0.00  0.00    -0.289 NA
ATOM     18  C   UNL     1       0.858  -6.590   6.019  0.00  0.00    +0.086 C 
ATOM     19  C   UNL     1      -0.122  -7.630   6.567  0.00  0.00    +0.030 C 
ATOM     20  C   UNL     1       0.508  -8.332   7.773  0.00  0.00    +0.100 C 
ATOM     21  C   UNL     1       1.831  -8.974   7.346  0.00  0.00    +0.030 C 
ATOM     22  C   UNL     1       2.754  -7.895   6.776  0.00  0.00    +0.086 C 
BRANCH  20  23
ATOM     23  C   UNL     1      -0.429  -9.398   8.281  0.00  0.00    +0.310 C 
ATOM     24  O   UNL     1      -1.491  -9.579   7.735  0.00  0.00    -0.251 OA
BRANCH  23  25
ATOM     25  O   UNL     1      -0.082 -10.147   9.339  0.00  0.00    -0.465 OA
BRANCH  25  26
ATOM     26  C   UNL     1      -1.018 -11.139   9.767  0.00  0.00    +0.229 C 
ATOM     27  C   UNL     1      -0.453 -11.886  10.976  0.00  0.00    +0.048 C 
ENDBRANCH  25  26
ENDBRANCH  23  25
ENDBRANCH  20  23
ENDBRANCH   1  17
BRANCH   1  28
ATOM     28  C   UNL     1       4.243  -7.046   4.484  0.00  0.00    +0.173 A 
ATOM     29  N   UNL     1       4.266  -8.192   3.847  0.00  0.00    -0.111 NA
ATOM     30  N   UNL     1       5.497  -8.489   3.608  0.00  0.00    -0.023 NA
ATOM     31  N   UNL     1       6.259  -7.563   4.076  0.00  0.00    -0.044 NA
ATOM     32  N   UNL     1       5.523  -6.653   4.619  0.00  0.00    -0.224 N 
BRANCH  32  33
ATOM     33  C   UNL     1       5.992  -5.424   5.264  0.00  0.00    +0.111 C 
ATOM     34  C   UNL     1       6.837  -4.597   4.273  0.00  0.00    +0.027 C 
ATOM     35  C   UNL     1       7.962  -3.989   5.148  0.00  0.00    +0.002 C 
ATOM     36  C   UNL     1       8.287  -5.139   6.133  0.00  0.00    +0.002 C 
ATOM     37  C   UNL     1       6.914  -5.769   6.447  0.00  0.00    +0.027 C 
ENDBRANCH  32  33
ENDBRANCH   1  28
TORSDOF 9
