REMARK  Name = ZINC12149206
REMARK  12 active torsions:
REMARK  status: ('A' for Active; 'I' for Inactive)
REMARK    1  A    between atoms: C_1  and  C_2
REMARK    2  A    between atoms: C_2  and  C_3
REMARK    3  A    between atoms: C_2  and  C_4
REMARK    4  A    between atoms: C_4  and  C_5
REMARK    5  A    between atoms: C_5  and  C_7
REMARK    6  A    between atoms: C_5  and  N_26
REMARK    7  A    between atoms: C_16  and  C_17
REMARK    8  A    between atoms: C_16  and  N_60
REMARK    9  A    between atoms: C_21  and  O_24
REMARK   10  A    between atoms: C_22  and  O_23
REMARK   11  A    between atoms: O_24  and  C_25
REMARK   12  A    between atoms: C_27  and  C_29
REMARK                            x       y       z     vdW  Elec       q    Type
REMARK                         _______ _______ _______ _____ _____    ______ ____
ROOT
ATOM      1  C   UNL     1       0.765  -0.492  -1.222  0.00  0.00    +0.154 A 
ATOM      2  N   UNL     1       0.251  -0.569  -2.421  0.00  0.00    -0.132 NA
ATOM      3  N   UNL     1       1.136  -1.012  -3.245  0.00  0.00    -0.134 NA
ATOM      4  C   UNL     1       2.250  -1.231  -2.610  0.00  0.00    +0.132 A 
ATOM      5  N   UNL     1       2.043  -0.915  -1.308  0.00  0.00    -0.315 N 
ATOM      6  C   UNL     1       3.022  -1.037  -0.227  0.00  0.00    +0.106 C 
ATOM      7  C   UNL     1       4.432  -0.890  -0.806  0.00  0.00    -0.056 C 
ATOM      8  C   UNL     1       4.120  -2.808  -2.271  0.00  0.00    -0.071 C 
ATOM      9  C   UNL     1       3.556  -1.721  -3.181  0.00  0.00    +0.058 C 
ATOM     10  N   UNL     1       4.946  -2.225  -1.190  0.00  0.00    +0.384 N 
ATOM     11  H   UNL     1       4.903  -2.843  -0.371  0.00  0.00    -0.081 HD
ENDROOT
BRANCH   1  12
ATOM     12  C   UNL     1       0.063  -0.014   0.023  0.00  0.00    +0.141 C 
BRANCH  12  13
ATOM     13  N   UNL     1      -1.271  -0.615   0.093  0.00  0.00    -0.306 N 
ATOM     14  C   UNL     1      -2.164  -0.390  -0.891  0.00  0.00    +0.210 C 
ATOM     15  O   UNL     1      -1.863   0.310  -1.834  0.00  0.00    -0.276 OA
ATOM     16  C   UNL     1      -3.537  -1.008  -0.819  0.00  0.00    +0.109 C 
ATOM     17  H   UNL     1      -1.512  -1.175   0.848  0.00  0.00    +0.149 HD
ENDBRANCH  12  13
BRANCH  12  18
ATOM     18  C   UNL     1      -0.066   1.510  -0.018  0.00  0.00    +0.033 C 
BRANCH  18  20
ATOM     19  C   UNL     1       0.258   1.727   2.450  0.00  0.00    +0.007 C 
ATOM     20  C   UNL     1      -0.696   2.004   1.287  0.00  0.00    -0.015 C 
ATOM     21  C   UNL     1      -0.959   3.508   1.189  0.00  0.00    +0.007 C 
ENDBRANCH  18  20
ENDBRANCH  12  18
ENDBRANCH   1  12
BRANCH  10  22
ATOM     22  C   UNL     1       6.347  -2.116  -1.633  0.00  0.00    -0.039 C 
BRANCH  22  23
ATOM     23  C   UNL     1       7.223  -1.995  -0.413  0.00  0.00    -0.019 A 
ATOM     24  C   UNL     1       7.796  -0.778  -0.091  0.00  0.00    +0.005 A 
ATOM     25  C   UNL     1       8.595  -0.662   1.031  0.00  0.00    +0.004 A 
ATOM     26  C   UNL     1       8.834  -1.765   1.830  0.00  0.00    +0.049 A 
ATOM     27  C   UNL     1       8.268  -2.988   1.510  0.00  0.00    +0.161 A 
ATOM     28  C   UNL     1       7.458  -3.103   0.384  0.00  0.00    +0.160 A 
BRANCH  28  29
ATOM     29  O   UNL     1       6.899  -4.302   0.066  0.00  0.00    -0.503 OA
ATOM     30  H   UNL     1       7.446  -4.849  -0.514  0.00  0.00    +0.292 HD
ENDBRANCH  28  29
BRANCH  27  31
ATOM     31  O   UNL     1       8.501  -4.073   2.296  0.00  0.00    -0.491 OA
ATOM     32  C   UNL     1       9.341  -3.881   3.435  0.00  0.00    +0.277 C 
ENDBRANCH  27  31
ENDBRANCH  22  23
ENDBRANCH  10  22
TORSDOF 8
