REMARK  Name = ZINC13686435
REMARK  6 active torsions:
REMARK  status: ('A' for Active; 'I' for Inactive)
REMARK    1  A    between atoms: C_1  and  C_2
REMARK    2  A    between atoms: C_2  and  O_3
REMARK    3  A    between atoms: O_3  and  C_4
REMARK    4  A    between atoms: C_6  and  C_11
REMARK    5  A    between atoms: C_9  and  O_10
REMARK    6  A    between atoms: N_17  and  C_18
REMARK                            x       y       z     vdW  Elec       q    Type
REMARK                         _______ _______ _______ _____ _____    ______ ____
ROOT
ATOM      1  C   UNL     1      -1.178  -4.989  -0.265  0.00  0.00    +0.028 C 
ATOM      2  C   UNL     1      -0.904  -6.318  -0.294  0.00  0.00    +0.078 C 
ATOM      3  C   UNL     1      -1.293  -7.375   0.658  0.00  0.00    +0.256 C 
ATOM      4  O   UNL     1      -1.957  -7.128   1.647  0.00  0.00    -0.269 OA
ATOM      5  N   UNL     1      -0.887  -8.605   0.388  0.00  0.00    -0.260 N 
ATOM      6  C   UNL     1      -0.136  -8.865  -0.738  0.00  0.00    +0.166 C 
ATOM      7  N   UNL     1       0.344 -10.016  -1.152  0.00  0.00    -0.224 NA
ATOM      8  S   UNL     1       0.020  -7.258  -1.501  0.00  0.00    -0.049 S 
ATOM      9  H   UNL     1      -1.121  -9.330   0.987  0.00  0.00    +0.157 HD
ENDROOT
BRANCH   7  10
ATOM     10  C   UNL     1       1.149 -10.064  -2.258  0.00  0.00    +0.085 A 
ATOM     11  C   UNL     1       2.228  -9.186  -2.378  0.00  0.00    +0.029 A 
ATOM     12  C   UNL     1       3.036  -9.240  -3.495  0.00  0.00    +0.002 A 
ATOM     13  C   UNL     1       2.778 -10.161  -4.496  0.00  0.00    +0.002 A 
ATOM     14  C   UNL     1       1.711 -11.033  -4.384  0.00  0.00    +0.022 A 
ATOM     15  C   UNL     1       0.898 -10.995  -3.269  0.00  0.00    +0.066 A 
ATOM     16 CL   UNL     1      -0.437 -12.096  -3.127  0.00  0.00    -0.081 Cl
ENDBRANCH   7  10
BRANCH   1  19
ATOM     17  C   UNL     1      -0.448  -1.960  -2.353  0.00  0.00    +0.162 A 
ATOM     18  C   UNL     1      -0.774  -2.751  -1.268  0.00  0.00    +0.057 A 
ATOM     19  C   UNL     1      -0.833  -4.142  -1.414  0.00  0.00    -0.020 A 
ATOM     20  C   UNL     1      -0.562  -4.723  -2.658  0.00  0.00    +0.012 A 
ATOM     21  C   UNL     1      -0.238  -3.926  -3.734  0.00  0.00    +0.050 A 
ATOM     22  C   UNL     1      -0.185  -2.546  -3.590  0.00  0.00    +0.158 A 
BRANCH  22  23
ATOM     23  O   UNL     1       0.130  -1.766  -4.656  0.00  0.00    -0.503 OA
ATOM     24  H   UNL     1       1.077  -1.598  -4.755  0.00  0.00    +0.292 HD
ENDBRANCH  22  23
BRANCH  17  25
ATOM     25  O   UNL     1      -0.390  -0.608  -2.215  0.00  0.00    -0.489 OA
BRANCH  25  27
ATOM     26  C   UNL     1      -0.559   1.450  -0.960  0.00  0.00    +0.048 C 
ATOM     27  C   UNL     1      -0.672  -0.075  -0.920  0.00  0.00    +0.226 C 
ENDBRANCH  25  27
ENDBRANCH  17  25
ENDBRANCH   1  19
TORSDOF 5
