REMARK  Name = ZINC00812894
REMARK  5 active torsions:
REMARK  status: ('A' for Active; 'I' for Inactive)
REMARK    1  A    between atoms: C_1  and  O_2
REMARK    2  A    between atoms: O_2  and  C_3
REMARK    3  A    between atoms: C_5  and  C_12
REMARK    4  A    between atoms: C_8  and  O_9
REMARK    5  A    between atoms: O_9  and  C_10
REMARK                            x       y       z     vdW  Elec       q    Type
REMARK                         _______ _______ _______ _____ _____    ______ ____
ROOT
ATOM      1  C   UNL     1       3.711  -0.714  -0.037  0.00  0.00    +0.060 C 
ATOM      2  C   UNL     1       3.789  -1.585  -1.292  0.00  0.00    +0.109 C 
ATOM      3  C   UNL     1       2.839  -2.746  -1.165  0.00  0.00    +0.218 C 
ATOM      4  O   UNL     1       2.267  -3.165  -2.149  0.00  0.00    -0.275 OA
ATOM      5  N   UNL     1       2.620  -3.323   0.031  0.00  0.00    -0.285 N 
ATOM      6  C   UNL     1       3.263  -2.850   1.175  0.00  0.00    +0.045 A 
ATOM      7  C   UNL     1       3.812  -1.586   1.189  0.00  0.00    -0.018 A 
ATOM      8  C   UNL     1       4.459  -1.107   2.326  0.00  0.00    +0.006 A 
ATOM      9  C   UNL     1       4.566  -1.870   3.449  0.00  0.00    +0.009 A 
ATOM     10  C   UNL     1       4.018  -3.163   3.474  0.00  0.00    -0.016 A 
ATOM     11  C   UNL     1       3.356  -3.662   2.325  0.00  0.00    +0.004 A 
ATOM     12  C   UNL     1       2.807  -4.953   2.352  0.00  0.00    +0.010 A 
ATOM     13  C   UNL     1       2.916  -5.709   3.479  0.00  0.00    +0.001 A 
ATOM     14  C   UNL     1       3.568  -5.220   4.610  0.00  0.00    +0.001 A 
ATOM     15  C   UNL     1       4.113  -3.973   4.619  0.00  0.00    +0.008 A 
ATOM     16  H   UNL     1       2.009  -4.073   0.098  0.00  0.00    +0.155 HD
ENDROOT
BRANCH   1  19
ATOM     17  C   UNL     1       1.180   2.091   0.002  0.00  0.00    +0.163 A 
ATOM     18  C   UNL     1       2.386   1.408  -0.014  0.00  0.00    +0.053 A 
ATOM     19  C   UNL     1       2.399   0.026  -0.021  0.00  0.00    -0.035 A 
ATOM     20  C   UNL     1       1.209  -0.679  -0.013  0.00  0.00    +0.023 A 
ATOM     21  C   UNL     1       0.002  -0.004   0.002  0.00  0.00    +0.063 A 
ATOM     22  C   UNL     1      -0.017   1.382   0.010  0.00  0.00    +0.175 A 
ATOM     23 BR   UNL     1      -1.622  -0.972   0.013  0.00  0.00    -0.046 Br
BRANCH  17  25
ATOM     24  C   UNL     1       2.434   4.112   0.001  0.00  0.00    +0.277 C 
ATOM     25  O   UNL     1       1.167   3.451   0.010  0.00  0.00    -0.491 OA
ENDBRANCH  17  25
BRANCH  22  26
ATOM     26  O   UNL     1      -1.203   2.048   0.019  0.00  0.00    -0.490 OA
ATOM     27  C   UNL     1      -1.763   2.358   1.296  0.00  0.00    +0.277 C 
ENDBRANCH  22  26
ENDBRANCH   1  19
TORSDOF 3
