REMARK  Name = ZINC20681775
REMARK  3 active torsions:
REMARK  status: ('A' for Active; 'I' for Inactive)
REMARK    1  A    between atoms: C_9  and  C_18
REMARK    2  A    between atoms: C_21  and  O_25
REMARK    3  A    between atoms: C_23  and  O_24
REMARK                            x       y       z     vdW  Elec       q    Type
REMARK                         _______ _______ _______ _____ _____    ______ ____
ROOT
ATOM      1  C   UNL     1       1.816  -4.128  -1.240  0.00  0.00    +0.001 A 
ATOM      2  C   UNL     1       1.245  -2.948  -0.804  0.00  0.00    +0.006 A 
ATOM      3  C   UNL     1       2.013  -1.813  -0.651  0.00  0.00    -0.018 A 
ATOM      4  C   UNL     1       3.378  -1.837  -0.945  0.00  0.00    +0.046 A 
ATOM      5  C   UNL     1       3.943  -3.038  -1.378  0.00  0.00    +0.039 A 
ATOM      6  C   UNL     1       3.169  -4.170  -1.523  0.00  0.00    +0.017 A 
ATOM      7 BR   UNL     1       5.791  -3.115  -1.771  0.00  0.00    -0.048 Br
ATOM      8  N   UNL     1       4.220  -0.731  -0.839  0.00  0.00    -0.336 N 
ATOM      9  C   UNL     1       3.625   0.505  -0.306  0.00  0.00    +0.108 C 
ATOM     10  C   UNL     1       2.225   0.607  -0.875  0.00  0.00    +0.029 C 
ATOM     11  C   UNL     1       1.432  -0.539  -0.172  0.00  0.00    +0.049 C 
ATOM     12  C   UNL     1       0.017  -0.165  -0.414  0.00  0.00    -0.023 C 
ATOM     13  C   UNL     1      -0.056   1.157  -0.530  0.00  0.00    -0.030 C 
ATOM     14  C   UNL     1       1.341   1.769  -0.409  0.00  0.00    +0.033 C 
ATOM     15  H   UNL     1       5.281  -0.750  -1.130  0.00  0.00    +0.147 HD
ENDROOT
BRANCH   9  16
ATOM     16  C   UNL     1       4.442   1.696  -0.736  0.00  0.00    +0.015 A 
ATOM     17  C   UNL     1       5.181   1.641  -1.903  0.00  0.00    +0.012 A 
ATOM     18  C   UNL     1       5.931   2.731  -2.301  0.00  0.00    +0.046 A 
ATOM     19  C   UNL     1       5.944   3.885  -1.529  0.00  0.00    +0.120 A 
ATOM     20  C   UNL     1       5.204   3.942  -0.358  0.00  0.00    +0.091 A 
ATOM     21  C   UNL     1       4.448   2.849   0.036  0.00  0.00    +0.125 A 
BRANCH  21  22
ATOM     22  O   UNL     1       3.717   2.904   1.181  0.00  0.00    -0.506 OA
ATOM     23  H   UNL     1       3.722   3.818   1.792  0.00  0.00    +0.292 HD
ENDBRANCH  21  22
BRANCH  19  24
ATOM     24  O   UNL     1       6.682   4.956  -1.920  0.00  0.00    -0.507 OA
ATOM     25  H   UNL     1       6.692   5.870  -1.308  0.00  0.00    +0.292 HD
ENDBRANCH  19  24
ENDBRANCH   9  16
TORSDOF 3
