REMARK  Name = ZINC39688637
REMARK  11 active torsions:
REMARK  status: ('A' for Active; 'I' for Inactive)
REMARK    1  A    between atoms: C_1  and  C_2
REMARK    2  A    between atoms: C_2  and  C_3
REMARK    3  A    between atoms: C_3  and  C_4
REMARK    4  A    between atoms: C_4  and  C_5
REMARK    5  A    between atoms: C_5  and  C_6
REMARK    6  A    between atoms: C_6  and  C_7
REMARK    7  A    between atoms: C_11  and  C_20
REMARK    8  A    between atoms: N_22  and  C_23
REMARK    9  A    between atoms: C_23  and  C_25
REMARK   10  A    between atoms: C_23  and  C_26
REMARK   11  A    between atoms: C_26  and  C_27
REMARK                            x       y       z     vdW  Elec       q    Type
REMARK                         _______ _______ _______ _____ _____    ______ ____
ROOT
ATOM      1  C   UNL     1       1.855  -4.650   3.366  0.00  0.00    +0.216 C 
ATOM      2  O   UNL     1       2.204  -3.747   4.097  0.00  0.00    -0.276 OA
ATOM      3  N   UNL     1       2.141  -5.927   3.689  0.00  0.00    -0.300 N 
ATOM      4  C   UNL     1       1.807  -7.153   2.926  0.00  0.00    +0.121 C 
ATOM      5  C   UNL     1       3.053  -8.055   3.071  0.00  0.00    +0.100 C 
ATOM      6  C   UNL     1       3.740  -7.571   4.360  0.00  0.00    -0.004 C 
ATOM      7  C   UNL     1       2.866  -6.422   4.883  0.00  0.00    +0.115 C 
ATOM      8  C   UNL     1       5.144  -7.061   4.051  0.00  0.00    -0.010 C 
ATOM      9  C   UNL     1       5.827  -6.639   5.356  0.00  0.00    -0.082 C 
ATOM     10  N   UNL     1       5.891  -7.787   6.269  0.00  0.00    +0.379 N 
ATOM     11  C   UNL     1       4.535  -8.213   6.634  0.00  0.00    -0.082 C 
ATOM     12  C   UNL     1       3.797  -8.701   5.384  0.00  0.00    -0.010 C 
ATOM     13  H   UNL     1       6.371  -8.549   5.816  0.00  0.00    -0.086 HD
ATOM     14  H   UNL     1       6.395  -7.523   7.103  0.00  0.00    -0.086 HD
ENDROOT
BRANCH   5  15
ATOM     15  C   UNL     1       3.970  -7.877   1.888  0.00  0.00    +0.218 C 
ATOM     16  O   UNL     1       4.055  -6.796   1.344  0.00  0.00    -0.275 OA
ATOM     17  N   UNL     1       4.694  -8.919   1.434  0.00  0.00    -0.312 N 
ATOM     18  H   UNL     1       4.625  -9.784   1.869  0.00  0.00    +0.149 HD
BRANCH  17  19
ATOM     19  C   UNL     1       5.584  -8.747   0.284  0.00  0.00    +0.074 C 
ATOM     20  C   UNL     1       4.787  -8.926  -1.010  0.00  0.00    +0.028 C 
BRANCH  19  21
ATOM     21  C   UNL     1       6.702  -9.790   0.343  0.00  0.00    +0.057 C 
BRANCH  21  22
ATOM     22  C   UNL     1       7.562  -9.537   1.554  0.00  0.00    -0.045 A 
ATOM     23  C   UNL     1       8.657  -8.698   1.461  0.00  0.00    +0.006 A 
ATOM     24  C   UNL     1       9.446  -8.465   2.571  0.00  0.00    +0.038 A 
ATOM     25  C   UNL     1       9.139  -9.072   3.778  0.00  0.00    +0.123 A 
ATOM     26  C   UNL     1       8.042  -9.911   3.870  0.00  0.00    +0.038 A 
ATOM     27  C   UNL     1       7.251 -10.139   2.760  0.00  0.00    +0.006 A 
ATOM     28  F   UNL     1       9.910  -8.845   4.864  0.00  0.00    -0.205 F 
ENDBRANCH  21  22
ENDBRANCH  19  21
ENDBRANCH  17  19
ENDBRANCH   5  15
BRANCH   1  29
ATOM     29  C   UNL     1       1.102  -4.344   2.098  0.00  0.00    +0.096 C 
BRANCH  29  30
ATOM     30  C   UNL     1       0.910  -2.831   1.971  0.00  0.00    +0.009 C 
BRANCH  30  31
ATOM     31  C   UNL     1       0.145  -2.520   0.683  0.00  0.00    +0.000 C 
BRANCH  31  32
ATOM     32  C   UNL     1      -0.047  -1.008   0.556  0.00  0.00    -0.000 C 
BRANCH  32  34
ATOM     33  C   UNL     1      -1.004   0.816  -0.859  0.00  0.00    +0.004 C 
ATOM     34  C   UNL     1      -0.812  -0.697  -0.732  0.00  0.00    -0.003 C 
ENDBRANCH  32  34
ENDBRANCH  31  32
ENDBRANCH  30  31
ENDBRANCH  29  30
ENDBRANCH   1  29
TORSDOF 9
