REMARK  Name = ZINC65466998
REMARK  9 active torsions:
REMARK  status: ('A' for Active; 'I' for Inactive)
REMARK    1  A    between atoms: C_1  and  C_2
REMARK    2  A    between atoms: C_2  and  C_3
REMARK    3  A    between atoms: C_2  and  C_4
REMARK    4  A    between atoms: C_4  and  C_5
REMARK    5  A    between atoms: C_7  and  C_13
REMARK    6  A    between atoms: C_16  and  C_26
REMARK    7  A    between atoms: N_19  and  C_20
REMARK    8  A    between atoms: C_26  and  C_27
REMARK    9  A    between atoms: C_26  and  C_28
REMARK                            x       y       z     vdW  Elec       q    Type
REMARK                         _______ _______ _______ _____ _____    ______ ____
ROOT
ATOM      1  C   UNL     1      -2.839  -1.484  -4.652  0.00  0.00    +0.086 C 
ATOM      2  N   UNL     1      -2.995  -0.725  -5.917  0.00  0.00    +0.407 N 
ATOM      3  C   UNL     1      -2.172  -1.515  -6.874  0.00  0.00    +0.021 C 
ATOM      4  N   UNL     1      -1.048  -1.980  -6.021  0.00  0.00    -0.255 NA
ATOM      5  N   UNL     1      -1.605  -2.273  -4.798  0.00  0.00    -0.276 N 
ATOM      6  H   UNL     1      -3.962  -0.707  -6.207  0.00  0.00    -0.080 HD
ATOM      7  H   UNL     1      -0.341  -1.266  -5.935  0.00  0.00    +0.142 HD
ATOM      8  H   UNL     1      -2.632   0.211  -5.820  0.00  0.00    -0.080 HD
ENDROOT
BRANCH   1  11
ATOM      9  C   UNL     1      -3.411   1.431  -2.349  0.00  0.00    +0.022 A 
ATOM     10  C   UNL     1      -3.542   0.588  -3.407  0.00  0.00    +0.044 A 
ATOM     11  C   UNL     1      -2.712  -0.534  -3.490  0.00  0.00    +0.053 A 
ATOM     12  N   UNL     1      -1.818  -0.758  -2.548  0.00  0.00    -0.198 NA
ATOM     13  H   UNL     1      -2.367   1.763  -0.645  0.00  0.00    +0.170 HD
ATOM     14  C   UNL     1      -1.694   0.074  -1.511  0.00  0.00    +0.346 A 
ATOM     15  O   UNL     1      -0.858  -0.156  -0.653  0.00  0.00    -0.245 OA
ATOM     16  N   UNL     1      -2.473   1.166  -1.402  0.00  0.00    -0.310 N 
BRANCH   9  17
ATOM     17  C   UNL     1      -4.291   2.649  -2.230  0.00  0.00    +0.056 C 
BRANCH  17  19
ATOM     18  C   UNL     1      -5.024   2.026   0.075  0.00  0.00    +0.007 C 
ATOM     19  C   UNL     1      -5.498   2.322  -1.349  0.00  0.00    -0.011 C 
ATOM     20  C   UNL     1      -6.453   3.517  -1.329  0.00  0.00    +0.007 C 
ENDBRANCH  17  19
ENDBRANCH   9  17
ENDBRANCH   1  11
BRANCH   5  21
ATOM     21  C   UNL     1      -1.089  -3.166  -3.856  0.00  0.00    +0.043 A 
ATOM     22  C   UNL     1      -1.833  -3.499  -2.732  0.00  0.00    +0.024 A 
ATOM     23  C   UNL     1      -1.320  -4.382  -1.802  0.00  0.00    +0.002 A 
ATOM     24  C   UNL     1      -0.066  -4.934  -1.989  0.00  0.00    +0.000 A 
ATOM     25  C   UNL     1       0.679  -4.604  -3.107  0.00  0.00    +0.002 A 
ATOM     26  C   UNL     1       0.169  -3.726  -4.043  0.00  0.00    +0.024 A 
ENDBRANCH   5  21
BRANCH   3  27
ATOM     27  C   UNL     1      -2.967  -2.700  -7.426  0.00  0.00    -0.016 C 
ATOM     28  C   UNL     1      -4.210  -2.185  -8.154  0.00  0.00    +0.007 C 
ATOM     29  C   UNL     1      -2.094  -3.489  -8.403  0.00  0.00    +0.007 C 
ENDBRANCH   3  27
TORSDOF 5
