REMARK  Name = ZINC20412832
REMARK  7 active torsions:
REMARK  status: ('A' for Active; 'I' for Inactive)
REMARK    1  A    between atoms: C_1  and  C_2
REMARK    2  A    between atoms: C_10  and  C_14
REMARK    3  A    between atoms: C_18  and  C_20
REMARK    4  A    between atoms: C_20  and  N_21
REMARK    5  A    between atoms: N_24  and  C_27
REMARK    6  A    between atoms: C_27  and  C_28
REMARK    7  A    between atoms: C_27  and  C_35
REMARK                            x       y       z     vdW  Elec       q    Type
REMARK                         _______ _______ _______ _____ _____    ______ ____
ROOT
ATOM      1  N   UNL     1      -1.348   0.792   3.854  0.00  0.00    +0.382 N 
ATOM      2  C   UNL     1      -1.707  -0.575   3.454  0.00  0.00    -0.063 C 
ATOM      3  C   UNL     1      -0.736  -1.060   2.376  0.00  0.00    +0.067 C 
ATOM      4  N   UNL     1      -0.789  -0.147   1.226  0.00  0.00    -0.295 NA
ATOM      5  C   UNL     1      -0.430   1.221   1.626  0.00  0.00    +0.067 C 
ATOM      6  C   UNL     1      -1.401   1.706   2.704  0.00  0.00    -0.063 C 
ATOM      7  H   UNL     1      -0.314   0.776   4.228  0.00  0.00    -0.082 HD
ENDROOT
BRANCH   1   8
ATOM      8  C   UNL     1      -2.212   1.266   4.944  0.00  0.00    -0.064 C 
BRANCH   8  24
ATOM      9  C   UNL     1      -4.997  -1.044   9.763  0.00  0.00    +0.039 C 
ATOM     10  C   UNL     1      -4.132  -0.007  10.432  0.00  0.00    -0.073 C 
ATOM     11  C   UNL     1      -3.086   0.436   9.802  0.00  0.00    -0.064 C 
ATOM     12  C   UNL     1      -2.794  -0.077   8.407  0.00  0.00    +0.039 C 
ATOM     13  C   UNL     1      -2.684   1.100   7.433  0.00  0.00    +0.046 C 
ATOM     14  C   UNL     1      -1.771   2.205   7.993  0.00  0.00    +0.181 C 
ATOM     15  C   UNL     1      -2.106   2.643   9.396  0.00  0.00    +0.056 C 
ATOM     16  C   UNL     1      -2.132   1.455  10.359  0.00  0.00    -0.007 C 
ATOM     17  C   UNL     1      -2.489   1.910  11.761  0.00  0.00    +0.011 C 
ATOM     18  C   UNL     1      -4.001   1.911  11.974  0.00  0.00    +0.005 C 
ATOM     19  C   UNL     1      -4.513   0.476  11.804  0.00  0.00    +0.030 C 
ATOM     20  C   UNL     1      -0.734   0.836  10.402  0.00  0.00    +0.016 C 
ATOM     21  O   UNL     1      -0.434   1.651   7.850  0.00  0.00    -0.461 OA
ATOM     22  C   UNL     1      -0.390   1.037   6.645  0.00  0.00    +0.309 C 
ATOM     23  O   UNL     1       0.607   0.863   5.984  0.00  0.00    -0.251 OA
ATOM     24  C   UNL     1      -1.790   0.602   6.255  0.00  0.00    +0.088 C 
ENDBRANCH   8  24
ENDBRANCH   1   8
BRANCH   4  25
ATOM     25  C   UNL     1       0.075  -0.621   0.136  0.00  0.00    +0.117 C 
BRANCH  25  26
ATOM     26  C   UNL     1      -0.005   0.339  -1.023  0.00  0.00    -0.026 A 
ATOM     27  C   UNL     1      -1.221   0.893  -1.377  0.00  0.00    +0.008 A 
ATOM     28  C   UNL     1      -1.296   1.777  -2.437  0.00  0.00    +0.038 A 
ATOM     29  C   UNL     1      -0.153   2.099  -3.150  0.00  0.00    +0.123 A 
ATOM     30  C   UNL     1       1.063   1.539  -2.798  0.00  0.00    +0.038 A 
ATOM     31  C   UNL     1       1.135   0.660  -1.734  0.00  0.00    +0.008 A 
ATOM     32  F   UNL     1      -0.226   2.959  -4.189  0.00  0.00    -0.205 F 
ENDBRANCH  25  26
BRANCH  25  33
ATOM     33  C   UNL     1      -0.382  -1.986  -0.309  0.00  0.00    -0.026 A 
ATOM     34  C   UNL     1      -1.732  -2.268  -0.397  0.00  0.00    +0.008 A 
ATOM     35  C   UNL     1      -2.152  -3.518  -0.810  0.00  0.00    +0.038 A 
ATOM     36  C   UNL     1      -1.220  -4.492  -1.126  0.00  0.00    +0.123 A 
ATOM     37  C   UNL     1       0.133  -4.210  -1.032  0.00  0.00    +0.038 A 
ATOM     38  C   UNL     1       0.550  -2.958  -0.624  0.00  0.00    +0.008 A 
ATOM     39  F   UNL     1      -1.629  -5.716  -1.526  0.00  0.00    -0.205 F 
ENDBRANCH  25  33
ENDBRANCH   4  25
TORSDOF 5
