REMARK  Name = ZINC12793927
REMARK  9 active torsions:
REMARK  status: ('A' for Active; 'I' for Inactive)
REMARK    1  A    between atoms: C_1  and  C_2
REMARK    2  A    between atoms: C_5  and  C_8
REMARK    3  A    between atoms: C_8  and  N_9
REMARK    4  A    between atoms: N_12  and  C_13
REMARK    5  A    between atoms: C_13  and  C_14
REMARK    6  A    between atoms: N_16  and  C_17
REMARK    7  A    between atoms: C_17  and  C_18
REMARK    8  A    between atoms: N_20  and  C_21
REMARK    9  A    between atoms: C_26  and  C_27
REMARK                            x       y       z     vdW  Elec       q    Type
REMARK                         _______ _______ _______ _____ _____    ______ ____
ROOT
ATOM      1  C   UNL     1       2.627  -2.609  -0.011  0.00  0.00    +0.231 C 
ATOM      2  O   UNL     1       3.538  -1.809  -0.007  0.00  0.00    -0.274 OA
ATOM      3  N   UNL     1       2.890  -3.931  -0.030  0.00  0.00    -0.305 N 
ATOM      4  H   UNL     1       2.162  -4.571  -0.033  0.00  0.00    +0.149 HD
ENDROOT
BRANCH   1   5
ATOM      5  C   UNL     1       1.199  -2.126   0.007  0.00  0.00    +0.201 C 
BRANCH   5   9
ATOM      6  N   UNL     1      -0.014   1.344   0.063  0.00  0.00    -0.295 N 
ATOM      7  C   UNL     1       0.004  -0.003   0.045  0.00  0.00    +0.300 C 
ATOM      8  O   UNL     1      -1.041  -0.625   0.045  0.00  0.00    -0.253 OA
ATOM      9  N   UNL     1       1.180  -0.661   0.027  0.00  0.00    -0.291 N 
ATOM     10  H   UNL     1       0.820   1.840   0.063  0.00  0.00    +0.151 HD
ATOM     11  H   UNL     1       2.013  -0.165   0.027  0.00  0.00    +0.151 HD
BRANCH   6  12
ATOM     12  C   UNL     1      -1.292   2.060   0.076  0.00  0.00    +0.141 C 
BRANCH  12  17
ATOM     13  C   UNL     1      -0.313   7.754   0.149  0.00  0.00    +0.044 C 
ATOM     14  C   UNL     1      -0.568   6.269   0.130  0.00  0.00    -0.050 A 
ATOM     15  C   UNL     1      -0.689   5.604  -1.076  0.00  0.00    +0.003 A 
ATOM     16  C   UNL     1      -0.923   4.242  -1.093  0.00  0.00    +0.005 A 
ATOM     17  C   UNL     1      -1.037   3.545   0.095  0.00  0.00    -0.030 A 
ATOM     18  C   UNL     1      -0.921   4.211   1.301  0.00  0.00    +0.005 A 
ATOM     19  C   UNL     1      -0.682   5.572   1.318  0.00  0.00    +0.003 A 
ENDBRANCH  12  17
ENDBRANCH   6  12
ENDBRANCH   5   9
ENDBRANCH   1   5
BRANCH   3  20
ATOM     20  C   UNL     1       4.278  -4.401  -0.047  0.00  0.00    +0.200 C 
BRANCH  20  21
ATOM     21  C   UNL     1       4.298  -5.907  -0.068  0.00  0.00    +0.234 C 
ATOM     22  O   UNL     1       3.256  -6.528  -0.068  0.00  0.00    -0.274 OA
ATOM     23  N   UNL     1       5.474  -6.566  -0.086  0.00  0.00    -0.284 N 
ATOM     24  H   UNL     1       6.305  -6.072  -0.166  0.00  0.00    +0.155 HD
BRANCH  23  25
ATOM     25  C   UNL     1       5.496  -7.962   0.013  0.00  0.00    +0.036 A 
ATOM     26  C   UNL     1       4.446  -8.633   0.625  0.00  0.00    +0.024 A 
ATOM     27  C   UNL     1       4.470 -10.010   0.720  0.00  0.00    +0.017 A 
ATOM     28  C   UNL     1       5.540 -10.722   0.205  0.00  0.00    +0.018 A 
ATOM     29  C   UNL     1       6.588 -10.056  -0.405  0.00  0.00    +0.020 A 
ATOM     30  C   UNL     1       6.566  -8.678  -0.508  0.00  0.00    -0.028 A 
ATOM     31  C   UNL     1       7.704  -7.954  -1.179  0.00  0.00    +0.046 C 
ATOM     32 BR   UNL     1       5.569 -12.608   0.337  0.00  0.00    -0.050 Br
ENDBRANCH  23  25
ENDBRANCH  20  21
ENDBRANCH   3  20
TORSDOF 7
