REMARK  Name = ZINC12607739
REMARK  9 active torsions:
REMARK  status: ('A' for Active; 'I' for Inactive)
REMARK    1  A    between atoms: C_1  and  C_2
REMARK    2  A    between atoms: C_5  and  C_35
REMARK    3  A    between atoms: C_6  and  N_8
REMARK    4  A    between atoms: C_12  and  N_16
REMARK    5  A    between atoms: N_16  and  C_17
REMARK    6  A    between atoms: C_20  and  C_34
REMARK    7  A    between atoms: C_21  and  S_23
REMARK    8  A    between atoms: S_23  and  N_26
REMARK    9  A    between atoms: N_26  and  C_27
REMARK                            x       y       z     vdW  Elec       q    Type
REMARK                         _______ _______ _______ _____ _____    ______ ____
ROOT
ATOM      1  C   UNL     1      -2.585  -3.036   5.871  0.00  0.00    +0.030 A 
ATOM      2  C   UNL     1      -3.117  -4.181   5.290  0.00  0.00    +0.023 A 
ATOM      3  C   UNL     1      -4.239  -4.772   5.836  0.00  0.00    +0.007 A 
ATOM      4  C   UNL     1      -4.834  -4.226   6.959  0.00  0.00    -0.024 A 
ATOM      5  C   UNL     1      -4.308  -3.086   7.539  0.00  0.00    +0.113 A 
ATOM      6  C   UNL     1      -3.182  -2.493   7.002  0.00  0.00    +0.052 A 
ATOM      7  C   UNL     1      -6.059  -4.873   7.551  0.00  0.00    +0.046 C 
ENDROOT
BRANCH   5   8
ATOM      8  S   UNL     1      -5.070  -2.394   8.969  0.00  0.00    +0.073 S 
ATOM      9  O   UNL     1      -5.261  -3.463   9.885  0.00  0.00    -0.150 OA
ATOM     10  O   UNL     1      -4.328  -1.229   9.301  0.00  0.00    -0.150 OA
BRANCH   8  11
ATOM     11  N   UNL     1      -6.579  -1.882   8.519  0.00  0.00    -0.216 N 
ATOM     12  H   UNL     1      -7.366  -2.266   8.936  0.00  0.00    +0.174 HD
BRANCH  11  13
ATOM     13  C   UNL     1      -6.719  -0.895   7.538  0.00  0.00    +0.048 A 
ATOM     14  C   UNL     1      -5.933   0.248   7.585  0.00  0.00    +0.027 A 
ATOM     15  C   UNL     1      -6.072   1.221   6.614  0.00  0.00    +0.040 A 
ATOM     16  C   UNL     1      -6.996   1.057   5.595  0.00  0.00    +0.124 A 
ATOM     17  C   UNL     1      -7.781  -0.083   5.547  0.00  0.00    +0.040 A 
ATOM     18  C   UNL     1      -7.641  -1.060   6.512  0.00  0.00    +0.027 A 
ATOM     19  F   UNL     1      -7.131   2.010   4.647  0.00  0.00    -0.205 F 
ENDBRANCH  11  13
ENDBRANCH   8  11
ENDBRANCH   5   8
BRANCH   1  20
ATOM     20  N   UNL     1      -1.450  -2.436   5.322  0.00  0.00    -0.332 N 
ATOM     21  H   UNL     1      -1.077  -1.639   5.731  0.00  0.00    +0.147 HD
BRANCH  20  26
ATOM     22  N   UNL     1      -0.430  -1.773   2.197  0.00  0.00    -0.209 N 
ATOM     23  C   UNL     1       0.776  -1.837   2.775  0.00  0.00    +0.228 C 
ATOM     24  O   UNL     1       1.792  -1.341   2.337  0.00  0.00    -0.275 OA
ATOM     25  C   UNL     1       0.670  -2.624   4.063  0.00  0.00    +0.128 C 
ATOM     26  C   UNL     1      -0.822  -3.009   4.129  0.00  0.00    +0.166 C 
ATOM     27  C   UNL     1      -1.403  -2.394   2.875  0.00  0.00    +0.247 C 
ATOM     28  O   UNL     1      -2.566  -2.455   2.537  0.00  0.00    -0.273 OA
BRANCH  22  34
ATOM     29  C   UNL     1      -1.591   2.353  -0.214  0.00  0.00    +0.044 C 
ATOM     30  C   UNL     1      -1.219   0.892  -0.212  0.00  0.00    -0.049 A 
ATOM     31  C   UNL     1      -1.102   0.208  -1.408  0.00  0.00    +0.004 A 
ATOM     32  C   UNL     1      -0.762  -1.132  -1.411  0.00  0.00    +0.005 A 
ATOM     33  C   UNL     1      -0.539  -1.791  -0.217  0.00  0.00    -0.029 A 
ATOM     34  C   UNL     1      -0.656  -1.107   0.985  0.00  0.00    +0.047 A 
ATOM     35  C   UNL     1      -0.992   0.240   0.983  0.00  0.00    +0.027 A 
ATOM     36  C   UNL     1      -0.169  -3.252  -0.220  0.00  0.00    +0.045 C 
ENDBRANCH  22  34
ENDBRANCH  20  26
ENDBRANCH   1  20
TORSDOF 6
