REMARK  Name = ZINC09434007
REMARK  6 active torsions:
REMARK  status: ('A' for Active; 'I' for Inactive)
REMARK    1  A    between atoms: C_1  and  O_2
REMARK    2  A    between atoms: O_2  and  C_3
REMARK    3  A    between atoms: C_3  and  C_4
REMARK    4  A    between atoms: C_4  and  C_5
REMARK    5  A    between atoms: C_5  and  N_6
REMARK    6  A    between atoms: C_12  and  C_22
REMARK                            x       y       z     vdW  Elec       q    Type
REMARK                         _______ _______ _______ _____ _____    ______ ____
ROOT
ATOM      1  N   UNL     1      -0.039   1.491  -0.273  0.00  0.00    -0.221 N 
ATOM      2  C   UNL     1       1.127   2.168  -0.299  0.00  0.00    +0.261 C 
ATOM      3  O   UNL     1       2.171   1.604  -0.570  0.00  0.00    -0.269 OA
ATOM      4  C   UNL     1       1.103   3.608   0.010  0.00  0.00    +0.116 C 
ATOM      5  C   UNL     1       2.260   4.367   0.004  0.00  0.00    +0.027 C 
ATOM      6  C   UNL     1       2.054   5.836  -0.110  0.00  0.00    +0.071 C 
ATOM      7  C   UNL     1       3.089   6.497  -0.969  0.00  0.00    +0.087 C 
ATOM      8  S   UNL     1       4.702   6.608  -0.210  0.00  0.00    -0.115 S 
ATOM      9  C   UNL     1       5.419   5.015  -0.207  0.00  0.00    +0.030 A 
ATOM     10  C   UNL     1       6.812   4.958  -0.360  0.00  0.00    +0.016 A 
ATOM     11  C   UNL     1       7.489   3.762  -0.369  0.00  0.00    +0.001 A 
ATOM     12  C   UNL     1       6.783   2.581  -0.227  0.00  0.00    +0.002 A 
ATOM     13  C   UNL     1       5.418   2.619  -0.079  0.00  0.00    +0.024 A 
ATOM     14  C   UNL     1       4.708   3.833  -0.066  0.00  0.00    +0.045 A 
ATOM     15  N   UNL     1       3.356   3.698   0.092  0.00  0.00    -0.316 N 
ATOM     16  C   UNL     1      -0.206   4.205   0.327  0.00  0.00    +0.258 C 
ATOM     17  O   UNL     1      -0.305   5.388   0.593  0.00  0.00    -0.270 OA
ATOM     18  N   UNL     1      -1.291   3.405   0.315  0.00  0.00    -0.235 N 
ATOM     19  C   UNL     1      -1.197   2.100   0.019  0.00  0.00    +0.315 C 
ATOM     20  O   UNL     1      -2.213   1.435   0.021  0.00  0.00    -0.252 OA
ATOM     21  H   UNL     1       3.332   2.639   0.389  0.00  0.00    +0.152 HD
ATOM     22  H   UNL     1      -2.283   3.818   0.551  0.00  0.00    +0.159 HD
ENDROOT
BRANCH   7  23
ATOM     23  C   UNL     1       2.618   7.889  -1.304  0.00  0.00    -0.034 A 
ATOM     24  C   UNL     1       2.460   8.825  -0.299  0.00  0.00    +0.005 A 
ATOM     25  C   UNL     1       2.033  10.104  -0.607  0.00  0.00    +0.000 A 
ATOM     26  C   UNL     1       1.754  10.443  -1.917  0.00  0.00    +0.000 A 
ATOM     27  C   UNL     1       1.908   9.505  -2.921  0.00  0.00    +0.000 A 
ATOM     28  C   UNL     1       2.340   8.229  -2.615  0.00  0.00    +0.005 A 
ENDBRANCH   7  23
BRANCH   1  29
ATOM     29  C   UNL     1      -0.042   0.058  -0.577  0.00  0.00    +0.120 C 
BRANCH  29  30
ATOM     30  C   UNL     1       0.161  -0.738   0.714  0.00  0.00    +0.047 C 
BRANCH  30  31
ATOM     31  C   UNL     1       0.158  -2.235   0.396  0.00  0.00    +0.161 C 
BRANCH  31  33
ATOM     32  C   UNL     1       0.360  -4.394   1.415  0.00  0.00    +0.193 C 
ATOM     33  O   UNL     1       0.347  -2.978   1.602  0.00  0.00    -0.383 OA
ENDBRANCH  31  33
ENDBRANCH  30  31
ENDBRANCH  29  30
ENDBRANCH   1  29
TORSDOF 5
