REMARK  Name = ZINC05608016
REMARK  9 active torsions:
REMARK  status: ('A' for Active; 'I' for Inactive)
REMARK    1  A    between atoms: C_1  and  C_2
REMARK    2  A    between atoms: C_2  and  O_3
REMARK    3  A    between atoms: O_3  and  C_4
REMARK    4  A    between atoms: C_6  and  C_11
REMARK    5  A    between atoms: C_9  and  O_10
REMARK    6  A    between atoms: C_12  and  N_20
REMARK    7  A    between atoms: C_21  and  C_22
REMARK    8  A    between atoms: C_25  and  S_28
REMARK    9  A    between atoms: S_28  and  C_29
REMARK                            x       y       z     vdW  Elec       q    Type
REMARK                         _______ _______ _______ _____ _____    ______ ____
ROOT
ATOM      1  C   UNL     1      -2.433   3.698   6.352  0.00  0.00    +0.091 A 
ATOM      2  C   UNL     1      -3.277   4.781   6.588  0.00  0.00    +0.163 A 
ATOM      3  N   UNL     1      -2.527   5.719   7.263  0.00  0.00    -0.286 N 
ATOM      4  C   UNL     1      -2.827   6.960   7.746  0.00  0.00    +0.094 A 
ATOM      5  C   UNL     1      -1.892   7.694   8.385  0.00  0.00    +0.018 A 
ATOM      6  C   UNL     1      -0.594   7.188   8.561  0.00  0.00    +0.005 A 
ATOM      7  C   UNL     1      -0.281   5.952   8.084  0.00  0.00    +0.045 A 
ATOM      8  C   UNL     1      -1.268   5.197   7.419  0.00  0.00    +0.117 A 
ATOM      9  N   UNL     1      -1.236   3.988   6.873  0.00  0.00    -0.338 N 
ATOM     10  H   UNL     1      -0.415   3.259   6.804  0.00  0.00    +0.167 HD
ENDROOT
BRANCH   1  13
ATOM     11  C   UNL     1      -2.208   0.623   4.199  0.00  0.00    +0.162 A 
ATOM     12  C   UNL     1      -1.860   1.790   4.855  0.00  0.00    +0.059 A 
ATOM     13  C   UNL     1      -2.799   2.445   5.652  0.00  0.00    +0.006 A 
ATOM     14  C   UNL     1      -4.082   1.915   5.794  0.00  0.00    +0.014 A 
ATOM     15  C   UNL     1      -4.422   0.748   5.141  0.00  0.00    +0.050 A 
ATOM     16  C   UNL     1      -3.490   0.099   4.344  0.00  0.00    +0.158 A 
BRANCH  16  17
ATOM     17  O   UNL     1      -3.830  -1.051   3.703  0.00  0.00    -0.503 OA
ATOM     18  H   UNL     1      -4.842  -1.466   3.816  0.00  0.00    +0.292 HD
ENDBRANCH  16  17
BRANCH  11  19
ATOM     19  O   UNL     1      -1.297  -0.015   3.417  0.00  0.00    -0.489 OA
BRANCH  19  21
ATOM     20  C   UNL     1       0.880  -0.274   2.399  0.00  0.00    +0.048 C 
ATOM     21  C   UNL     1      -0.001   0.579   3.314  0.00  0.00    +0.226 C 
ENDBRANCH  19  21
ENDBRANCH  11  19
ENDBRANCH   1  13
BRANCH   2  22
ATOM     22  N   UNL     1      -4.574   4.890   6.228  0.00  0.00    -0.235 NA
ATOM     23  C   UNL     1      -4.926   5.747   5.304  0.00  0.00    +0.121 C 
BRANCH  23  24
ATOM     24  C   UNL     1      -3.898   6.448   4.523  0.00  0.00    -0.007 A 
ATOM     25  C   UNL     1      -4.236   7.587   3.780  0.00  0.00    +0.010 A 
ATOM     26  C   UNL     1      -3.270   8.243   3.053  0.00  0.00    +0.015 A 
ATOM     27  C   UNL     1      -1.960   7.771   3.047  0.00  0.00    +0.008 A 
ATOM     28  C   UNL     1      -1.621   6.636   3.780  0.00  0.00    +0.015 A 
ATOM     29  C   UNL     1      -2.580   5.977   4.513  0.00  0.00    +0.010 A 
BRANCH  27  30
ATOM     30  S   UNL     1      -0.727   8.611   2.109  0.00  0.00    -0.129 S 
ATOM     31  C   UNL     1      -1.623   9.992   1.346  0.00  0.00    +0.090 C 
ENDBRANCH  27  30
ENDBRANCH  23  24
ENDBRANCH   2  22
TORSDOF 7
