REMARK  Name = ZINC63868266
REMARK  6 active torsions:
REMARK  status: ('A' for Active; 'I' for Inactive)
REMARK    1  A    between atoms: C_1  and  C_2
REMARK    2  A    between atoms: C_3  and  C_17
REMARK    3  A    between atoms: C_4  and  O_9
REMARK    4  A    between atoms: N_6  and  C_8
REMARK    5  A    between atoms: O_9  and  C_10
REMARK    6  A    between atoms: C_23  and  C_27
REMARK                            x       y       z     vdW  Elec       q    Type
REMARK                         _______ _______ _______ _____ _____    ______ ____
ROOT
ATOM      1  C   UNL     1      -0.072   1.467  -0.430  0.00  0.00    +0.062 C 
ATOM      2  C   UNL     1      -0.021  -0.019  -0.186  0.00  0.00    +0.024 C 
ATOM      3  C   UNL     1      -1.074  -0.758   0.098  0.00  0.00    +0.046 C 
ATOM      4  C   UNL     1      -0.579  -2.179   0.264  0.00  0.00    +0.294 C 
ATOM      5  N   UNL     1       0.876  -2.088   0.029  0.00  0.00    -0.190 NA
ATOM      6  N   UNL     1       1.135  -0.774  -0.238  0.00  0.00    -0.279 N 
ATOM      7  C   UNL     1       1.282  -2.939  -1.097  0.00  0.00    +0.132 C 
ATOM      8  H   UNL     1       2.015  -0.417  -0.436  0.00  0.00    +0.166 HD
ENDROOT
BRANCH   3   9
ATOM      9  C   UNL     1      -2.497  -0.281   0.232  0.00  0.00    +0.208 C 
ATOM     10  N   UNL     1      -3.065  -0.741   1.505  0.00  0.00    -0.360 N 
ATOM     11  C   UNL     1      -4.090  -1.496   1.227  0.00  0.00    +0.060 A 
ATOM     12  C   UNL     1      -5.038  -2.227   2.079  0.00  0.00    +0.028 A 
ATOM     13  C   UNL     1      -6.027  -2.946   1.520  0.00  0.00    +0.021 A 
ATOM     14  C   UNL     1      -6.197  -3.030   0.072  0.00  0.00    +0.054 A 
ATOM     15  C   UNL     1      -5.360  -2.382  -0.785  0.00  0.00    +0.046 A 
ATOM     16  C   UNL     1      -4.256  -1.575  -0.249  0.00  0.00    +0.062 A 
ATOM     17  N   UNL     1      -3.327  -0.866  -0.828  0.00  0.00    -0.360 N 
ATOM     18  H   UNL     1      -3.205  -0.747  -1.783  0.00  0.00    +0.162 HD
ATOM     19  H   UNL     1      -2.736  -0.524   2.392  0.00  0.00    +0.162 HD
BRANCH  14  20
ATOM     20  C   UNL     1      -7.270  -3.814  -0.461  0.00  0.00    +0.099 C 
ATOM     21  N   UNL     1      -8.122  -4.437  -0.884  0.00  0.00    -0.191 NA
ENDBRANCH  14  20
ENDBRANCH   3   9
BRANCH   4  22
ATOM     22  O   UNL     1      -1.191  -3.037  -0.702  0.00  0.00    -0.468 OA
BRANCH  22  23
ATOM     23  C   UNL     1      -1.094  -4.376  -0.487  0.00  0.00    +0.123 A 
ATOM     24  C   UNL     1      -0.429  -4.853   0.633  0.00  0.00    +0.047 A 
ATOM     25  C   UNL     1      -0.332  -6.214   0.850  0.00  0.00    +0.023 A 
ATOM     26  C   UNL     1      -0.897  -7.101  -0.050  0.00  0.00    +0.041 A 
ATOM     27  C   UNL     1      -1.560  -6.627  -1.167  0.00  0.00    +0.023 A 
ATOM     28  C   UNL     1      -1.665  -5.266  -1.384  0.00  0.00    +0.047 A 
ATOM     29 CL   UNL     1      -0.773  -8.811   0.225  0.00  0.00    -0.084 Cl
ENDBRANCH  22  23
ENDBRANCH   4  22
TORSDOF 4
