REMARK  Name = ZINC05034754
REMARK  6 active torsions:
REMARK  status: ('A' for Active; 'I' for Inactive)
REMARK    1  A    between atoms: C_1  and  C_2
REMARK    2  A    between atoms: C_5  and  C_8
REMARK    3  A    between atoms: C_10  and  N_28
REMARK    4  A    between atoms: N_11  and  S_13
REMARK    5  A    between atoms: S_13  and  C_16
REMARK    6  A    between atoms: C_19  and  C_22
REMARK                            x       y       z     vdW  Elec       q    Type
REMARK                         _______ _______ _______ _____ _____    ______ ____
ROOT
ATOM      1  C   UNL     1       1.946  -3.516  -3.602  0.00  0.00    +0.096 A 
ATOM      2  C   UNL     1       0.539  -3.538  -3.600  0.00  0.00    +0.075 A 
ATOM      3  C   UNL     1       0.119  -3.174  -2.359  0.00  0.00    +0.140 A 
ATOM      4  N   UNL     1       1.223  -2.922  -1.608  0.00  0.00    -0.115 N 
ATOM      5  N   UNL     1       2.352  -3.146  -2.406  0.00  0.00    -0.148 NA
ENDROOT
BRANCH   1  10
ATOM      6  C   UNL     1       5.340  -4.821  -8.069  0.00  0.00    +0.044 C 
ATOM      7  C   UNL     1       4.452  -4.479  -6.900  0.00  0.00    -0.050 A 
ATOM      8  C   UNL     1       5.015  -4.103  -5.694  0.00  0.00    +0.004 A 
ATOM      9  C   UNL     1       4.206  -3.789  -4.621  0.00  0.00    +0.010 A 
ATOM     10  C   UNL     1       2.821  -3.852  -4.753  0.00  0.00    +0.002 A 
ATOM     11  C   UNL     1       2.259  -4.237  -5.969  0.00  0.00    +0.010 A 
ATOM     12  C   UNL     1       3.077  -4.544  -7.037  0.00  0.00    +0.004 A 
ENDBRANCH   1  10
BRANCH   4  13
ATOM     13  S   UNL     1       1.232  -2.441  -0.023  0.00  0.00    +0.100 S 
ATOM     14  O   UNL     1       2.489  -2.833   0.513  0.00  0.00    -0.146 OA
ATOM     15  O   UNL     1      -0.002  -2.867   0.538  0.00  0.00    -0.146 OA
BRANCH  13  16
ATOM     16  C   UNL     1       1.208  -0.679  -0.014  0.00  0.00    +0.113 A 
ATOM     17  C   UNL     1       0.002  -0.004   0.002  0.00  0.00    +0.029 A 
ATOM     18  C   UNL     1      -0.017   1.378   0.010  0.00  0.00    +0.006 A 
ATOM     19  C   UNL     1       1.171   2.086   0.002  0.00  0.00    -0.044 A 
ATOM     20  C   UNL     1       2.377   1.411  -0.014  0.00  0.00    +0.006 A 
ATOM     21  C   UNL     1       2.396   0.029  -0.021  0.00  0.00    +0.029 A 
BRANCH  19  22
ATOM     22  C   UNL     1       1.151   3.592   0.010  0.00  0.00    +0.019 C 
ATOM     23  C   UNL     1       1.853   4.119  -1.243  0.00  0.00    +0.008 C 
ATOM     24  C   UNL     1       1.832   5.648  -1.235  0.00  0.00    +0.001 C 
ATOM     25  C   UNL     1       2.558   6.162   0.010  0.00  0.00    +0.000 C 
ATOM     26  C   UNL     1       1.856   5.636   1.263  0.00  0.00    +0.001 C 
ATOM     27  C   UNL     1       1.876   4.106   1.255  0.00  0.00    +0.008 C 
ENDBRANCH  19  22
ENDBRANCH  13  16
ENDBRANCH   4  13
BRANCH   3  28
ATOM     28  N   UNL     1      -1.203  -3.074  -1.935  0.00  0.00    -0.342 N 
ATOM     29  H   UNL     1      -1.401  -2.802  -1.026  0.00  0.00    +0.144 HD
ATOM     30  H   UNL     1      -1.926  -3.276  -2.550  0.00  0.00    +0.144 HD
ENDBRANCH   3  28
TORSDOF 5
