REMARK  Name = ZINC40569229
REMARK  9 active torsions:
REMARK  status: ('A' for Active; 'I' for Inactive)
REMARK    1  A    between atoms: C_1  and  C_2
REMARK    2  A    between atoms: C_2  and  C_3
REMARK    3  A    between atoms: C_3  and  C_4
REMARK    4  A    between atoms: N_10  and  C_11
REMARK    5  A    between atoms: C_11  and  C_12
REMARK    6  A    between atoms: C_12  and  O_13
REMARK    7  A    between atoms: C_14  and  C_22
REMARK    8  A    between atoms: C_16  and  C_20
REMARK    9  A    between atoms: C_17  and  N_19
REMARK                            x       y       z     vdW  Elec       q    Type
REMARK                         _______ _______ _______ _____ _____    ______ ____
ROOT
ATOM      1  C   UNL     1       0.569  -1.801  -1.214  0.00  0.00    +0.026 A 
ATOM      2  C   UNL     1      -0.431  -2.271  -1.990  0.00  0.00    +0.068 A 
ATOM      3  C   UNL     1      -0.526  -3.653  -2.251  0.00  0.00    +0.141 A 
ATOM      4  C   UNL     1       0.413  -4.502  -1.702  0.00  0.00    +0.072 A 
ATOM      5  C   UNL     1       1.433  -3.969  -0.904  0.00  0.00    +0.259 A 
ATOM      6  O   UNL     1       2.272  -4.708  -0.413  0.00  0.00    -0.267 OA
ATOM      7  N   UNL     1       1.494  -2.643  -0.683  0.00  0.00    -0.310 N 
ATOM      8  C   UNL     1       0.349  -5.983  -1.953  0.00  0.00    +0.103 C 
ATOM      9  C   UNL     1      -0.551  -6.273  -3.122  0.00  0.00    +0.098 C 
ATOM     10  C   UNL     1      -1.422  -5.345  -3.584  0.00  0.00    +0.199 C 
ATOM     11  O   UNL     1      -1.525  -4.126  -3.026  0.00  0.00    -0.441 OA
ENDROOT
BRANCH   8  12
ATOM     12  C   UNL     1      -0.191  -6.674  -0.727  0.00  0.00    -0.034 A 
ATOM     13  C   UNL     1      -1.454  -6.363  -0.258  0.00  0.00    +0.006 A 
ATOM     14  C   UNL     1      -1.949  -6.996   0.866  0.00  0.00    +0.020 A 
ATOM     15  C   UNL     1      -1.181  -7.942   1.522  0.00  0.00    +0.041 A 
ATOM     16  C   UNL     1       0.082  -8.253   1.053  0.00  0.00    +0.020 A 
ATOM     17  C   UNL     1       0.575  -7.623  -0.075  0.00  0.00    +0.006 A 
ATOM     18 CL   UNL     1      -1.803  -8.737   2.935  0.00  0.00    -0.084 Cl
ENDBRANCH   8  12
BRANCH  10  19
ATOM     19  N   UNL     1      -2.223  -5.657  -4.654  0.00  0.00    -0.328 N 
ATOM     20  H   UNL     1      -2.160  -6.533  -5.067  0.00  0.00    +0.145 HD
ATOM     21  H   UNL     1      -2.851  -5.003  -4.997  0.00  0.00    +0.145 HD
ENDBRANCH  10  19
BRANCH   9  22
ATOM     22  C   UNL     1      -0.486  -7.554  -3.758  0.00  0.00    +0.101 C 
ATOM     23  N   UNL     1      -0.435  -8.570  -4.263  0.00  0.00    -0.191 NA
ENDBRANCH   9  22
BRANCH   1  24
ATOM     24  C   UNL     1       0.665  -0.322  -0.940  0.00  0.00    +0.053 C 
BRANCH  24  26
ATOM     25  C   UNL     1       1.557   1.852  -1.786  0.00  0.00    +0.004 C 
ATOM     26  C   UNL     1       1.548   0.337  -2.000  0.00  0.00    +0.003 C 
ENDBRANCH  24  26
ENDBRANCH   1  24
BRANCH   7  27
ATOM     27  C   UNL     1       2.570  -2.099   0.149  0.00  0.00    +0.153 C 
BRANCH  27  28
ATOM     28  C   UNL     1       2.093  -2.002   1.600  0.00  0.00    +0.177 C 
BRANCH  28  29
ATOM     29  O   UNL     1       1.853  -3.315   2.111  0.00  0.00    -0.393 OA
ATOM     30  H   UNL     1       1.547  -3.331   3.028  0.00  0.00    +0.209 HD
ENDBRANCH  28  29
ENDBRANCH  27  28
ENDBRANCH   7  27
TORSDOF 8
