REMARK  Name = ZINC14920056
REMARK  6 active torsions:
REMARK  status: ('A' for Active; 'I' for Inactive)
REMARK    1  A    between atoms: C_1  and  C_2
REMARK    2  A    between atoms: C_3  and  C_12
REMARK    3  A    between atoms: N_13  and  N_14
REMARK    4  A    between atoms: C_15  and  C_17
REMARK    5  A    between atoms: C_17  and  O_18
REMARK    6  A    between atoms: O_18  and  C_19
REMARK                            x       y       z     vdW  Elec       q    Type
REMARK                         _______ _______ _______ _____ _____    ______ ____
ROOT
ATOM      1  N   UNL     1       3.753   5.186  -0.005  0.00  0.00    -0.204 N 
ATOM      2  C   UNL     1       5.090   5.014  -0.019  0.00  0.00    +0.270 C 
ATOM      3  O   UNL     1       5.558   3.894  -0.030  0.00  0.00    -0.270 OA
ATOM      4  H   UNL     1       3.380   6.081   0.004  0.00  0.00    +0.177 HD
ENDROOT
BRANCH   1   6
ATOM      5  C   UNL     1       1.615   4.238   0.010  0.00  0.00    +0.140 C 
ATOM      6  N   UNL     1       2.904   4.072  -0.003  0.00  0.00    -0.188 NA
BRANCH   5   9
ATOM      7  C   UNL     1       2.519   1.264  -0.015  0.00  0.00    +0.064 C 
ATOM      8  C   UNL     1       1.096   1.760   0.001  0.00  0.00    +0.023 A 
ATOM      9  C   UNL     1       0.723   3.068   0.012  0.00  0.00    +0.023 A 
ATOM     10  C   UNL     1      -0.751   3.084   0.026  0.00  0.00    +0.009 A 
ATOM     11  C   UNL     1      -1.706   4.098   0.040  0.00  0.00    +0.010 A 
ATOM     12  C   UNL     1      -3.045   3.774   0.036  0.00  0.00    +0.001 A 
ATOM     13  C   UNL     1      -3.444   2.444   0.030  0.00  0.00    +0.002 A 
ATOM     14  C   UNL     1      -2.510   1.432   0.021  0.00  0.00    +0.026 A 
ATOM     15  C   UNL     1      -1.153   1.738   0.016  0.00  0.00    +0.047 A 
ATOM     16  N   UNL     1      -0.011   0.966   0.007  0.00  0.00    -0.358 N 
ATOM     17  H   UNL     1       0.002  -0.004   0.002  0.00  0.00    +0.166 HD
ENDBRANCH   5   9
ENDBRANCH   1   6
BRANCH   2  18
ATOM     18  C   UNL     1       6.004   6.212  -0.021  0.00  0.00    +0.326 C 
BRANCH  18  19
ATOM     19  O   UNL     1       7.364   5.774  -0.036  0.00  0.00    -0.482 OA
BRANCH  19  20
ATOM     20  C   UNL     1       8.323   6.737  -0.040  0.00  0.00    +0.135 A 
ATOM     21  C   UNL     1       7.962   8.076  -0.029  0.00  0.00    +0.048 A 
ATOM     22  C   UNL     1       8.938   9.054  -0.033  0.00  0.00    +0.023 A 
ATOM     23  C   UNL     1      10.275   8.698  -0.047  0.00  0.00    +0.042 A 
ATOM     24  C   UNL     1      10.638   7.363  -0.058  0.00  0.00    +0.039 A 
ATOM     25  C   UNL     1       9.665   6.382  -0.049  0.00  0.00    +0.061 A 
ATOM     26 BR   UNL     1      10.161   4.557  -0.056  0.00  0.00    -0.046 Br
ATOM     27 CL   UNL     1      11.500   9.929  -0.051  0.00  0.00    -0.084 Cl
ENDBRANCH  19  20
ENDBRANCH  18  19
ENDBRANCH   2  18
TORSDOF 5
