REMARK  Name = ZINC04702478
REMARK  7 active torsions:
REMARK  status: ('A' for Active; 'I' for Inactive)
REMARK    1  A    between atoms: C_1  and  C_2
REMARK    2  A    between atoms: C_4  and  O_22
REMARK    3  A    between atoms: C_5  and  C_21
REMARK    4  A    between atoms: C_6  and  O_20
REMARK    5  A    between atoms: C_7  and  C_8
REMARK    6  A    between atoms: N_9  and  N_10
REMARK    7  A    between atoms: C_11  and  C_13
REMARK                            x       y       z     vdW  Elec       q    Type
REMARK                         _______ _______ _______ _____ _____    ______ ____
ROOT
ATOM      1  C   UNL     1       0.018  -0.030   2.465  0.00  0.00    +0.142 C 
ATOM      2  N   UNL     1       0.986  -0.186   3.316  0.00  0.00    -0.187 NA
ENDROOT
BRANCH   1   9
ATOM      3  C   UNL     1      -0.128   1.382  -0.053  0.00  0.00    +0.044 C 
ATOM      4  C   UNL     1      -0.056  -0.123  -0.019  0.00  0.00    -0.035 A 
ATOM      5  C   UNL     1      -0.053  -0.839  -1.196  0.00  0.00    +0.050 A 
ATOM      6  C   UNL     1       0.013  -2.227  -1.170  0.00  0.00    +0.124 A 
ATOM      7  C   UNL     1       0.078  -2.901   0.041  0.00  0.00    +0.033 A 
ATOM      8  C   UNL     1       0.076  -2.193   1.229  0.00  0.00    +0.132 A 
ATOM      9  C   UNL     1       0.015  -0.792   1.205  0.00  0.00    +0.039 A 
ATOM     10  C   UNL     1       0.148  -4.407   0.061  0.00  0.00    +0.051 C 
BRANCH   8  11
ATOM     11  O   UNL     1       0.139  -2.852   2.415  0.00  0.00    -0.506 OA
ATOM     12  H   UNL     1       1.037  -3.072   2.696  0.00  0.00    +0.292 HD
ENDBRANCH   8  11
BRANCH   6  13
ATOM     13  O   UNL     1       0.015  -2.926  -2.335  0.00  0.00    -0.506 OA
ATOM     14  H   UNL     1       0.897  -3.087  -2.696  0.00  0.00    +0.292 HD
ENDBRANCH   6  13
ENDBRANCH   1   9
BRANCH   2  15
ATOM     15  N   UNL     1       2.095  -0.972   2.978  0.00  0.00    -0.203 N 
ATOM     16  C   UNL     1       3.142  -1.059   3.822  0.00  0.00    +0.263 C 
ATOM     17  O   UNL     1       3.087  -0.530   4.916  0.00  0.00    -0.268 OA
ATOM     18  H   UNL     1       2.110  -1.455   2.137  0.00  0.00    +0.178 HD
BRANCH  16  19
ATOM     19  C   UNL     1       4.358  -1.796   3.419  0.00  0.00    +0.038 A 
ATOM     20  C   UNL     1       4.471  -2.307   2.125  0.00  0.00    +0.014 A 
ATOM     21  C   UNL     1       5.608  -2.994   1.754  0.00  0.00    +0.015 A 
ATOM     22  C   UNL     1       6.636  -3.178   2.663  0.00  0.00    +0.013 A 
ATOM     23  C   UNL     1       6.530  -2.674   3.948  0.00  0.00    +0.015 A 
ATOM     24  C   UNL     1       5.401  -1.980   4.329  0.00  0.00    +0.014 A 
ATOM     25  I   UNL     1       8.358  -4.224   2.092  0.00  0.00    -0.044 I 
ENDBRANCH  16  19
ENDBRANCH   2  15
TORSDOF 5
