REMARK  Name = ZINC02399323
REMARK  8 active torsions:
REMARK  status: ('A' for Active; 'I' for Inactive)
REMARK    1  A    between atoms: C_4  and  C_7
REMARK    2  A    between atoms: C_7  and  C_8
REMARK    3  A    between atoms: C_8  and  C_9
REMARK    4  A    between atoms: C_9  and  N_10
REMARK    5  A    between atoms: C_11  and  C_13
REMARK    6  A    between atoms: N_24  and  N_27
REMARK    7  A    between atoms: C_25  and  N_26
REMARK    8  A    between atoms: C_28  and  C_29
REMARK                            x       y       z     vdW  Elec       q    Type
REMARK                         _______ _______ _______ _____ _____    ______ ____
ROOT
ATOM      1  C   UNL     1       3.260   8.235   0.795  0.00  0.00    +0.105 A 
ATOM      2  C   UNL     1       3.282   8.289  -0.676  0.00  0.00    +0.124 A 
ATOM      3  C   UNL     1       2.431   7.180  -1.119  0.00  0.00    +0.183 A 
ATOM      4  N   UNL     1       2.256   6.973  -2.407  0.00  0.00    -0.224 NA
ATOM      5  C   UNL     1       2.855   7.773  -3.298  0.00  0.00    +0.092 A 
ATOM      6  C   UNL     1       2.674   7.559  -4.677  0.00  0.00    +0.030 A 
ATOM      7  C   UNL     1       3.286   8.377  -5.576  0.00  0.00    +0.002 A 
ATOM      8  C   UNL     1       4.095   9.430  -5.152  0.00  0.00    +0.002 A 
ATOM      9  C   UNL     1       4.294   9.668  -3.828  0.00  0.00    +0.030 A 
ATOM     10  C   UNL     1       3.678   8.844  -2.868  0.00  0.00    +0.090 A 
ATOM     11  N   UNL     1       3.867   9.070  -1.562  0.00  0.00    -0.241 NA
ATOM     12  N   UNL     1       1.965   6.550   0.018  0.00  0.00    -0.198 N 
ATOM     13  C   UNL     1       2.441   7.163   1.138  0.00  0.00    +0.134 A 
ENDROOT
BRANCH   1  15
ATOM     14  N   UNL     1       5.185   8.812   2.098  0.00  0.00    -0.311 N 
ATOM     15  C   UNL     1       3.936   9.106   1.687  0.00  0.00    +0.250 C 
ATOM     16  O   UNL     1       3.387  10.119   2.080  0.00  0.00    -0.270 OA
ATOM     17  H   UNL     1       5.622   8.005   1.785  0.00  0.00    +0.149 HD
BRANCH  14  18
ATOM     18  C   UNL     1       5.883   9.712   3.020  0.00  0.00    +0.105 C 
BRANCH  18  19
ATOM     19  C   UNL     1       7.273   9.151   3.325  0.00  0.00    +0.023 C 
BRANCH  19  20
ATOM     20  C   UNL     1       8.002  10.091   4.288  0.00  0.00    +0.036 C 
BRANCH  20  24
ATOM     21  C   UNL     1      11.883   8.524   5.142  0.00  0.00    +0.000 A 
ATOM     22  C   UNL     1      11.704   9.382   4.073  0.00  0.00    +0.000 A 
ATOM     23  C   UNL     1      10.448   9.889   3.796  0.00  0.00    +0.003 A 
ATOM     24  C   UNL     1       9.371   9.538   4.589  0.00  0.00    -0.047 A 
ATOM     25  C   UNL     1       9.552   8.684   5.661  0.00  0.00    +0.003 A 
ATOM     26  C   UNL     1      10.807   8.173   5.935  0.00  0.00    +0.000 A 
ENDBRANCH  20  24
ENDBRANCH  19  20
ENDBRANCH  18  19
ENDBRANCH  14  18
ENDBRANCH   1  15
BRANCH  13  27
ATOM     27  N   UNL     1       2.155   6.776   2.423  0.00  0.00    -0.342 N 
ATOM     28  H   UNL     1       1.576   6.015   2.583  0.00  0.00    +0.144 HD
ATOM     29  H   UNL     1       2.532   7.264   3.171  0.00  0.00    +0.144 HD
ENDBRANCH  13  27
BRANCH  12  30
ATOM     30  N   UNL     1       1.115   5.437   0.020  0.00  0.00    -0.171 NA
ATOM     31  C   UNL     1       1.615   4.238   0.009  0.00  0.00    +0.143 C 
BRANCH  31  32
ATOM     32  C   UNL     1       0.723   3.068   0.011  0.00  0.00    +0.020 A 
ATOM     33  C   UNL     1       1.096   1.760   0.001  0.00  0.00    +0.093 A 
ATOM     34  N   UNL     1      -0.011   0.966   0.007  0.00  0.00    -0.360 N 
ATOM     35  H   UNL     1       0.002  -0.004   0.002  0.00  0.00    +0.165 HD
ATOM     36  C   UNL     1      -1.153   1.738   0.016  0.00  0.00    +0.047 A 
ATOM     37  C   UNL     1      -0.751   3.084   0.025  0.00  0.00    +0.008 A 
ATOM     38  C   UNL     1      -1.706   4.098   0.039  0.00  0.00    +0.010 A 
ATOM     39  C   UNL     1      -3.045   3.774   0.049  0.00  0.00    +0.001 A 
ATOM     40  C   UNL     1      -3.444   2.445   0.046  0.00  0.00    +0.002 A 
ATOM     41  C   UNL     1      -2.510   1.432   0.033  0.00  0.00    +0.026 A 
ENDBRANCH  31  32
ENDBRANCH  12  30
TORSDOF 8
