REMARK  Name = ZINC57988590
REMARK  11 active torsions:
REMARK  status: ('A' for Active; 'I' for Inactive)
REMARK    1  A    between atoms: C_1  and  O_2
REMARK    2  A    between atoms: O_2  and  C_3
REMARK    3  A    between atoms: C_6  and  C_9
REMARK    4  A    between atoms: C_9  and  C_11
REMARK    5  A    between atoms: C_9  and  C_22
REMARK    6  A    between atoms: C_11  and  C_12
REMARK    7  A    between atoms: C_14  and  N_21
REMARK    8  A    between atoms: C_15  and  O_20
REMARK    9  A    between atoms: C_16  and  O_18
REMARK   10  A    between atoms: O_18  and  C_19
REMARK   11  A    between atoms: C_22  and  N_23
REMARK                            x       y       z     vdW  Elec       q    Type
REMARK                         _______ _______ _______ _____ _____    ______ ____
ROOT
ATOM      1  C   UNL     1      -5.204  -2.554   0.013  0.00  0.00    +0.006 C 
ENDROOT
BRANCH   1   5
ATOM      2  C   UNL     1      -1.432  -0.663  -0.669  0.00  0.00    +0.120 A 
ATOM      3  C   UNL     1      -2.575   0.106  -0.502  0.00  0.00    +0.046 A 
ATOM      4  C   UNL     1      -3.793  -0.508  -0.282  0.00  0.00    +0.007 A 
ATOM      5  C   UNL     1      -3.874  -1.887  -0.227  0.00  0.00    -0.046 A 
ATOM      6  C   UNL     1      -2.736  -2.655  -0.393  0.00  0.00    +0.007 A 
ATOM      7  C   UNL     1      -1.517  -2.047  -0.620  0.00  0.00    +0.046 A 
BRANCH   2   9
ATOM      8  C   UNL     1      -0.221   1.367  -0.924  0.00  0.00    +0.277 C 
ATOM      9  O   UNL     1      -0.233  -0.062  -0.886  0.00  0.00    -0.495 OA
ENDBRANCH   2   9
ENDBRANCH   1   5
BRANCH   1  10
ATOM     10  C   UNL     1      -5.131  -3.389   1.293  0.00  0.00    +0.041 C 
BRANCH  10  11
ATOM     11  C   UNL     1      -4.930  -2.478   2.477  0.00  0.00    -0.041 A 
ATOM     12  C   UNL     1      -3.656  -2.251   2.962  0.00  0.00    +0.030 A 
ATOM     13  C   UNL     1      -3.466  -1.413   4.053  0.00  0.00    +0.071 A 
ATOM     14  C   UNL     1      -4.561  -0.802   4.656  0.00  0.00    +0.180 A 
ATOM     15  C   UNL     1      -5.840  -1.034   4.163  0.00  0.00    +0.163 A 
ATOM     16  C   UNL     1      -6.019  -1.869   3.070  0.00  0.00    +0.053 A 
BRANCH  13  17
ATOM     17  N   UNL     1      -2.176  -1.183   4.545  0.00  0.00    -0.355 N 
ATOM     18  H   UNL     1      -1.414  -1.610   4.123  0.00  0.00    +0.142 HD
ATOM     19  H   UNL     1      -2.045  -0.597   5.306  0.00  0.00    +0.142 HD
ENDBRANCH  13  17
BRANCH  15  20
ATOM     20  O   UNL     1      -6.913  -0.440   4.750  0.00  0.00    -0.491 OA
ATOM     21  C   UNL     1      -8.197  -0.724   4.191  0.00  0.00    +0.277 C 
ENDBRANCH  15  20
BRANCH  14  22
ATOM     22  O   UNL     1      -4.381   0.020   5.725  0.00  0.00    -0.502 OA
ATOM     23  H   UNL     1      -4.244   0.948   5.489  0.00  0.00    +0.292 HD
ENDBRANCH  14  22
ENDBRANCH  10  11
ENDBRANCH   1  10
BRANCH   1  24
ATOM     24  C   UNL     1      -5.540  -3.462  -1.171  0.00  0.00    -0.078 C 
BRANCH  24  25
ATOM     25  N   UNL     1      -6.877  -4.042  -0.979  0.00  0.00    +0.379 N 
ATOM     26  H   UNL     1      -6.858  -4.676  -0.194  0.00  0.00    -0.090 HD
ATOM     27  H   UNL     1      -7.541  -3.304  -0.800  0.00  0.00    -0.090 HD
ATOM     28  H   UNL     1      -7.148  -4.544  -1.810  0.00  0.00    -0.090 HD
ENDBRANCH  24  25
ENDBRANCH   1  24
TORSDOF 9
