REMARK  Name = ZINC37000612
REMARK  9 active torsions:
REMARK  status: ('A' for Active; 'I' for Inactive)
REMARK    1  A    between atoms: C_1  and  C_2
REMARK    2  A    between atoms: C_2  and  C_4
REMARK    3  A    between atoms: C_2  and  N_12
REMARK    4  A    between atoms: C_4  and  C_5
REMARK    5  A    between atoms: N_12  and  C_13
REMARK    6  A    between atoms: C_13  and  C_15
REMARK    7  A    between atoms: C_13  and  C_16
REMARK    8  A    between atoms: C_19  and  O_23
REMARK    9  A    between atoms: C_21  and  O_22
REMARK                            x       y       z     vdW  Elec       q    Type
REMARK                         _______ _______ _______ _____ _____    ______ ____
ROOT
ATOM      1  N   UNL     1      -1.536  -0.547   0.203  0.00  0.00    -0.307 NA
ATOM      2  H   UNL     1      -1.587  -1.428   0.694  0.00  0.00    +0.123 HD
ENDROOT
BRANCH   1   4
ATOM      3  C   UNL     1      -0.222   1.425   0.822  0.00  0.00    +0.024 C 
ATOM      4  C   UNL     1      -0.175   0.005   0.255  0.00  0.00    +0.055 C 
BRANCH   4   5
ATOM      5  C   UNL     1       0.698  -0.874   1.152  0.00  0.00    +0.053 C 
BRANCH   5   6
ATOM      6  C   UNL     1       0.845  -2.239   0.530  0.00  0.00    -0.046 A 
ATOM      7  C   UNL     1      -0.067  -3.235   0.826  0.00  0.00    +0.005 A 
ATOM      8  C   UNL     1       0.067  -4.486   0.255  0.00  0.00    +0.015 A 
ATOM      9  C   UNL     1       1.113  -4.742  -0.613  0.00  0.00    +0.018 A 
ATOM     10  C   UNL     1       2.026  -3.745  -0.908  0.00  0.00    +0.015 A 
ATOM     11  C   UNL     1       1.888  -2.492  -0.341  0.00  0.00    +0.005 A 
ATOM     12 BR   UNL     1       1.297  -6.454  -1.394  0.00  0.00    -0.050 Br
ENDBRANCH   5   6
ENDBRANCH   4   5
ENDBRANCH   1   4
BRANCH   1  13
ATOM     13  C   UNL     1      -1.994  -0.690  -1.185  0.00  0.00    +0.085 C 
ATOM     14  C   UNL     1      -2.490   0.663  -1.700  0.00  0.00    +0.029 C 
BRANCH  13  15
ATOM     15  C   UNL     1      -3.118  -1.692  -1.243  0.00  0.00    +0.011 A 
ATOM     16  C   UNL     1      -3.898  -1.919  -0.125  0.00  0.00    +0.012 A 
ATOM     17  C   UNL     1      -4.929  -2.838  -0.175  0.00  0.00    +0.046 A 
ATOM     18  C   UNL     1      -5.183  -3.535  -1.348  0.00  0.00    +0.120 A 
ATOM     19  C   UNL     1      -4.401  -3.309  -2.470  0.00  0.00    +0.091 A 
ATOM     20  C   UNL     1      -3.371  -2.383  -2.419  0.00  0.00    +0.125 A 
BRANCH  20  21
ATOM     21  O   UNL     1      -2.606  -2.155  -3.519  0.00  0.00    -0.506 OA
ATOM     22  H   UNL     1      -1.829  -2.726  -3.584  0.00  0.00    +0.292 HD
ENDBRANCH  20  21
BRANCH  18  23
ATOM     23  O   UNL     1      -6.197  -4.439  -1.396  0.00  0.00    -0.507 OA
ATOM     24  H   UNL     1      -7.045  -4.064  -1.668  0.00  0.00    +0.292 HD
ENDBRANCH  18  23
ENDBRANCH  13  15
ENDBRANCH   1  13
TORSDOF 7
