REMARK  Name = ZINC28121181
REMARK  13 active torsions:
REMARK  status: ('A' for Active; 'I' for Inactive)
REMARK    1  A    between atoms: C_1  and  C_2
REMARK    2  A    between atoms: C_2  and  C_3
REMARK    3  A    between atoms: C_2  and  C_4
REMARK    4  A    between atoms: C_5  and  C_24
REMARK    5  A    between atoms: C_11  and  O_23
REMARK    6  A    between atoms: C_12  and  C_15
REMARK    7  A    between atoms: C_15  and  N_16
REMARK    8  A    between atoms: N_16  and  C_17
REMARK    9  A    between atoms: N_16  and  C_20
REMARK   10  A    between atoms: C_17  and  C_18
REMARK   11  A    between atoms: C_18  and  O_19
REMARK   12  A    between atoms: C_20  and  C_21
REMARK   13  A    between atoms: C_21  and  O_22
REMARK                            x       y       z     vdW  Elec       q    Type
REMARK                         _______ _______ _______ _____ _____    ______ ____
ROOT
ATOM      1  C   UNL     1      -3.115   2.726   0.761  0.00  0.00    +0.122 A 
ATOM      2  C   UNL     1      -2.958   4.066   0.575  0.00  0.00    +0.093 A 
ATOM      3  C   UNL     1      -1.593   4.606   0.441  0.00  0.00    +0.202 A 
ATOM      4  O   UNL     1      -1.389   5.796   0.273  0.00  0.00    -0.286 OA
ATOM      5  C   UNL     1      -0.485   3.636   0.519  0.00  0.00    +0.065 A 
ATOM      6  C   UNL     1       0.844   4.045   0.404  0.00  0.00    +0.019 A 
ATOM      7  C   UNL     1       1.847   3.121   0.482  0.00  0.00    +0.046 A 
ATOM      8  C   UNL     1       1.548   1.774   0.676  0.00  0.00    +0.122 A 
ATOM      9  C   UNL     1       0.234   1.353   0.792  0.00  0.00    +0.020 A 
ATOM     10  C   UNL     1      -0.797   2.279   0.710  0.00  0.00    +0.144 A 
ATOM     11  O   UNL     1      -2.081   1.885   0.826  0.00  0.00    -0.458 OA
ENDROOT
BRANCH   2  12
ATOM     12  C   UNL     1      -4.131   4.959   0.510  0.00  0.00    +0.116 A 
ATOM     13  N   UNL     1      -5.408   4.653   0.599  0.00  0.00    -0.239 NA
ATOM     14  C   UNL     1      -6.382   5.583   0.526  0.00  0.00    +0.079 A 
ATOM     15  C   UNL     1      -7.782   5.391   0.611  0.00  0.00    +0.029 A 
ATOM     16  C   UNL     1      -8.637   6.443   0.511  0.00  0.00    +0.002 A 
ATOM     17  C   UNL     1      -8.178   7.739   0.324  0.00  0.00    +0.001 A 
ATOM     18  C   UNL     1      -6.818   7.971   0.236  0.00  0.00    +0.017 A 
ATOM     19  C   UNL     1      -5.946   6.915   0.335  0.00  0.00    +0.040 A 
ATOM     20  S   UNL     1      -4.179   6.732   0.283  0.00  0.00    -0.067 S 
ENDBRANCH   2  12
BRANCH   1  22
ATOM     21  C   UNL     1      -5.076   1.867  -0.490  0.00  0.00    +0.015 C 
ATOM     22  C   UNL     1      -4.510   2.171   0.898  0.00  0.00    +0.050 C 
ATOM     23  C   UNL     1      -4.468   0.885   1.726  0.00  0.00    +0.015 C 
ENDBRANCH   1  22
BRANCH   8  24
ATOM     24  O   UNL     1       2.554   0.866   0.751  0.00  0.00    -0.506 OA
ATOM     25  H   UNL     1       2.324  -0.199   0.904  0.00  0.00    +0.292 HD
ENDBRANCH   8  24
BRANCH   9  26
ATOM     26  C   UNL     1      -0.075  -0.107   1.001  0.00  0.00    -0.035 C 
BRANCH  26  27
ATOM     27  N   UNL     1      -0.113  -0.398   2.441  0.00  0.00    +0.385 N 
ATOM     28  H   UNL     1       0.819  -0.021   2.886  0.00  0.00    -0.081 HD
BRANCH  27  29
ATOM     29  C   UNL     1      -1.236   0.294   3.088  0.00  0.00    -0.050 C 
BRANCH  29  30
ATOM     30  C   UNL     1      -1.033   0.285   4.605  0.00  0.00    +0.137 C 
BRANCH  30  31
ATOM     31  O   UNL     1       0.134   1.041   4.934  0.00  0.00    -0.397 OA
ATOM     32  H   UNL     1       0.442   1.149   5.984  0.00  0.00    +0.209 HD
ENDBRANCH  30  31
ENDBRANCH  29  30
ENDBRANCH  27  29
BRANCH  27  33
ATOM     33  C   UNL     1      -0.176  -1.845   2.683  0.00  0.00    -0.050 C 
BRANCH  33  34
ATOM     34  C   UNL     1       1.194  -2.468   2.412  0.00  0.00    +0.137 C 
BRANCH  34  35
ATOM     35  O   UNL     1       2.139  -1.975   3.363  0.00  0.00    -0.397 OA
ATOM     36  H   UNL     1       3.185  -2.312   3.326  0.00  0.00    +0.209 HD
ENDBRANCH  34  35
ENDBRANCH  33  34
ENDBRANCH  27  33
ENDBRANCH  26  27
ENDBRANCH   9  26
TORSDOF 11
