REMARK  Name = ZINC09292638
REMARK  8 active torsions:
REMARK  status: ('A' for Active; 'I' for Inactive)
REMARK    1  A    between atoms: C_4  and  C_7
REMARK    2  A    between atoms: C_7  and  O_8
REMARK    3  A    between atoms: O_8  and  C_9
REMARK    4  A    between atoms: C_12  and  C_15
REMARK    5  A    between atoms: C_22  and  N_38
REMARK    6  A    between atoms: C_23  and  C_36
REMARK    7  A    between atoms: C_24  and  C_26
REMARK    8  A    between atoms: C_31  and  C_32
REMARK                            x       y       z     vdW  Elec       q    Type
REMARK                         _______ _______ _______ _____ _____    ______ ____
ROOT
ATOM      1  C   UNL     1       8.711  -4.316   2.074  0.00  0.00    +0.100 A 
ATOM      2  C   UNL     1       9.730  -3.789   2.873  0.00  0.00    +0.054 A 
ATOM      3  C   UNL     1      10.821  -4.601   2.755  0.00  0.00    +0.223 A 
ATOM      4  N   UNL     1      10.498  -5.603   1.912  0.00  0.00    -0.246 N 
ATOM      5  H   UNL     1      11.080  -6.331   1.642  0.00  0.00    +0.192 HD
ATOM      6  N   UNL     1       9.171  -5.411   1.498  0.00  0.00    -0.171 NA
ATOM      7  O   UNL     1      11.986  -4.361   3.408  0.00  0.00    -0.423 OA
ATOM      8  C   UNL     1      12.147  -3.147   3.973  0.00  0.00    +0.200 C 
ATOM      9  C   UNL     1      11.140  -2.263   4.156  0.00  0.00    +0.098 C 
ATOM     10  C   UNL     1       9.720  -2.558   3.742  0.00  0.00    +0.102 C 
ENDROOT
BRANCH   1  14
ATOM     11  C   UNL     1       4.810  -2.688   1.595  0.00  0.00    +0.121 A 
ATOM     12  C   UNL     1       5.556  -3.039   0.478  0.00  0.00    +0.046 A 
ATOM     13  C   UNL     1       6.821  -3.567   0.630  0.00  0.00    +0.013 A 
ATOM     14  C   UNL     1       7.350  -3.748   1.906  0.00  0.00    +0.003 A 
ATOM     15  C   UNL     1       6.599  -3.394   3.026  0.00  0.00    +0.013 A 
ATOM     16  C   UNL     1       5.336  -2.862   2.867  0.00  0.00    +0.046 A 
BRANCH  11  17
ATOM     17  O   UNL     1       3.564  -2.168   1.442  0.00  0.00    -0.487 OA
BRANCH  17  18
ATOM     18  C   UNL     1       3.084  -2.016   0.104  0.00  0.00    +0.264 C 
BRANCH  18  22
ATOM     19  C   UNL     1      -0.850  -0.353   0.181  0.00  0.00    +0.000 A 
ATOM     20  C   UNL     1       0.252   0.480   0.128  0.00  0.00    +0.000 A 
ATOM     21  C   UNL     1       1.525  -0.058   0.103  0.00  0.00    +0.007 A 
ATOM     22  C   UNL     1       1.696  -1.430   0.132  0.00  0.00    -0.010 A 
ATOM     23  C   UNL     1       0.594  -2.263   0.186  0.00  0.00    +0.007 A 
ATOM     24  C   UNL     1      -0.679  -1.725   0.209  0.00  0.00    +0.000 A 
ENDBRANCH  18  22
ENDBRANCH  17  18
ENDBRANCH  11  17
ENDBRANCH   1  14
BRANCH  10  25
ATOM     25  C   UNL     1       8.875  -2.806   4.965  0.00  0.00    -0.023 A 
ATOM     26  C   UNL     1       9.089  -3.933   5.736  0.00  0.00    +0.005 A 
ATOM     27  C   UNL     1       8.314  -4.160   6.858  0.00  0.00    +0.000 A 
ATOM     28  C   UNL     1       7.325  -3.259   7.209  0.00  0.00    +0.001 A 
ATOM     29  C   UNL     1       7.112  -2.132   6.438  0.00  0.00    +0.012 A 
ATOM     30  C   UNL     1       7.890  -1.903   5.318  0.00  0.00    +0.059 A 
BRANCH  30  31
ATOM     31  C   UNL     1       7.661  -0.671   4.481  0.00  0.00    +0.418 C 
ATOM     32  F   UNL     1       6.547   0.022   4.966  0.00  0.00    -0.166 F 
ATOM     33  F   UNL     1       8.789   0.154   4.547  0.00  0.00    -0.166 F 
ATOM     34  F   UNL     1       7.435  -1.046   3.152  0.00  0.00    -0.166 F 
ENDBRANCH  30  31
ENDBRANCH  10  25
BRANCH   8  35
ATOM     35  N   UNL     1      13.405  -2.788   4.386  0.00  0.00    -0.328 N 
ATOM     36  H   UNL     1      14.148  -3.401   4.269  0.00  0.00    +0.145 HD
ATOM     37  H   UNL     1      13.553  -1.921   4.796  0.00  0.00    +0.145 HD
ENDBRANCH   8  35
BRANCH   9  38
ATOM     38  C   UNL     1      11.433  -1.001   4.765  0.00  0.00    +0.101 C 
ATOM     39  N   UNL     1      11.665   0.001   5.248  0.00  0.00    -0.191 NA
ENDBRANCH   9  38
TORSDOF 8
