REMARK  Name = ZINC50832797
REMARK  5 active torsions:
REMARK  status: ('A' for Active; 'I' for Inactive)
REMARK    1  A    between atoms: C_3  and  O_8
REMARK    2  A    between atoms: O_8  and  C_9
REMARK    3  A    between atoms: C_9  and  C_10
REMARK    4  A    between atoms: C_12  and  N_17
REMARK    5  A    between atoms: C_15  and  N_16
REMARK                            x       y       z     vdW  Elec       q    Type
REMARK                         _______ _______ _______ _____ _____    ______ ____
ROOT
ATOM      1  C   UNL     1       5.940   2.275  -0.043  0.00  0.00    +0.012 A 
ATOM      2  C   UNL     1       5.742   3.642  -0.029  0.00  0.00    +0.041 A 
ATOM      3  C   UNL     1       6.827   4.499  -0.035  0.00  0.00    +0.127 A 
ATOM      4  C   UNL     1       8.113   3.992  -0.056  0.00  0.00    +0.034 A 
ATOM      5  C   UNL     1       8.318   2.626  -0.070  0.00  0.00    +0.025 A 
ATOM      6  C   UNL     1       7.230   1.762  -0.058  0.00  0.00    +0.031 A 
ENDROOT
BRANCH   6   7
ATOM      7  N   UNL     1       7.434   0.380  -0.067  0.00  0.00    -0.358 N 
ATOM      8  H   UNL     1       6.674  -0.222  -0.063  0.00  0.00    +0.142 HD
ATOM      9  H   UNL     1       8.336   0.023  -0.078  0.00  0.00    +0.142 HD
ENDBRANCH   6   7
BRANCH   3  10
ATOM     10  N   UNL     1       6.611   5.964  -0.020  0.00  0.00    +0.056 N 
ATOM     11  O   UNL     1       5.487   6.409  -0.002  0.00  0.00    -0.126 OA
ATOM     12  O   UNL     1       7.559   6.714  -0.025  0.00  0.00    -0.126 OA
ENDBRANCH   3  10
BRANCH   1  13
ATOM     13  C   UNL     1       4.757   1.342  -0.036  0.00  0.00    +0.266 C 
BRANCH  13  14
ATOM     14  O   UNL     1       3.548   2.104  -0.021  0.00  0.00    -0.487 OA
BRANCH  14  17
ATOM     15  C   UNL     1      -0.017   1.378   0.010  0.00  0.00    +0.005 A 
ATOM     16  C   UNL     1       1.170   2.087   0.002  0.00  0.00    +0.046 A 
ATOM     17  C   UNL     1       2.380   1.410  -0.013  0.00  0.00    +0.122 A 
ATOM     18  C   UNL     1       2.397   0.022  -0.021  0.00  0.00    +0.060 A 
ATOM     19  C   UNL     1       1.208  -0.682  -0.013  0.00  0.00    +0.017 A 
ATOM     20  C   UNL     1       0.002  -0.004   0.002  0.00  0.00    +0.014 A 
ATOM     21  I   UNL     1       1.232  -2.776  -0.025  0.00  0.00    -0.044 I 
ENDBRANCH  14  17
ENDBRANCH  13  14
ENDBRANCH   1  13
TORSDOF 5
