REMARK  Name = ZINC05255528
REMARK  8 active torsions:
REMARK  status: ('A' for Active; 'I' for Inactive)
REMARK    1  A    between atoms: C_1  and  C_2
REMARK    2  A    between atoms: C_2  and  C_3
REMARK    3  A    between atoms: C_2  and  N_4
REMARK    4  A    between atoms: C_5  and  C_7
REMARK    5  A    between atoms: C_7  and  S_8
REMARK    6  A    between atoms: S_8  and  C_9
REMARK    7  A    between atoms: C_12  and  C_20
REMARK    8  A    between atoms: C_13  and  C_15
REMARK                            x       y       z     vdW  Elec       q    Type
REMARK                         _______ _______ _______ _____ _____    ______ ____
ROOT
ATOM      1  C   UNL     1      -1.394   7.235  -0.408  0.00  0.00    +0.168 A 
ATOM      2  N   UNL     1      -0.632   6.156  -0.745  0.00  0.00    -0.332 N 
ATOM      3  H   UNL     1       0.097   6.135  -1.429  0.00  0.00    +0.168 HD
ATOM      4  C   UNL     1      -1.057   5.095   0.037  0.00  0.00    +0.082 A 
ATOM      5  C   UNL     1      -2.084   5.584   0.829  0.00  0.00    +0.105 A 
ATOM      6  N   UNL     1      -2.248   6.889   0.525  0.00  0.00    -0.221 NA
ENDROOT
BRANCH   5   7
ATOM      7  C   UNL     1      -2.856   4.819   1.826  0.00  0.00    +0.040 A 
ATOM      8  C   UNL     1      -3.365   5.234   3.029  0.00  0.00    +0.018 A 
ATOM      9  C   UNL     1      -4.065   4.330   3.798  0.00  0.00    +0.008 A 
ATOM     10  C   UNL     1      -4.219   3.058   3.349  0.00  0.00    +0.046 A 
ATOM     11  S   UNL     1      -3.364   3.108   1.783  0.00  0.00    -0.095 S 
ENDBRANCH   5   7
BRANCH   4  12
ATOM     12  C   UNL     1      -0.529   3.724   0.026  0.00  0.00    +0.038 A 
ATOM     13  C   UNL     1       0.786   3.296   0.011  0.00  0.00    +0.017 A 
ATOM     14  C   UNL     1       1.033   1.941   0.003  0.00  0.00    +0.008 A 
ATOM     15  C   UNL     1      -0.013   1.076   0.008  0.00  0.00    +0.046 A 
ATOM     16  S   UNL     1      -1.418   2.176   0.019  0.00  0.00    -0.095 S 
ENDBRANCH   4  12
BRANCH   1  17
ATOM     17  S   UNL     1      -1.254   8.842  -1.116  0.00  0.00    -0.079 S 
BRANCH  17  18
ATOM     18  C   UNL     1      -2.551   9.706  -0.195  0.00  0.00    +0.173 C 
BRANCH  18  20
ATOM     19  N   UNL     1      -3.515  11.981  -0.094  0.00  0.00    -0.312 N 
ATOM     20  C   UNL     1      -2.616  11.142  -0.646  0.00  0.00    +0.224 C 
ATOM     21  O   UNL     1      -1.861  11.542  -1.506  0.00  0.00    -0.275 OA
ATOM     22  H   UNL     1      -4.119  11.661   0.594  0.00  0.00    +0.149 HD
BRANCH  19  24
ATOM     23  C   UNL     1      -4.981  13.931  -0.269  0.00  0.00    +0.027 C 
ATOM     24  C   UNL     1      -3.579  13.377  -0.533  0.00  0.00    +0.067 C 
ATOM     25  C   UNL     1      -2.550  14.203   0.242  0.00  0.00    +0.027 C 
ENDBRANCH  19  24
ENDBRANCH  18  20
ENDBRANCH  17  18
ENDBRANCH   1  17
TORSDOF 6
