REMARK  Name = ZINC39539201
REMARK  3 active torsions:
REMARK  status: ('A' for Active; 'I' for Inactive)
REMARK    1  A    between atoms: C_1  and  C_2
REMARK    2  A    between atoms: C_12  and  C_14
REMARK    3  A    between atoms: C_19  and  C_20
REMARK                            x       y       z     vdW  Elec       q    Type
REMARK                         _______ _______ _______ _____ _____    ______ ____
ROOT
ATOM      1  C   UNL     1       2.327  -8.130   0.759  0.00  0.00    +0.082 A 
ATOM      2  C   UNL     1       2.765  -8.631   1.968  0.00  0.00    +0.118 A 
ATOM      3  N   UNL     1       2.953  -9.952   1.823  0.00  0.00    -0.283 N 
ATOM      4  H   UNL     1       3.259 -10.553   2.520  0.00  0.00    +0.188 HD
ATOM      5  N   UNL     1       2.639 -10.330   0.514  0.00  0.00    -0.173 NA
ATOM      6  C   UNL     1       2.252  -9.270  -0.159  0.00  0.00    +0.105 A 
ENDROOT
BRANCH   1  17
ATOM      7  C   UNL     1       0.422   1.612  -0.106  0.00  0.00    +0.008 C 
ATOM      8  C   UNL     1       0.360   0.085  -0.036  0.00  0.00    -0.009 C 
ATOM      9  C   UNL     1       0.828  -0.509  -1.368  0.00  0.00    +0.010 C 
ATOM     10  C   UNL     1       0.542  -2.012  -1.403  0.00  0.00    +0.056 C 
ATOM     11  C   UNL     1       1.135  -2.651  -0.155  0.00  0.00    +0.054 A 
ATOM     12  C   UNL     1       1.450  -1.891   0.926  0.00  0.00    +0.015 A 
ATOM     13  S   UNL     1       2.085  -3.088   2.067  0.00  0.00    -0.057 S 
ATOM     14  C   UNL     1       1.900  -4.446   1.086  0.00  0.00    +0.165 A 
ATOM     15  N   UNL     1       1.386  -3.950  -0.018  0.00  0.00    -0.229 NA
ATOM     16  N   UNL     1       2.214  -5.768   1.374  0.00  0.00    -0.261 N 
ATOM     17  C   UNL     1       1.994  -6.729   0.455  0.00  0.00    +0.253 C 
ATOM     18  O   UNL     1       1.519  -6.438  -0.627  0.00  0.00    -0.270 OA
ATOM     19  C   UNL     1       1.284  -0.417   1.086  0.00  0.00    +0.047 C 
ATOM     20  H   UNL     1       2.593  -6.000   2.236  0.00  0.00    +0.157 HD
ENDBRANCH   1  17
BRANCH   6  21
ATOM     21  C   UNL     1       1.826  -9.234  -1.578  0.00  0.00    +0.007 A 
ATOM     22  C   UNL     1       2.289  -8.224  -2.421  0.00  0.00    +0.014 A 
ATOM     23  C   UNL     1       1.890  -8.191  -3.741  0.00  0.00    +0.050 A 
ATOM     24  C   UNL     1       1.029  -9.162  -4.236  0.00  0.00    +0.162 A 
ATOM     25  C   UNL     1       0.566 -10.173  -3.400  0.00  0.00    +0.163 A 
ATOM     26  C   UNL     1       0.967 -10.212  -2.075  0.00  0.00    +0.059 A 
ATOM     27  O   UNL     1      -0.272 -11.137  -3.871  0.00  0.00    -0.485 OA
ATOM     28  C   UNL     1      -0.943 -10.860  -5.105  0.00  0.00    +0.270 C 
ATOM     29  C   UNL     1       0.087 -10.303  -6.097  0.00  0.00    +0.270 C 
ATOM     30  O   UNL     1       0.646  -9.108  -5.541  0.00  0.00    -0.485 OA
ENDBRANCH   6  21
TORSDOF 2
