REMARK  Name = ZINC39635961
REMARK  8 active torsions:
REMARK  status: ('A' for Active; 'I' for Inactive)
REMARK    1  A    between atoms: C_1  and  C_2
REMARK    2  A    between atoms: C_3  and  C_12
REMARK    3  A    between atoms: C_7  and  O_8
REMARK    4  A    between atoms: O_8  and  C_9
REMARK    5  A    between atoms: C_9  and  C_11
REMARK    6  A    between atoms: C_16  and  C_25
REMARK    7  A    between atoms: N_27  and  C_28
REMARK    8  A    between atoms: C_34  and  C_36
REMARK                            x       y       z     vdW  Elec       q    Type
REMARK                         _______ _______ _______ _____ _____    ______ ____
ROOT
ATOM      1  C   UNL     1      -0.153  -0.084  -2.673  0.00  0.00    +0.247 C 
ATOM      2  O   UNL     1      -0.081   1.123  -2.802  0.00  0.00    -0.270 OA
ATOM      3  N   UNL     1      -0.377  -0.865  -3.748  0.00  0.00    -0.296 N 
ATOM      4  C   UNL     1      -0.621  -2.326  -3.775  0.00  0.00    +0.121 C 
ATOM      5  C   UNL     1      -1.712  -2.520  -4.852  0.00  0.00    +0.100 C 
ATOM      6  C   UNL     1      -1.585  -1.290  -5.766  0.00  0.00    -0.004 C 
ATOM      7  C   UNL     1      -0.443  -0.454  -5.171  0.00  0.00    +0.115 C 
ATOM      8  C   UNL     1      -2.881  -0.486  -5.754  0.00  0.00    -0.010 C 
ATOM      9  C   UNL     1      -2.749   0.700  -6.714  0.00  0.00    -0.082 C 
ATOM     10  N   UNL     1      -2.469   0.206  -8.068  0.00  0.00    +0.379 N 
ATOM     11  C   UNL     1      -1.175  -0.487  -8.090  0.00  0.00    -0.082 C 
ATOM     12  C   UNL     1      -1.240  -1.722  -7.188  0.00  0.00    -0.010 C 
ATOM     13  H   UNL     1      -3.196  -0.434  -8.349  0.00  0.00    -0.086 HD
ATOM     14  H   UNL     1      -2.443   0.985  -8.710  0.00  0.00    -0.086 HD
ENDROOT
BRANCH   1  17
ATOM     15  C   UNL     1      -1.177   1.290  -0.342  0.00  0.00    +0.048 C 
ATOM     16  C   UNL     1      -0.485  -0.042  -0.205  0.00  0.00    +0.004 A 
ATOM     17  C   UNL     1       0.006  -0.695  -1.336  0.00  0.00    +0.043 A 
ATOM     18  C   UNL     1       0.646  -1.928  -1.201  0.00  0.00    +0.013 A 
ATOM     19  C   UNL     1       0.792  -2.496   0.049  0.00  0.00    +0.004 A 
ATOM     20  C   UNL     1       0.305  -1.847   1.168  0.00  0.00    +0.047 A 
ATOM     21  C   UNL     1      -0.329  -0.618   1.044  0.00  0.00    +0.135 A 
BRANCH  21  22
ATOM     22  O   UNL     1      -0.801   0.017   2.149  0.00  0.00    -0.426 OA
BRANCH  22  23
ATOM     23  C   UNL     1      -0.098   1.057   2.627  0.00  0.00    +0.309 C 
ATOM     24  O   UNL     1       0.967   1.343   2.134  0.00  0.00    -0.251 OA
ATOM     25  C   UNL     1      -0.638   1.866   3.778  0.00  0.00    +0.136 C 
ENDBRANCH  22  23
ENDBRANCH  21  22
ENDBRANCH   1  17
BRANCH   5  26
ATOM     26  C   UNL     1      -1.461  -3.785  -5.631  0.00  0.00    +0.218 C 
ATOM     27  O   UNL     1      -0.337  -4.232  -5.715  0.00  0.00    -0.275 OA
ATOM     28  N   UNL     1      -2.486  -4.419  -6.235  0.00  0.00    -0.312 N 
ATOM     29  H   UNL     1      -3.385  -4.061  -6.168  0.00  0.00    +0.149 HD
BRANCH  28  30
ATOM     30  C   UNL     1      -2.242  -5.649  -6.993  0.00  0.00    +0.076 C 
ATOM     31  C   UNL     1      -2.254  -6.846  -6.041  0.00  0.00    +0.022 C 
ATOM     32  C   UNL     1      -1.999  -8.130  -6.832  0.00  0.00    +0.002 C 
ATOM     33  C   UNL     1      -3.094  -8.306  -7.886  0.00  0.00    +0.000 C 
ATOM     34  C   UNL     1      -3.082  -7.108  -8.839  0.00  0.00    +0.005 C 
ATOM     35  C   UNL     1      -3.337  -5.824  -8.047  0.00  0.00    +0.006 C 
ATOM     36  C   UNL     1      -3.324  -4.627  -9.000  0.00  0.00    +0.009 C 
ENDBRANCH  28  30
ENDBRANCH   5  26
TORSDOF 5
