REMARK  Name = ZINC39687973
REMARK  7 active torsions:
REMARK  status: ('A' for Active; 'I' for Inactive)
REMARK    1  A    between atoms: C_1  and  C_2
REMARK    2  A    between atoms: C_2  and  C_4
REMARK    3  A    between atoms: C_2  and  O_29
REMARK    4  A    between atoms: C_8  and  C_17
REMARK    5  A    between atoms: N_19  and  C_20
REMARK    6  A    between atoms: C_26  and  C_28
REMARK    7  A    between atoms: O_29  and  C_30
REMARK                            x       y       z     vdW  Elec       q    Type
REMARK                         _______ _______ _______ _____ _____    ______ ____
ROOT
ATOM      1  C   UNL     1       0.565  -0.761   2.271  0.00  0.00    +0.256 C 
ATOM      2  O   UNL     1       1.620  -1.359   2.307  0.00  0.00    -0.272 OA
ATOM      3  N   UNL     1      -0.109  -0.515   3.412  0.00  0.00    -0.297 N 
ATOM      4  C   UNL     1      -1.405   0.188   3.568  0.00  0.00    +0.121 C 
ATOM      5  C   UNL     1      -2.152  -0.610   4.660  0.00  0.00    +0.100 C 
ATOM      6  C   UNL     1      -1.044  -1.311   5.462  0.00  0.00    -0.004 C 
ATOM      7  C   UNL     1       0.274  -0.893   4.793  0.00  0.00    +0.115 C 
ATOM      8  C   UNL     1      -1.070  -0.849   6.916  0.00  0.00    -0.010 C 
ATOM      9  C   UNL     1       0.003  -1.603   7.706  0.00  0.00    -0.082 C 
ATOM     10  N   UNL     1      -0.252  -3.046   7.626  0.00  0.00    +0.379 N 
ATOM     11  C   UNL     1      -0.133  -3.499   6.235  0.00  0.00    -0.082 C 
ATOM     12  C   UNL     1      -1.212  -2.825   5.383  0.00  0.00    -0.010 C 
ATOM     13  H   UNL     1       0.420  -3.537   8.197  0.00  0.00    -0.086 HD
ATOM     14  H   UNL     1      -1.182  -3.241   7.964  0.00  0.00    -0.086 HD
ENDROOT
BRANCH   5  15
ATOM     15  C   UNL     1      -2.936   0.323   5.547  0.00  0.00    +0.218 C 
ATOM     16  O   UNL     1      -2.588   1.479   5.669  0.00  0.00    -0.275 OA
ATOM     17  N   UNL     1      -4.022  -0.126   6.206  0.00  0.00    -0.312 N 
ATOM     18  H   UNL     1      -4.300  -1.050   6.109  0.00  0.00    +0.149 HD
BRANCH  17  19
ATOM     19  C   UNL     1      -4.783   0.781   7.069  0.00  0.00    +0.076 C 
ATOM     20  C   UNL     1      -4.139   0.824   8.456  0.00  0.00    +0.041 C 
ATOM     21  C   UNL     1      -4.917   1.800   9.345  0.00  0.00    +0.109 C 
ATOM     22  N   UNL     1      -6.334   1.409   9.349  0.00  0.00    -0.302 N 
ATOM     23  C   UNL     1      -7.026   1.250   8.063  0.00  0.00    +0.109 C 
ATOM     24  C   UNL     1      -6.224   0.281   7.189  0.00  0.00    +0.041 C 
ATOM     25  C   UNL     1      -6.986   1.201  10.510  0.00  0.00    +0.212 C 
ATOM     26  O   UNL     1      -8.123   0.782  10.500  0.00  0.00    -0.276 OA
ATOM     27  C   UNL     1      -6.300   1.490  11.821  0.00  0.00    +0.109 C 
ENDBRANCH  17  19
ENDBRANCH   5  15
BRANCH   1  29
ATOM     28  C   UNL     1      -0.024   1.236   0.925  0.00  0.00    +0.062 C 
ATOM     29  C   UNL     1       0.008  -0.293   0.951  0.00  0.00    +0.256 C 
BRANCH  29  30
ATOM     30  O   UNL     1       0.837  -0.770  -0.111  0.00  0.00    -0.480 OA
BRANCH  30  31
ATOM     31  C   UNL     1       0.223  -1.068  -1.286  0.00  0.00    +0.122 A 
ATOM     32  C   UNL     1       0.940  -1.664  -2.313  0.00  0.00    +0.045 A 
ATOM     33  C   UNL     1       0.313  -1.966  -3.507  0.00  0.00    +0.004 A 
ATOM     34  C   UNL     1      -1.027  -1.675  -3.678  0.00  0.00    +0.000 A 
ATOM     35  C   UNL     1      -1.744  -1.080  -2.656  0.00  0.00    +0.004 A 
ATOM     36  C   UNL     1      -1.124  -0.781  -1.459  0.00  0.00    +0.045 A 
ENDBRANCH  30  31
ENDBRANCH  29  30
ENDBRANCH   1  29
TORSDOF 5
