REMARK  Name = ZINC14123978
REMARK  8 active torsions:
REMARK  status: ('A' for Active; 'I' for Inactive)
REMARK    1  A    between atoms: C_1  and  C_2
REMARK    2  A    between atoms: C_2  and  C_4
REMARK    3  A    between atoms: C_2  and  N_16
REMARK    4  A    between atoms: C_7  and  C_10
REMARK    5  A    between atoms: N_16  and  C_17
REMARK    6  A    between atoms: C_17  and  C_18
REMARK    7  A    between atoms: N_20  and  C_21
REMARK    8  A    between atoms: N_20  and  C_27
REMARK                            x       y       z     vdW  Elec       q    Type
REMARK                         _______ _______ _______ _____ _____    ______ ____
ROOT
ATOM      1  N   UNL     1      -2.515   1.179   1.003  0.00  0.00    +0.389 N 
ATOM      2  H   UNL     1      -3.196   1.809   1.594  0.00  0.00    -0.084 HD
ATOM      3  H   UNL     1      -2.934   1.029  -0.003  0.00  0.00    -0.084 HD
ENDROOT
BRANCH   1   5
ATOM      4  C   UNL     1      -0.489   1.343  -0.362  0.00  0.00    -0.009 C 
ATOM      5  C   UNL     1      -1.207   1.837   0.896  0.00  0.00    -0.043 C 
BRANCH   5   6
ATOM      6  C   UNL     1      -1.400   3.329   0.811  0.00  0.00    -0.062 A 
ATOM      7  C   UNL     1      -2.434   3.847   0.052  0.00  0.00    +0.002 A 
ATOM      8  C   UNL     1      -2.619   5.213  -0.025  0.00  0.00    +0.009 A 
ATOM      9  C   UNL     1      -1.756   6.070   0.654  0.00  0.00    -0.018 A 
ATOM     10  C   UNL     1      -0.713   5.542   1.413  0.00  0.00    +0.009 A 
ATOM     11  C   UNL     1      -0.540   4.175   1.488  0.00  0.00    +0.002 A 
BRANCH   9  12
ATOM     12  C   UNL     1      -1.947   7.539   0.571  0.00  0.00    -0.018 A 
ATOM     13  C   UNL     1      -1.087   8.396   1.256  0.00  0.00    +0.008 A 
ATOM     14  C   UNL     1      -1.267   9.762   1.170  0.00  0.00    +0.001 A 
ATOM     15  C   UNL     1      -2.304  10.280   0.415  0.00  0.00    +0.000 A 
ATOM     16  C   UNL     1      -3.163   9.434  -0.262  0.00  0.00    +0.001 A 
ATOM     17  C   UNL     1      -2.990   8.067  -0.188  0.00  0.00    +0.008 A 
ENDBRANCH   9  12
ENDBRANCH   5   6
ENDBRANCH   1   5
BRANCH   1  18
ATOM     18  C   UNL     1      -2.395  -0.129   1.662  0.00  0.00    +0.016 C 
BRANCH  18  19
ATOM     19  C   UNL     1      -3.754  -0.773   1.754  0.00  0.00    +0.203 C 
ATOM     20  O   UNL     1      -4.740  -0.162   1.398  0.00  0.00    -0.277 OA
ATOM     21  N   UNL     1      -3.875  -2.027   2.232  0.00  0.00    -0.268 N 
BRANCH  21  22
ATOM     22  C   UNL     1      -2.703  -2.721   2.772  0.00  0.00    +0.104 C 
ATOM     23  C   UNL     1      -2.356  -3.916   1.869  0.00  0.00    +0.047 C 
ATOM     24  C   UNL     1      -1.326  -4.807   2.620  0.00  0.00    +0.168 C 
ATOM     25  S   UNL     1      -2.016  -4.755   4.328  0.00  0.00    -0.029 S 
ATOM     26  O   UNL     1      -2.891  -5.861   4.507  0.00  0.00    -0.174 OA
ATOM     27  O   UNL     1      -0.955  -4.545   5.249  0.00  0.00    -0.174 OA
ATOM     28  C   UNL     1      -3.015  -3.216   4.205  0.00  0.00    +0.188 C 
ENDBRANCH  21  22
BRANCH  21  29
ATOM     29  C   UNL     1      -5.119  -2.667   2.211  0.00  0.00    +0.037 A 
ATOM     30  C   UNL     1      -5.221  -4.002   2.580  0.00  0.00    +0.023 A 
ATOM     31  C   UNL     1      -6.452  -4.629   2.562  0.00  0.00    +0.002 A 
ATOM     32  C   UNL     1      -7.580  -3.932   2.170  0.00  0.00    +0.000 A 
ATOM     33  C   UNL     1      -7.480  -2.604   1.798  0.00  0.00    +0.002 A 
ATOM     34  C   UNL     1      -6.254  -1.970   1.817  0.00  0.00    +0.023 A 
ENDBRANCH  21  29
ENDBRANCH  18  19
ENDBRANCH   1  18
TORSDOF 7
