REMARK  Name = ZINC57850241
REMARK  11 active torsions:
REMARK  status: ('A' for Active; 'I' for Inactive)
REMARK    1  A    between atoms: C_1  and  C_2
REMARK    2  A    between atoms: C_2  and  C_3
REMARK    3  A    between atoms: C_3  and  C_4
REMARK    4  A    between atoms: C_3  and  C_6
REMARK    5  A    between atoms: C_3  and  N_23
REMARK    6  A    between atoms: C_4  and  C_5
REMARK    7  A    between atoms: C_6  and  N_7
REMARK    8  A    between atoms: C_10  and  C_14
REMARK    9  A    between atoms: C_10  and  C_15
REMARK   10  A    between atoms: C_18  and  C_22
REMARK   11  A    between atoms: C_19  and  C_21
REMARK                            x       y       z     vdW  Elec       q    Type
REMARK                         _______ _______ _______ _____ _____    ______ ____
ROOT
ATOM      1  N   UNL     1      -1.308  -0.620   2.572  0.00  0.00    -0.225 N 
ATOM      2  C   UNL     1      -2.414  -0.076   2.029  0.00  0.00    +0.251 C 
ATOM      3  O   UNL     1      -2.492   0.966   1.413  0.00  0.00    -0.272 OA
ATOM      4  C   UNL     1      -3.542  -1.037   2.348  0.00  0.00    +0.135 C 
ATOM      5  N   UNL     1      -2.878  -2.112   3.104  0.00  0.00    -0.281 N 
ATOM      6  C   UNL     1      -1.576  -1.782   3.178  0.00  0.00    +0.310 C 
ATOM      7  O   UNL     1      -0.737  -2.462   3.737  0.00  0.00    -0.252 OA
ATOM      8  C   UNL     1      -4.161  -1.587   1.061  0.00  0.00    +0.047 C 
ATOM      9  H   UNL     1      -3.297  -2.905   3.474  0.00  0.00    +0.152 HD
ENDROOT
BRANCH   4  10
ATOM     10  C   UNL     1      -4.590  -0.362   3.195  0.00  0.00    -0.015 A 
ATOM     11  C   UNL     1      -4.809   0.998   3.071  0.00  0.00    +0.006 A 
ATOM     12  C   UNL     1      -5.770   1.616   3.848  0.00  0.00    +0.004 A 
ATOM     13  C   UNL     1      -6.512   0.876   4.750  0.00  0.00    -0.048 A 
ATOM     14  C   UNL     1      -6.294  -0.483   4.873  0.00  0.00    -0.047 A 
ATOM     15  C   UNL     1      -5.336  -1.103   4.093  0.00  0.00    +0.009 A 
ATOM     16  C   UNL     1      -7.102  -1.290   5.856  0.00  0.00    +0.044 C 
ATOM     17  C   UNL     1      -7.559   1.551   5.598  0.00  0.00    +0.044 C 
ENDBRANCH   4  10
BRANCH   1  18
ATOM     18  C   UNL     1       0.026  -0.018   2.500  0.00  0.00    +0.105 C 
BRANCH  18  19
ATOM     19  C   UNL     1       0.742  -0.511   1.242  0.00  0.00    -0.055 C 
BRANCH  19  20
ATOM     20  N   UNL     1       0.762  -1.980   1.234  0.00  0.00    +0.383 N 
ATOM     21  H   UNL     1       1.234  -2.305   0.403  0.00  0.00    -0.089 HD
ATOM     22  H   UNL     1       1.250  -2.314   2.051  0.00  0.00    -0.089 HD
ATOM     23  H   UNL     1      -0.185  -2.329   1.241  0.00  0.00    -0.089 HD
ENDBRANCH  19  20
BRANCH  19  25
ATOM     24  C   UNL     1      -0.019   1.526   0.010  0.00  0.00    +0.002 C 
ATOM     25  C   UNL     1       0.002  -0.004   0.002  0.00  0.00    -0.015 C 
ENDBRANCH  19  25
BRANCH  19  26
ATOM     26  C   UNL     1       2.178   0.019   1.231  0.00  0.00    -0.015 C 
ATOM     27  C   UNL     1       2.894  -0.475  -0.028  0.00  0.00    +0.002 C 
ENDBRANCH  19  26
ENDBRANCH  18  19
ENDBRANCH   1  18
TORSDOF 6
