REMARK  Name = ZINC04384810
REMARK  4 active torsions:
REMARK  status: ('A' for Active; 'I' for Inactive)
REMARK    1  A    between atoms: C_1  and  O_2
REMARK    2  A    between atoms: O_2  and  C_3
REMARK    3  A    between atoms: C_3  and  C_5
REMARK    4  A    between atoms: C_8  and  C_11
REMARK                            x       y       z     vdW  Elec       q    Type
REMARK                         _______ _______ _______ _____ _____    ______ ____
ROOT
ATOM      1  C   UNL     1       0.827  -6.343  -1.340  0.00  0.00    +0.093 C 
ATOM      2  C   UNL     1       0.129  -6.810  -2.592  0.00  0.00    +0.069 A 
ATOM      3  C   UNL     1      -1.283  -6.758  -2.644  0.00  0.00    +0.280 A 
ATOM      4  O   UNL     1      -1.917  -6.343  -1.684  0.00  0.00    -0.265 OA
ATOM      5  N   UNL     1      -1.926  -7.164  -3.748  0.00  0.00    -0.177 NA
ATOM      6  C   UNL     1      -1.260  -7.613  -4.791  0.00  0.00    +0.195 A 
ATOM      7  N   UNL     1       0.098  -7.681  -4.780  0.00  0.00    -0.316 N 
ATOM      8  C   UNL     1       0.805  -7.280  -3.673  0.00  0.00    +0.112 A 
ATOM      9  N   UNL     1       2.183  -7.376  -3.696  0.00  0.00    -0.300 N 
ATOM     10  C   UNL     1       2.868  -7.268  -2.507  0.00  0.00    +0.048 C 
ATOM     11  C   UNL     1       2.266  -6.788  -1.371  0.00  0.00    +0.034 C 
ATOM     12  C   UNL     1       3.193  -6.791  -0.306  0.00  0.00    +0.193 C 
ATOM     13  O   UNL     1       2.977  -6.432   0.836  0.00  0.00    -0.287 OA
ATOM     14  C   UNL     1       4.474  -7.312  -0.832  0.00  0.00    +0.031 A 
ATOM     15  C   UNL     1       4.262  -7.606  -2.203  0.00  0.00    +0.007 A 
ATOM     16  C   UNL     1       5.284  -8.116  -2.987  0.00  0.00    +0.010 A 
ATOM     17  C   UNL     1       6.518  -8.325  -2.364  0.00  0.00    +0.001 A 
ATOM     18  C   UNL     1       6.719  -8.041  -1.035  0.00  0.00    +0.001 A 
ATOM     19  C   UNL     1       5.699  -7.523  -0.229  0.00  0.00    +0.012 A 
ATOM     20  N   UNL     1      -1.946  -8.019  -5.904  0.00  0.00    -0.329 N 
ATOM     21  H   UNL     1       2.657  -7.517  -4.531  0.00  0.00    +0.154 HD
ATOM     22  H   UNL     1      -2.915  -7.974  -5.920  0.00  0.00    +0.145 HD
ATOM     23  H   UNL     1      -1.463  -8.351  -6.677  0.00  0.00    +0.145 HD
ATOM     24  H   UNL     1       0.570  -8.014  -5.560  0.00  0.00    +0.170 HD
ENDROOT
BRANCH   1  28
ATOM     25  C   UNL     1       0.658  -2.076  -1.122  0.00  0.00    +0.059 A 
ATOM     26  C   UNL     1       0.089  -2.853  -0.111  0.00  0.00    +0.015 A 
ATOM     27  C   UNL     1       0.147  -4.229  -0.188  0.00  0.00    +0.005 A 
ATOM     28  C   UNL     1       0.767  -4.840  -1.263  0.00  0.00    -0.035 A 
ATOM     29  C   UNL     1       1.334  -4.076  -2.268  0.00  0.00    +0.005 A 
ATOM     30  C   UNL     1       1.278  -2.699  -2.207  0.00  0.00    +0.015 A 
BRANCH  25  31
ATOM     31  C   UNL     1       0.601  -0.602  -1.046  0.00  0.00    +0.339 C 
ATOM     32  O   UNL     1       1.092   0.071  -1.930  0.00  0.00    -0.245 OA
BRANCH  31  34
ATOM     33  C   UNL     1      -0.017   1.425   0.010  0.00  0.00    +0.280 C 
ATOM     34  O   UNL     1       0.002  -0.004   0.002  0.00  0.00    -0.464 OA
ENDBRANCH  31  34
ENDBRANCH  25  31
ENDBRANCH   1  28
TORSDOF 3
