REMARK  Name = ZINC23700688
REMARK  6 active torsions:
REMARK  status: ('A' for Active; 'I' for Inactive)
REMARK    1  A    between atoms: C_5  and  N_7
REMARK    2  A    between atoms: C_8  and  C_10
REMARK    3  A    between atoms: C_10  and  N_11
REMARK    4  A    between atoms: C_12  and  C_14
REMARK    5  A    between atoms: C_14  and  N_15
REMARK    6  A    between atoms: C_19  and  O_22
REMARK                            x       y       z     vdW  Elec       q    Type
REMARK                         _______ _______ _______ _____ _____    ______ ____
ROOT
ATOM      1  N   UNL     1      -1.727   4.162  -1.848  0.00  0.00    -0.308 N 
ATOM      2  C   UNL     1      -1.037   3.462  -0.925  0.00  0.00    +0.197 C 
ATOM      3  O   UNL     1      -0.578   4.027   0.045  0.00  0.00    -0.278 OA
ATOM      4  H   UNL     1      -2.144   3.649  -2.728  0.00  0.00    +0.149 HD
ENDROOT
BRANCH   1   5
ATOM      5  C   UNL     1      -1.922   5.604  -1.680  0.00  0.00    +0.200 C 
BRANCH   5   7
ATOM      6  N   UNL     1      -3.022   7.454  -2.899  0.00  0.00    -0.283 N 
ATOM      7  C   UNL     1      -2.719   6.142  -2.840  0.00  0.00    +0.234 C 
ATOM      8  O   UNL     1      -3.088   5.394  -3.721  0.00  0.00    -0.274 OA
ATOM      9  H   UNL     1      -2.752   8.119  -2.065  0.00  0.00    +0.155 HD
BRANCH   6  14
ATOM     10  C   UNL     1      -5.271   7.714  -5.797  0.00  0.00    +0.002 A 
ATOM     11  C   UNL     1      -4.981   8.992  -6.239  0.00  0.00    +0.001 A 
ATOM     12  C   UNL     1      -4.043   9.761  -5.575  0.00  0.00    +0.017 A 
ATOM     13  C   UNL     1      -3.395   9.256  -4.464  0.00  0.00    +0.039 A 
ATOM     14  C   UNL     1      -3.680   7.970  -4.021  0.00  0.00    +0.047 A 
ATOM     15  C   UNL     1      -4.623   7.201  -4.690  0.00  0.00    +0.024 A 
ATOM     16 BR   UNL     1      -2.118  10.311  -3.552  0.00  0.00    -0.048 Br
ENDBRANCH   6  14
ENDBRANCH   5   7
ENDBRANCH   1   5
BRANCH   2  17
ATOM     17  C   UNL     1      -0.837   1.979  -1.098  0.00  0.00    +0.019 C 
BRANCH  17  18
ATOM     18  N   UNL     1      -0.060   1.454   0.033  0.00  0.00    +0.387 N 
ATOM     19  C   UNL     1       1.304   1.999   0.031  0.00  0.00    -0.078 C 
ATOM     20  C   UNL     1       2.036   1.548   1.298  0.00  0.00    -0.016 C 
ATOM     21  C   UNL     1       2.077   0.018   1.340  0.00  0.00    +0.027 C 
ATOM     22  C   UNL     1       0.646  -0.525   1.291  0.00  0.00    +0.098 C 
ATOM     23  C   UNL     1      -0.045  -0.014   0.025  0.00  0.00    -0.047 C 
ATOM     24  H   UNL     1      -0.550   1.780   0.962  0.00  0.00    -0.081 HD
BRANCH  22  25
ATOM     25  O   UNL     1       0.677  -1.954   1.274  0.00  0.00    -0.394 OA
ATOM     26  H   UNL     1      -0.263  -2.524   1.240  0.00  0.00    +0.210 HD
ENDBRANCH  22  25
ENDBRANCH  17  18
ENDBRANCH   2  17
TORSDOF 6
