REMARK  Name = ZINC43012581
REMARK  7 active torsions:
REMARK  status: ('A' for Active; 'I' for Inactive)
REMARK    1  A    between atoms: N_4  and  C_8
REMARK    2  A    between atoms: C_11  and  N_15
REMARK    3  A    between atoms: C_16  and  C_18
REMARK    4  A    between atoms: C_18  and  N_19
REMARK    5  A    between atoms: C_21  and  C_35
REMARK    6  A    between atoms: C_23  and  N_26
REMARK    7  A    between atoms: C_27  and  C_29
REMARK                            x       y       z     vdW  Elec       q    Type
REMARK                         _______ _______ _______ _____ _____    ______ ____
ROOT
ATOM      1  C   UNL     1       9.732  -2.694  -0.222  0.00  0.00    +0.019 C 
ENDROOT
BRANCH   1   2
ATOM      2  N   UNL     1      10.831  -1.719  -0.198  0.00  0.00    +0.387 N 
ATOM      3  C   UNL     1      12.139  -2.420  -0.260  0.00  0.00    -0.073 C 
ATOM      4  C   UNL     1      13.103  -1.327  -0.786  0.00  0.00    -0.006 C 
ATOM      5  C   UNL     1      12.232  -0.562  -1.808  0.00  0.00    +0.058 C 
ATOM      6  C   UNL     1      10.777  -0.860  -1.401  0.00  0.00    -0.055 C 
ATOM      7  H   UNL     1      10.777  -1.154   0.636  0.00  0.00    -0.081 HD
BRANCH   5   8
ATOM      8  N   UNL     1      12.499   0.876  -1.729  0.00  0.00    -0.310 N 
ATOM      9  C   UNL     1      12.271   1.665  -2.798  0.00  0.00    +0.251 C 
ATOM     10  O   UNL     1      11.843   1.182  -3.830  0.00  0.00    -0.270 OA
ATOM     11  H   UNL     1      12.841   1.261  -0.906  0.00  0.00    +0.149 HD
BRANCH   9  12
ATOM     12  C   UNL     1      12.539   3.103  -2.718  0.00  0.00    +0.075 A 
ATOM     13  C   UNL     1      12.369   4.079  -3.689  0.00  0.00    +0.022 A 
ATOM     14  C   UNL     1      12.710   5.356  -3.317  0.00  0.00    +0.028 A 
ATOM     15  C   UNL     1      13.177   5.575  -2.061  0.00  0.00    +0.079 A 
ATOM     16  S   UNL     1      13.160   4.055  -1.345  0.00  0.00    -0.072 S 
ATOM     17 CL   UNL     1      13.671   7.081  -1.354  0.00  0.00    -0.076 Cl
ENDBRANCH   9  12
ENDBRANCH   5   8
BRANCH   4  18
ATOM     18  C   UNL     1      14.317  -1.959  -1.469  0.00  0.00    -0.008 C 
ATOM     19  C   UNL     1      15.702  -1.464  -1.047  0.00  0.00    +0.004 C 
ATOM     20  C   UNL     1      15.222  -2.852  -0.617  0.00  0.00    +0.004 C 
ENDBRANCH   4  18
ENDBRANCH   1   2
BRANCH   1  22
ATOM     21  N   UNL     1       7.262  -2.667  -0.087  0.00  0.00    -0.285 N 
ATOM     22  C   UNL     1       8.416  -1.971  -0.090  0.00  0.00    +0.201 C 
ATOM     23  O   UNL     1       8.396  -0.763   0.014  0.00  0.00    -0.278 OA
ATOM     24  H   UNL     1       7.281  -3.637  -0.085  0.00  0.00    +0.155 HD
BRANCH  21  28
ATOM     25  C   UNL     1       3.610  -0.652  -0.090  0.00  0.00    +0.052 A 
ATOM     26  C   UNL     1       4.702  -0.114  -0.760  0.00  0.00    +0.028 A 
ATOM     27  C   UNL     1       5.910  -0.781  -0.758  0.00  0.00    +0.028 A 
ATOM     28  C   UNL     1       6.036  -1.990  -0.088  0.00  0.00    +0.069 A 
ATOM     29  C   UNL     1       4.943  -2.530   0.583  0.00  0.00    +0.146 A 
ATOM     30  C   UNL     1       3.735  -1.859   0.586  0.00  0.00    +0.066 A 
ATOM     31  F   UNL     1       5.064  -3.707   1.235  0.00  0.00    -0.203 F 
BRANCH  25  35
ATOM     32  C   UNL     1      -0.020   1.356  -0.092  0.00  0.00    +0.007 A 
ATOM     33  C   UNL     1       0.613   1.012   1.111  0.00  0.00    +0.018 A 
ATOM     34  C   UNL     1       1.797   0.356   1.088  0.00  0.00    +0.095 A 
ATOM     35  N   UNL     1       2.384   0.026  -0.092  0.00  0.00    -0.284 N 
ATOM     36  C   UNL     1       1.801   0.343  -1.264  0.00  0.00    +0.256 A 
ATOM     37  O   UNL     1       2.340   0.038  -2.316  0.00  0.00    -0.267 OA
ATOM     38  C   UNL     1       0.572   1.022  -1.276  0.00  0.00    +0.071 A 
ENDBRANCH  25  35
ENDBRANCH  21  28
ENDBRANCH   1  22
TORSDOF 7
