REMARK  Name = ZINC06196293
REMARK  15 active torsions:
REMARK  status: ('A' for Active; 'I' for Inactive)
REMARK    1  A    between atoms: C_1  and  C_2
REMARK    2  A    between atoms: C_2  and  O_3
REMARK    3  A    between atoms: O_3  and  C_4
REMARK    4  A    between atoms: C_7  and  C_10
REMARK    5  A    between atoms: C_10  and  N_73
REMARK    6  A    between atoms: C_11  and  C_12
REMARK    7  A    between atoms: C_11  and  N_73
REMARK    8  A    between atoms: C_17  and  C_19
REMARK    9  A    between atoms: C_17  and  C_32
REMARK   10  A    between atoms: C_17  and  N_73
REMARK   11  A    between atoms: C_24  and  C_31
REMARK   12  A    between atoms: N_36  and  C_37
REMARK   13  A    between atoms: C_37  and  C_38
REMARK   14  A    between atoms: C_37  and  C_39
REMARK   15  A    between atoms: C_37  and  C_40
REMARK                            x       y       z     vdW  Elec       q    Type
REMARK                         _______ _______ _______ _____ _____    ______ ____
ROOT
ATOM      1  C   UNL     1       3.536   1.080   0.237  0.00  0.00    +0.040 C 
ENDROOT
BRANCH   1   2
ATOM      2  C   UNL     1       2.148   1.654   0.364  0.00  0.00    +0.011 A 
ATOM      3  C   UNL     1       1.068   0.853   0.195  0.00  0.00    +0.017 A 
ATOM      4  C   UNL     1      -0.267   1.441   0.325  0.00  0.00    -0.001 A 
ATOM      5  C   UNL     1      -1.419   0.665   0.159  0.00  0.00    +0.010 A 
ATOM      6  C   UNL     1      -2.649   1.246   0.280  0.00  0.00    +0.004 A 
ATOM      7  C   UNL     1      -2.767   2.597   0.578  0.00  0.00    -0.048 A 
ATOM      8  C   UNL     1      -1.645   3.381   0.744  0.00  0.00    +0.029 A 
ATOM      9  C   UNL     1      -0.381   2.813   0.620  0.00  0.00    +0.049 A 
ATOM     10  N   UNL     1       0.757   3.573   0.781  0.00  0.00    -0.322 N 
ATOM     11  H   UNL     1       0.674   4.547   0.990  0.00  0.00    +0.169 HD
ATOM     12  C   UNL     1       1.978   3.024   0.660  0.00  0.00    +0.251 A 
ATOM     13  O   UNL     1       2.963   3.726   0.808  0.00  0.00    -0.268 OA
ATOM     14  C   UNL     1      -4.134   3.215   0.713  0.00  0.00    +0.044 C 
ENDBRANCH   1   2
BRANCH   1  15
ATOM     15  C   UNL     1       4.230   1.700  -0.948  0.00  0.00    +0.143 A 
ATOM     16  N   UNL     1       4.741   2.905  -1.013  0.00  0.00    -0.115 NA
ATOM     17  N   UNL     1       5.245   3.061  -2.188  0.00  0.00    -0.023 NA
ATOM     18  N   UNL     1       5.062   1.989  -2.878  0.00  0.00    -0.043 NA
ATOM     19  N   UNL     1       4.439   1.127  -2.148  0.00  0.00    -0.225 N 
BRANCH  19  20
ATOM     20  C   UNL     1       4.036  -0.223  -2.549  0.00  0.00    +0.059 C 
ATOM     21  C   UNL     1       2.533  -0.395  -2.321  0.00  0.00    +0.036 C 
ATOM     22  C   UNL     1       4.354  -0.432  -4.031  0.00  0.00    +0.036 C 
ATOM     23  C   UNL     1       4.799  -1.253  -1.713  0.00  0.00    +0.036 C 
ENDBRANCH  19  20
ENDBRANCH   1  15
BRANCH   1  24
ATOM     24  N   UNL     1       4.306   1.398   1.458  0.00  0.00    +0.397 N 
ATOM     25  H   UNL     1       4.521   2.402   1.465  0.00  0.00    -0.079 HD
BRANCH  24  26
ATOM     26  C   UNL     1       5.571   0.635   1.471  0.00  0.00    -0.041 C 
BRANCH  26  30
ATOM     27  C   UNL     1       8.491   2.803  -0.774  0.00  0.00    +0.121 A 
ATOM     28  C   UNL     1       8.221   3.157   0.540  0.00  0.00    +0.046 A 
ATOM     29  C   UNL     1       7.276   2.455   1.263  0.00  0.00    +0.005 A 
ATOM     30  C   UNL     1       6.601   1.399   0.679  0.00  0.00    -0.064 A 
ATOM     31  C   UNL     1       6.873   1.040  -0.628  0.00  0.00    +0.005 A 
ATOM     32  C   UNL     1       7.812   1.743  -1.357  0.00  0.00    +0.046 A 
BRANCH  27  33
ATOM     33  O   UNL     1       9.420   3.492  -1.487  0.00  0.00    -0.492 OA
BRANCH  33  35
ATOM     34  C   UNL     1      10.717   3.959  -3.472  0.00  0.00    +0.048 C 
ATOM     35  C   UNL     1       9.646   3.072  -2.834  0.00  0.00    +0.225 C 
ENDBRANCH  33  35
ENDBRANCH  27  33
ENDBRANCH  26  30
ENDBRANCH  24  26
BRANCH  24  36
ATOM     36  C   UNL     1       3.507   1.071   2.658  0.00  0.00    -0.001 C 
BRANCH  36  37
ATOM     37  C   UNL     1       4.135   1.739   3.854  0.00  0.00    +0.089 A 
ATOM     38  C   UNL     1       3.826   2.960   4.325  0.00  0.00    +0.042 A 
ATOM     39  C   UNL     1       4.650   3.186   5.451  0.00  0.00    +0.041 A 
ATOM     40  C   UNL     1       5.414   2.089   5.601  0.00  0.00    +0.195 A 
ATOM     41  O   UNL     1       5.093   1.213   4.635  0.00  0.00    -0.470 OA
ENDBRANCH  36  37
ENDBRANCH  24  36
ENDBRANCH   1  24
TORSDOF 10
