REMARK  Name = ZINC67580609
REMARK  10 active torsions:
REMARK  status: ('A' for Active; 'I' for Inactive)
REMARK    1  A    between atoms: C_1  and  N_2
REMARK    2  A    between atoms: N_2  and  C_3
REMARK    3  A    between atoms: N_2  and  C_4
REMARK    4  A    between atoms: C_4  and  C_6
REMARK    5  A    between atoms: C_4  and  C_25
REMARK    6  A    between atoms: C_6  and  N_7
REMARK    7  A    between atoms: N_10  and  C_11
REMARK    8  A    between atoms: C_11  and  C_12
REMARK    9  A    between atoms: C_12  and  C_14
REMARK   10  A    between atoms: C_12  and  O_24
REMARK                            x       y       z     vdW  Elec       q    Type
REMARK                         _______ _______ _______ _____ _____    ______ ____
ROOT
ATOM      1  N   UNL     1       0.044  -2.014   1.012  0.00  0.00    -0.301 N 
ATOM      2  C   UNL     1       0.458  -3.278   1.232  0.00  0.00    +0.300 C 
ATOM      3  O   UNL     1       0.107  -4.171   0.484  0.00  0.00    -0.253 OA
ATOM      4  N   UNL     1       1.260  -3.553   2.279  0.00  0.00    -0.297 N 
ATOM      5  H   UNL     1       0.325  -1.302   1.609  0.00  0.00    +0.150 HD
ATOM      6  H   UNL     1       1.540  -2.841   2.875  0.00  0.00    +0.150 HD
ENDROOT
BRANCH   1   7
ATOM      7  C   UNL     1      -0.828  -1.716  -0.126  0.00  0.00    +0.095 C 
BRANCH   7   8
ATOM      8  C   UNL     1      -1.251  -0.247  -0.073  0.00  0.00    -0.014 C 
BRANCH   8   9
ATOM      9  C   UNL     1      -2.103  -0.013   1.148  0.00  0.00    -0.022 A 
ATOM     10  C   UNL     1      -1.753   0.526   2.342  0.00  0.00    +0.009 A 
ATOM     11  C   UNL     1      -2.712   0.645   3.330  0.00  0.00    +0.008 A 
ATOM     12  C   UNL     1      -3.974   0.219   3.076  0.00  0.00    +0.045 A 
ATOM     13  S   UNL     1      -3.835  -0.366   1.395  0.00  0.00    -0.103 S 
ENDBRANCH   8   9
BRANCH   8  15
ATOM     14  C   UNL     1      -2.489   1.475  -1.195  0.00  0.00    -0.096 C 
ATOM     15  N   UNL     1      -2.022   0.085  -1.279  0.00  0.00    +0.382 N 
ATOM     16  C   UNL     1      -1.170  -0.075  -2.465  0.00  0.00    -0.096 C 
ATOM     17  H   UNL     1      -2.817  -0.533  -1.350  0.00  0.00    -0.082 HD
ENDBRANCH   8  15
ENDBRANCH   7   8
ENDBRANCH   1   7
BRANCH   4  18
ATOM     18  C   UNL     1       1.710  -4.927   2.518  0.00  0.00    +0.141 C 
BRANCH  18  19
ATOM     19  C   UNL     1       2.602  -4.963   3.760  0.00  0.00    +0.162 C 
BRANCH  19  20
ATOM     20  C   UNL     1       3.163  -6.351   3.934  0.00  0.00    -0.017 A 
ATOM     21  C   UNL     1       2.370  -7.345   4.506  0.00  0.00    +0.007 A 
ATOM     22  C   UNL     1       2.846  -8.608   4.678  0.00  0.00    +0.009 A 
ATOM     23  C   UNL     1       4.157  -8.918   4.275  0.00  0.00    -0.018 A 
ATOM     24  C   UNL     1       4.683 -10.211   4.436  0.00  0.00    +0.008 A 
ATOM     25  C   UNL     1       5.956 -10.476   4.034  0.00  0.00    +0.001 A 
ATOM     26  C   UNL     1       6.748  -9.482   3.462  0.00  0.00    +0.001 A 
ATOM     27  C   UNL     1       6.272  -8.219   3.290  0.00  0.00    +0.008 A 
ATOM     28  C   UNL     1       4.962  -7.908   3.694  0.00  0.00    -0.018 A 
ATOM     29  C   UNL     1       4.434  -6.616   3.527  0.00  0.00    +0.014 A 
ENDBRANCH  19  20
BRANCH  19  30
ATOM     30  O   UNL     1       1.831  -4.612   4.911  0.00  0.00    -0.386 OA
ATOM     31  H   UNL     1       1.084  -5.203   5.079  0.00  0.00    +0.210 HD
ENDBRANCH  19  30
ENDBRANCH  18  19
ENDBRANCH   4  18
TORSDOF 8
