REMARK  Name = ZINC36676704
REMARK  6 active torsions:
REMARK  status: ('A' for Active; 'I' for Inactive)
REMARK    1  A    between atoms: C_4  and  N_7
REMARK    2  A    between atoms: C_11  and  S_13
REMARK    3  A    between atoms: S_13  and  C_14
REMARK    4  A    between atoms: C_14  and  C_15
REMARK    5  A    between atoms: N_17  and  C_18
REMARK    6  A    between atoms: C_19  and  C_26
REMARK                            x       y       z     vdW  Elec       q    Type
REMARK                         _______ _______ _______ _____ _____    ______ ____
ROOT
ATOM      1  C   UNL     1       6.336  -7.815  -2.389  0.00  0.00    +0.228 C 
ATOM      2  O   UNL     1       6.828  -7.951  -3.490  0.00  0.00    -0.275 OA
ATOM      3  N   UNL     1       6.450  -8.797  -1.474  0.00  0.00    -0.279 N 
ATOM      4  H   UNL     1       6.057  -8.688  -0.594  0.00  0.00    +0.155 HD
ENDROOT
BRANCH   3   5
ATOM      5  C   UNL     1       7.131  -9.963  -1.789  0.00  0.00    +0.084 A 
ATOM      6  C   UNL     1       7.342 -11.069  -0.986  0.00  0.00    +0.068 A 
ATOM      7  C   UNL     1       8.098 -12.180  -1.561  0.00  0.00    -0.023 A 
ATOM      8  C   UNL     1       8.500 -11.973  -2.828  0.00  0.00    -0.004 A 
ATOM      9  S   UNL     1       7.882 -10.360  -3.236  0.00  0.00    -0.077 S 
ATOM     10  C   UNL     1       9.275 -13.143  -3.369  0.00  0.00    +0.043 C 
ATOM     11  C   UNL     1       9.680 -13.955  -2.118  0.00  0.00    +0.010 C 
ATOM     12  C   UNL     1       8.576 -13.560  -1.116  0.00  0.00    +0.037 C 
BRANCH   6  13
ATOM     13  C   UNL     1       6.828 -11.124   0.386  0.00  0.00    +0.244 C 
ATOM     14  O   UNL     1       5.719 -11.574   0.603  0.00  0.00    -0.270 OA
ATOM     15  N   UNL     1       7.585 -10.676   1.407  0.00  0.00    -0.325 N 
ATOM     16  H   UNL     1       8.470 -10.317   1.234  0.00  0.00    +0.145 HD
ATOM     17  H   UNL     1       7.245 -10.712   2.315  0.00  0.00    +0.145 HD
ENDBRANCH   6  13
ENDBRANCH   3   5
BRANCH   1  18
ATOM     18  C   UNL     1       5.596  -6.548  -2.046  0.00  0.00    +0.172 C 
BRANCH  18  19
ATOM     19  S   UNL     1       5.616  -5.430  -3.475  0.00  0.00    -0.088 S 
BRANCH  19  24
ATOM     20  N   UNL     1       2.839  -0.440  -2.473  0.00  0.00    -0.319 N 
ATOM     21  C   UNL     1       3.443  -1.692  -2.484  0.00  0.00    +0.183 A 
ATOM     22  N   UNL     1       3.505  -2.598  -1.527  0.00  0.00    -0.125 NA
ATOM     23  N   UNL     1       4.160  -3.787  -1.751  0.00  0.00    -0.133 NA
ATOM     24  C   UNL     1       4.723  -4.015  -2.922  0.00  0.00    +0.160 A 
ATOM     25  S   UNL     1       4.335  -2.508  -3.799  0.00  0.00    -0.025 S 
ATOM     26  H   UNL     1       2.872   0.121  -3.264  0.00  0.00    +0.148 HD
BRANCH  20  30
ATOM     27  C   UNL     1      -0.019   1.526   0.010  0.00  0.00    +0.000 C 
ATOM     28  C   UNL     1       1.417   2.055  -0.000  0.00  0.00    +0.002 C 
ATOM     29  C   UNL     1       2.133   1.562  -1.259  0.00  0.00    +0.022 C 
ATOM     30  C   UNL     1       2.154   0.032  -1.268  0.00  0.00    +0.072 C 
ATOM     31  C   UNL     1       0.718  -0.497  -1.257  0.00  0.00    +0.022 C 
ATOM     32  C   UNL     1       0.002  -0.004   0.002  0.00  0.00    +0.002 C 
ENDBRANCH  20  30
ENDBRANCH  19  24
ENDBRANCH  18  19
ENDBRANCH   1  18
TORSDOF 6
