REMARK  Name = ZINC03807299
REMARK  10 active torsions:
REMARK  status: ('A' for Active; 'I' for Inactive)
REMARK    1  A    between atoms: C_6  and  S_11
REMARK    2  A    between atoms: S_11  and  N_14
REMARK    3  A    between atoms: N_14  and  C_15
REMARK    4  A    between atoms: C_15  and  C_16
REMARK    5  A    between atoms: N_18  and  C_19
REMARK    6  A    between atoms: C_19  and  C_21
REMARK    7  A    between atoms: C_19  and  C_29
REMARK    8  A    between atoms: C_21  and  C_22
REMARK    9  A    between atoms: C_22  and  N_23
REMARK   10  A    between atoms: N_23  and  C_24
REMARK                            x       y       z     vdW  Elec       q    Type
REMARK                         _______ _______ _______ _____ _____    ______ ____
ROOT
ATOM      1  C   UNL     1      -1.910   3.928  -2.694  0.00  0.00    +0.229 C 
ATOM      2  O   UNL     1      -2.085   2.824  -3.162  0.00  0.00    -0.274 OA
ATOM      3  N   UNL     1      -2.033   5.019  -3.476  0.00  0.00    -0.303 N 
ATOM      4  H   UNL     1      -1.893   5.903  -3.101  0.00  0.00    +0.149 HD
ENDROOT
BRANCH   1   5
ATOM      5  C   UNL     1      -1.554   4.082  -1.237  0.00  0.00    +0.201 C 
BRANCH   5   6
ATOM      6  N   UNL     1      -1.482   2.760  -0.610  0.00  0.00    -0.181 NA
ATOM      7  H   UNL     1      -1.857   1.988  -1.062  0.00  0.00    +0.149 HD
BRANCH   6   8
ATOM      8  S   UNL     1      -0.758   2.583   0.869  0.00  0.00    +0.059 S 
ATOM      9  O   UNL     1      -0.869   1.210   1.214  0.00  0.00    -0.153 OA
ATOM     10  O   UNL     1       0.495   3.250   0.789  0.00  0.00    -0.153 OA
BRANCH   8  16
ATOM     11  C   UNL     1      -5.032   4.999   5.441  0.00  0.00    +0.001 A 
ATOM     12  C   UNL     1      -5.318   3.658   5.193  0.00  0.00    +0.001 A 
ATOM     13  C   UNL     1      -4.587   2.939   4.298  0.00  0.00    +0.008 A 
ATOM     14  C   UNL     1      -3.527   3.556   3.611  0.00  0.00    -0.016 A 
ATOM     15  C   UNL     1      -2.749   2.847   2.680  0.00  0.00    +0.037 A 
ATOM     16  C   UNL     1      -1.730   3.477   2.035  0.00  0.00    +0.106 A 
ATOM     17  C   UNL     1      -1.441   4.817   2.287  0.00  0.00    +0.029 A 
ATOM     18  C   UNL     1      -2.176   5.537   3.177  0.00  0.00    +0.010 A 
ATOM     19  C   UNL     1      -3.236   4.920   3.863  0.00  0.00    -0.018 A 
ATOM     20  C   UNL     1      -4.013   5.630   4.795  0.00  0.00    +0.008 A 
ENDBRANCH   8  16
ENDBRANCH   6   8
ENDBRANCH   5   6
ENDBRANCH   1   5
BRANCH   3  21
ATOM     21  C   UNL     1      -2.379   4.870  -4.892  0.00  0.00    +0.160 C 
BRANCH  21  22
ATOM     22  C   UNL     1      -3.876   4.775  -5.036  0.00  0.00    +0.236 C 
ATOM     23  O   UNL     1      -4.597   5.149  -4.135  0.00  0.00    -0.274 OA
ATOM     24  N   UNL     1      -4.414   4.276  -6.166  0.00  0.00    -0.300 N 
ATOM     25  C   UNL     1      -3.555   3.724  -7.223  0.00  0.00    +0.108 C 
ATOM     26  C   UNL     1      -4.034   2.301  -7.550  0.00  0.00    +0.019 C 
ATOM     27  C   UNL     1      -5.523   2.340  -7.905  0.00  0.00    +0.003 C 
ATOM     28  C   UNL     1      -6.322   2.854  -6.705  0.00  0.00    +0.019 C 
ATOM     29  C   UNL     1      -5.869   4.277  -6.367  0.00  0.00    +0.108 C 
ENDBRANCH  21  22
BRANCH  21  30
ATOM     30  C   UNL     1      -1.867   6.082  -5.672  0.00  0.00    +0.050 C 
BRANCH  30  31
ATOM     31  C   UNL     1      -0.337   6.102  -5.638  0.00  0.00    +0.104 C 
BRANCH  31  32
ATOM     32  N   UNL     1       0.153   7.263  -6.385  0.00  0.00    -0.344 N 
ATOM     33  H   UNL     1      -0.476   7.871  -6.804  0.00  0.00    +0.146 HD
BRANCH  32  34
ATOM     34  C   UNL     1       1.521   7.493  -6.494  0.00  0.00    +0.030 A 
ATOM     35  C   UNL     1       2.441   6.634  -5.894  0.00  0.00    +0.040 A 
ATOM     36  C   UNL     1       3.789   6.894  -6.030  0.00  0.00    +0.084 A 
ATOM     37  C   UNL     1       3.370   8.785  -7.285  0.00  0.00    +0.084 A 
ATOM     38  C   UNL     1       2.008   8.592  -7.201  0.00  0.00    +0.040 A 
ATOM     39  N   UNL     1       4.289   7.959  -6.714  0.00  0.00    -0.367 N 
ATOM     40  H   UNL     1       5.298   8.129  -6.794  0.00  0.00    +0.165 HD
ENDBRANCH  32  34
ENDBRANCH  31  32
ENDBRANCH  30  31
ENDBRANCH  21  30
ENDBRANCH   3  21
TORSDOF 10
