REMARK  Name = ZINC14458475
REMARK  7 active torsions:
REMARK  status: ('A' for Active; 'I' for Inactive)
REMARK    1  A    between atoms: C_1  and  C_2
REMARK    2  A    between atoms: C_5  and  C_8
REMARK    3  A    between atoms: C_19  and  S_24
REMARK    4  A    between atoms: S_24  and  N_27
REMARK    5  A    between atoms: N_27  and  C_28
REMARK    6  A    between atoms: C_28  and  C_29
REMARK    7  A    between atoms: C_28  and  C_30
REMARK                            x       y       z     vdW  Elec       q    Type
REMARK                         _______ _______ _______ _____ _____    ______ ____
ROOT
ATOM      1  C   UNL     1       0.193  -0.449  -1.451  0.00  0.00    +0.105 C 
ATOM      2  C   UNL     1       0.002  -0.004   0.002  0.00  0.00    +0.029 C 
ATOM      3  C   UNL     1      -0.019   1.553   0.011  0.00  0.00    +0.033 C 
ATOM      4  C   UNL     1       1.451   1.924  -0.002  0.00  0.00    -0.030 C 
ATOM      5  C   UNL     1       2.180   0.927   0.439  0.00  0.00    -0.023 C 
ATOM      6  C   UNL     1       1.298  -0.245   0.800  0.00  0.00    +0.049 C 
ATOM      7  C   UNL     1       1.956  -1.546   0.466  0.00  0.00    -0.018 A 
ATOM      8  C   UNL     1       2.981  -2.004   1.283  0.00  0.00    +0.034 A 
ATOM      9  C   UNL     1       3.610  -3.202   1.014  0.00  0.00    +0.106 A 
ATOM     10  C   UNL     1       3.227  -3.963  -0.076  0.00  0.00    +0.030 A 
ATOM     11  C   UNL     1       2.210  -3.517  -0.896  0.00  0.00    +0.025 A 
ATOM     12  C   UNL     1       1.576  -2.311  -0.626  0.00  0.00    +0.031 A 
ATOM     13  N   UNL     1       0.549  -1.872  -1.469  0.00  0.00    -0.336 N 
ATOM     14  H   UNL     1       0.083  -2.493  -2.050  0.00  0.00    +0.147 HD
ENDROOT
BRANCH   1  19
ATOM     15  C   UNL     1      -4.720   0.356  -4.384  0.00  0.00    +0.044 C 
ATOM     16  C   UNL     1      -3.438   0.146  -3.620  0.00  0.00    -0.050 A 
ATOM     17  C   UNL     1      -2.410   1.064  -3.728  0.00  0.00    +0.004 A 
ATOM     18  C   UNL     1      -1.235   0.871  -3.026  0.00  0.00    +0.006 A 
ATOM     19  C   UNL     1      -1.088  -0.239  -2.216  0.00  0.00    -0.027 A 
ATOM     20  C   UNL     1      -2.114  -1.160  -2.112  0.00  0.00    +0.006 A 
ATOM     21  C   UNL     1      -3.291  -0.965  -2.811  0.00  0.00    +0.004 A 
ENDBRANCH   1  19
BRANCH   9  22
ATOM     22  S   UNL     1       4.909  -3.766   2.063  0.00  0.00    +0.059 S 
ATOM     23  O   UNL     1       4.712  -3.142   3.325  0.00  0.00    -0.153 OA
ATOM     24  O   UNL     1       4.968  -5.178   1.913  0.00  0.00    -0.153 OA
BRANCH  22  25
ATOM     25  N   UNL     1       6.326  -3.165   1.454  0.00  0.00    -0.187 NA
ATOM     26  H   UNL     1       7.000  -3.770   1.106  0.00  0.00    +0.148 HD
BRANCH  25  27
ATOM     27  C   UNL     1       6.563  -1.719   1.441  0.00  0.00    +0.070 C 
ATOM     28  C   UNL     1       8.047  -1.443   1.692  0.00  0.00    +0.025 C 
ATOM     29  C   UNL     1       6.161  -1.149   0.080  0.00  0.00    +0.025 C 
ENDBRANCH  25  27
ENDBRANCH  22  25
ENDBRANCH   9  22
TORSDOF 4
