REMARK  Name = ZINC27097928
REMARK  12 active torsions:
REMARK  status: ('A' for Active; 'I' for Inactive)
REMARK    1  A    between atoms: C_1  and  C_2
REMARK    2  A    between atoms: C_2  and  C_3
REMARK    3  A    between atoms: C_3  and  O_4
REMARK    4  A    between atoms: O_4  and  C_5
REMARK    5  A    between atoms: C_5  and  C_7
REMARK    6  A    between atoms: C_10  and  O_13
REMARK    7  A    between atoms: O_13  and  C_14
REMARK    8  A    between atoms: C_15  and  C_34
REMARK    9  A    between atoms: C_23  and  O_33
REMARK   10  A    between atoms: C_24  and  C_25
REMARK   11  A    between atoms: C_25  and  N_26
REMARK   12  A    between atoms: C_29  and  C_32
REMARK                            x       y       z     vdW  Elec       q    Type
REMARK                         _______ _______ _______ _____ _____    ______ ____
ROOT
ATOM      1  C   UNL     1      -1.175   3.408   0.026  0.00  0.00    +0.213 A 
ATOM      2  C   UNL     1      -1.167   4.092  -1.135  0.00  0.00    +0.148 A 
ATOM      3  O   UNL     1      -1.141   5.431  -1.187  0.00  0.00    -0.456 OA
ATOM      4  C   UNL     1      -1.121   6.196  -0.077  0.00  0.00    +0.144 A 
ATOM      5  C   UNL     1      -1.127   5.589   1.191  0.00  0.00    +0.068 A 
ATOM      6  C   UNL     1      -1.161   4.118   1.260  0.00  0.00    +0.235 A 
ATOM      7  O   UNL     1      -1.172   3.532   2.330  0.00  0.00    -0.283 OA
ATOM      8  C   UNL     1      -1.107   6.371   2.346  0.00  0.00    +0.019 A 
ATOM      9  C   UNL     1      -1.081   7.733   2.242  0.00  0.00    +0.046 A 
ATOM     10  C   UNL     1      -1.075   8.343   0.990  0.00  0.00    +0.122 A 
ATOM     11  C   UNL     1      -1.095   7.581  -0.166  0.00  0.00    +0.020 A 
ATOM     12  C   UNL     1      -1.187   3.320  -2.429  0.00  0.00    +0.090 C 
ENDROOT
BRANCH  10  13
ATOM     13  O   UNL     1      -1.050   9.698   0.902  0.00  0.00    -0.506 OA
ATOM     14  H   UNL     1      -1.046  10.185  -0.084  0.00  0.00    +0.292 HD
ENDBRANCH  10  13
BRANCH   1  15
ATOM     15  O   UNL     1      -1.202   2.047   0.019  0.00  0.00    -0.449 OA
BRANCH  15  19
ATOM     16  C   UNL     1       2.404   0.037  -0.021  0.00  0.00    +0.059 A 
ATOM     17  C   UNL     1       1.202  -0.678  -0.013  0.00  0.00    +0.018 A 
ATOM     18  C   UNL     1       0.002  -0.004   0.002  0.00  0.00    +0.047 A 
ATOM     19  C   UNL     1      -0.017   1.386   0.010  0.00  0.00    +0.129 A 
ATOM     20  C   UNL     1       1.176   2.102   0.002  0.00  0.00    +0.047 A 
ATOM     21  C   UNL     1       2.380   1.435  -0.013  0.00  0.00    +0.018 A 
BRANCH  16  22
ATOM     22  C   UNL     1       3.691  -0.680  -0.036  0.00  0.00    +0.339 C 
ATOM     23  O   UNL     1       3.710  -1.895  -0.043  0.00  0.00    -0.245 OA
BRANCH  22  24
ATOM     24  O   UNL     1       4.848   0.011  -0.044  0.00  0.00    -0.461 OA
BRANCH  24  25
ATOM     25  C   UNL     1       6.077  -0.761  -0.059  0.00  0.00    +0.232 C 
BRANCH  25  27
ATOM     26  C   UNL     1       8.572  -0.625  -0.082  0.00  0.00    +0.007 C 
ATOM     27  C   UNL     1       7.277   0.189  -0.066  0.00  0.00    +0.038 C 
ENDBRANCH  25  27
ENDBRANCH  24  25
ENDBRANCH  22  24
ENDBRANCH  16  22
ENDBRANCH  15  19
ENDBRANCH   1  15
BRANCH  11  28
ATOM     28  C   UNL     1      -1.088   8.252  -1.515  0.00  0.00    -0.036 C 
BRANCH  28  29
ATOM     29  N   UNL     1      -2.470   8.497  -1.948  0.00  0.00    +0.383 N 
ATOM     30  C   UNL     1      -3.270   9.069  -0.857  0.00  0.00    -0.078 C 
ATOM     31  C   UNL     1      -4.732   9.174  -1.296  0.00  0.00    -0.016 C 
ATOM     32  C   UNL     1      -4.824  10.061  -2.540  0.00  0.00    -0.018 C 
ATOM     33  C   UNL     1      -3.945   9.470  -3.645  0.00  0.00    -0.016 C 
ATOM     34  C   UNL     1      -2.505   9.356  -3.139  0.00  0.00    -0.078 C 
ATOM     35  C   UNL     1      -6.276  10.121  -3.019  0.00  0.00    +0.007 C 
ATOM     36  H   UNL     1      -2.917   7.529  -2.220  0.00  0.00    -0.081 HD
ENDBRANCH  28  29
ENDBRANCH  11  28
TORSDOF 9
