REMARK  Name = ZINC39467065
REMARK  5 active torsions:
REMARK  status: ('A' for Active; 'I' for Inactive)
REMARK    1  A    between atoms: C_4  and  C_7
REMARK    2  A    between atoms: C_7  and  C_8
REMARK    3  A    between atoms: P_17  and  C_27
REMARK    4  A    between atoms: C_25  and  O_26
REMARK    5  A    between atoms: C_32  and  O_33
REMARK                            x       y       z     vdW  Elec       q    Type
REMARK                         _______ _______ _______ _____ _____    ______ ____
ROOT
ATOM      1  C   UNL     1       4.164  -0.959   1.377  0.00  0.00    -0.006 C 
ATOM      2  C   UNL     1       3.892  -2.122   1.970  0.00  0.00    -0.016 C 
ATOM      3  C   UNL     1       4.369  -2.347   3.378  0.00  0.00    +0.016 C 
ATOM      4  C   UNL     1       4.485  -3.833   3.701  0.00  0.00    -0.003 C 
ATOM      5  C   UNL     1       5.009  -4.005   5.134  0.00  0.00    -0.020 C 
ATOM      6  C   UNL     1       5.128  -5.511   5.398  0.00  0.00    +0.157 C 
ATOM      7  O   UNL     1       5.534  -5.726   6.762  0.00  0.00    -0.316 OA
ATOM      8  P   UNL     1       6.824  -4.898   7.308  0.00  0.00    +0.291 P 
ATOM      9  O   UNL     1       8.076  -5.556   6.873  0.00  0.00    -0.269 OA
ATOM     10  N   UNL     1       6.698  -3.399   6.627  0.00  0.00    -0.288 NA
ATOM     11  N   UNL     1       6.304  -3.345   5.305  0.00  0.00    +0.398 N 
ATOM     12  C   UNL     1       6.226  -1.912   4.973  0.00  0.00    -0.046 C 
ATOM     13  C   UNL     1       5.761  -1.720   3.537  0.00  0.00    +0.008 C 
ATOM     14  C   UNL     1       5.687  -0.269   3.147  0.00  0.00    +0.021 C 
ATOM     15  C   UNL     1       4.917   0.078   2.111  0.00  0.00    +0.116 C 
ATOM     16  H   UNL     1       6.902  -2.598   7.134  0.00  0.00    +0.111 HD
ATOM     17  H   UNL     1       6.990  -3.793   4.716  0.00  0.00    -0.055 HD
ENDROOT
BRANCH   8  18
ATOM     18  C   UNL     1       6.774  -4.777   9.117  0.00  0.00    +0.091 A 
ATOM     19  C   UNL     1       6.132  -3.713   9.721  0.00  0.00    +0.018 A 
ATOM     20  C   UNL     1       6.094  -3.620  11.100  0.00  0.00    +0.001 A 
ATOM     21  C   UNL     1       6.698  -4.591  11.878  0.00  0.00    +0.004 A 
ATOM     22  C   UNL     1       7.341  -5.656  11.278  0.00  0.00    +0.046 A 
ATOM     23  C   UNL     1       7.376  -5.755   9.895  0.00  0.00    +0.131 A 
BRANCH  23  24
ATOM     24  O   UNL     1       8.003  -6.805   9.303  0.00  0.00    -0.506 OA
ATOM     25  H   UNL     1       8.941  -6.652   9.122  0.00  0.00    +0.292 HD
ENDBRANCH  23  24
ENDBRANCH   8  18
BRANCH  15  26
ATOM     26  O   UNL     1       4.825   1.381   1.738  0.00  0.00    -0.507 OA
ATOM     27  H   UNL     1       5.354   1.983   2.278  0.00  0.00    +0.292 HD
ENDBRANCH  15  26
BRANCH   1  28
ATOM     28  C   UNL     1       3.711  -0.707  -0.038  0.00  0.00    +0.073 C 
BRANCH  28  32
ATOM     29  C   UNL     1      -0.017   1.378   0.010  0.00  0.00    +0.000 A 
ATOM     30  C   UNL     1       1.171   2.086   0.002  0.00  0.00    +0.000 A 
ATOM     31  C   UNL     1       2.377   1.411  -0.013  0.00  0.00    +0.004 A 
ATOM     32  C   UNL     1       2.396   0.029  -0.020  0.00  0.00    -0.043 A 
ATOM     33  C   UNL     1       1.208  -0.679  -0.012  0.00  0.00    +0.004 A 
ATOM     34  C   UNL     1       0.002  -0.004   0.002  0.00  0.00    +0.000 A 
ENDBRANCH  28  32
ENDBRANCH   1  28
TORSDOF 5
