REMARK  Name = ZINC13563118
REMARK  6 active torsions:
REMARK  status: ('A' for Active; 'I' for Inactive)
REMARK    1  A    between atoms: C_1  and  C_2
REMARK    2  A    between atoms: C_5  and  C_34
REMARK    3  A    between atoms: N_8  and  C_10
REMARK    4  A    between atoms: C_13  and  N_16
REMARK    5  A    between atoms: N_16  and  C_17
REMARK    6  A    between atoms: C_17  and  C_18
REMARK                            x       y       z     vdW  Elec       q    Type
REMARK                         _______ _______ _______ _____ _____    ______ ____
ROOT
ATOM      1  C   UNL     1      -1.181  -2.185   0.002  0.00  0.00    +0.142 C 
ENDROOT
BRANCH   1   2
ATOM      2  C   UNL     1      -2.595  -2.707   0.013  0.00  0.00    +0.034 A 
ATOM      3  C   UNL     1      -3.205  -3.031  -1.155  0.00  0.00    +0.020 A 
ATOM      4  C   UNL     1      -4.577  -3.534  -1.111  0.00  0.00    +0.003 A 
ATOM      5  C   UNL     1      -5.257  -3.884  -2.284  0.00  0.00    +0.059 A 
ATOM      6  C   UNL     1      -6.552  -4.353  -2.212  0.00  0.00    +0.163 A 
ATOM      7  C   UNL     1      -7.185  -4.483  -0.972  0.00  0.00    +0.164 A 
ATOM      8  C   UNL     1      -6.520  -4.141   0.193  0.00  0.00    +0.075 A 
ATOM      9  C   UNL     1      -5.216  -3.666   0.137  0.00  0.00    +0.053 A 
ATOM     10  N   UNL     1      -4.539  -3.319   1.289  0.00  0.00    -0.322 N 
ATOM     11  H   UNL     1      -4.980  -3.411   2.148  0.00  0.00    +0.169 HD
ATOM     12  C   UNL     1      -3.276  -2.862   1.237  0.00  0.00    +0.254 A 
ATOM     13  O   UNL     1      -2.707  -2.570   2.275  0.00  0.00    -0.268 OA
ATOM     14  O   UNL     1      -8.461  -4.949  -0.892  0.00  0.00    -0.485 OA
ATOM     15  C   UNL     1      -9.231  -4.928  -2.098  0.00  0.00    +0.270 C 
ATOM     16  C   UNL     1      -8.369  -5.501  -3.230  0.00  0.00    +0.270 C 
ATOM     17  O   UNL     1      -7.202  -4.683  -3.363  0.00  0.00    -0.485 OA
ENDBRANCH   1   2
BRANCH   1  18
ATOM     18  N   UNL     1      -1.201  -0.721   0.010  0.00  0.00    -0.340 N 
ATOM     19  H   UNL     1      -2.047  -0.247   0.021  0.00  0.00    +0.146 HD
BRANCH  18  23
ATOM     20  C   UNL     1       2.381   1.413  -0.013  0.00  0.00    +0.030 A 
ATOM     21  C   UNL     1       1.170   2.091   0.002  0.00  0.00    +0.025 A 
ATOM     22  C   UNL     1      -0.017   1.384   0.010  0.00  0.00    +0.025 A 
ATOM     23  C   UNL     1       0.002  -0.004   0.002  0.00  0.00    +0.027 A 
ATOM     24  C   UNL     1       1.214  -0.682  -0.013  0.00  0.00    +0.025 A 
ATOM     25  C   UNL     1       2.400   0.025  -0.021  0.00  0.00    +0.025 A 
BRANCH  20  31
ATOM     26  C   UNL     1       6.686   2.025   2.163  0.00  0.00    +0.009 C 
ATOM     27  C   UNL     1       5.800   2.424   0.981  0.00  0.00    +0.003 C 
ATOM     28  C   UNL     1       5.596   3.942   0.984  0.00  0.00    +0.009 C 
ATOM     29  C   UNL     1       4.661   4.325  -0.166  0.00  0.00    +0.003 C 
ATOM     30  C   UNL     1       3.335   3.577  -0.011  0.00  0.00    +0.108 C 
ATOM     31  N   UNL     1       3.584   2.130  -0.021  0.00  0.00    -0.329 N 
ATOM     32  C   UNL     1       4.441   1.731   1.103  0.00  0.00    +0.108 C 
ATOM     33  C   UNL     1       5.308   3.946  -1.499  0.00  0.00    +0.009 C 
ENDBRANCH  20  31
ENDBRANCH  18  23
ENDBRANCH   1  18
TORSDOF 4
