REMARK  Name = ZINC13132261
REMARK  4 active torsions:
REMARK  status: ('A' for Active; 'I' for Inactive)
REMARK    1  A    between atoms: C_1  and  O_2
REMARK    2  A    between atoms: O_2  and  C_3
REMARK    3  A    between atoms: C_6  and  C_9
REMARK    4  A    between atoms: C_12  and  C_21
REMARK                            x       y       z     vdW  Elec       q    Type
REMARK                         _______ _______ _______ _____ _____    ______ ____
ROOT
ATOM      1  C   UNL     1       2.505  -2.503  -4.381  0.00  0.00    +0.106 C 
ATOM      2  C   UNL     1       1.442  -2.971  -5.383  0.00  0.00    +0.059 C 
ATOM      3  C   UNL     1       0.455  -3.916  -4.686  0.00  0.00    +0.145 C 
ATOM      4  N   UNL     1       1.211  -4.931  -3.953  0.00  0.00    -0.224 N 
ATOM      5  C   UNL     1       2.514  -4.808  -3.604  0.00  0.00    +0.216 A 
ATOM      6  N   UNL     1       2.869  -5.892  -2.966  0.00  0.00    -0.180 NA
ATOM      7  C   UNL     1       1.822  -6.727  -2.887  0.00  0.00    +0.233 A 
ATOM      8  N   UNL     1       0.787  -6.173  -3.480  0.00  0.00    -0.132 NA
ATOM      9  N   UNL     1       1.830  -7.981  -2.275  0.00  0.00    -0.326 N 
ATOM     10  N   UNL     1       3.266  -3.678  -3.914  0.00  0.00    -0.307 N 
ATOM     11  H   UNL     1       2.641  -8.312  -1.859  0.00  0.00    +0.145 HD
ATOM     12  H   UNL     1       1.024  -8.520  -2.264  0.00  0.00    +0.145 HD
ATOM     13  H   UNL     1       4.232  -3.662  -3.830  0.00  0.00    +0.149 HD
ENDROOT
BRANCH   3  14
ATOM     14  C   UNL     1      -0.420  -4.581  -5.717  0.00  0.00    +0.014 A 
ATOM     15  C   UNL     1       0.147  -5.368  -6.702  0.00  0.00    +0.048 A 
ATOM     16  C   UNL     1      -0.657  -5.979  -7.649  0.00  0.00    +0.020 A 
ATOM     17  C   UNL     1      -2.027  -5.801  -7.609  0.00  0.00    +0.003 A 
ATOM     18  C   UNL     1      -2.595  -5.014  -6.625  0.00  0.00    +0.020 A 
ATOM     19  C   UNL     1      -1.792  -4.409  -5.675  0.00  0.00    +0.048 A 
ATOM     20 CL   UNL     1      -2.506  -3.427  -4.433  0.00  0.00    -0.083 Cl
ATOM     21 CL   UNL     1       1.868  -5.590  -6.753  0.00  0.00    -0.083 Cl
ENDBRANCH   3  14
BRANCH   1  25
ATOM     22  C   UNL     1       0.606  -0.607  -1.056  0.00  0.00    +0.120 A 
ATOM     23  C   UNL     1       1.173   0.161  -2.062  0.00  0.00    +0.046 A 
ATOM     24  C   UNL     1       1.786  -0.455  -3.136  0.00  0.00    +0.009 A 
ATOM     25  C   UNL     1       1.835  -1.835  -3.209  0.00  0.00    -0.027 A 
ATOM     26  C   UNL     1       1.270  -2.602  -2.207  0.00  0.00    +0.009 A 
ATOM     27  C   UNL     1       0.661  -1.992  -1.128  0.00  0.00    +0.046 A 
BRANCH  22  29
ATOM     28  C   UNL     1      -0.017   1.425   0.010  0.00  0.00    +0.277 C 
ATOM     29  O   UNL     1       0.002  -0.004   0.002  0.00  0.00    -0.495 OA
ENDBRANCH  22  29
ENDBRANCH   1  25
TORSDOF 3
