REMARK  Name = ZINC09245324
REMARK  7 active torsions:
REMARK  status: ('A' for Active; 'I' for Inactive)
REMARK    1  A    between atoms: C_4  and  C_7
REMARK    2  A    between atoms: C_7  and  C_8
REMARK    3  A    between atoms: C_7  and  C_14
REMARK    4  A    between atoms: C_7  and  O_33
REMARK    5  A    between atoms: C_14  and  O_16
REMARK    6  A    between atoms: O_16  and  C_17
REMARK    7  A    between atoms: C_17  and  C_18
REMARK                            x       y       z     vdW  Elec       q    Type
REMARK                         _______ _______ _______ _____ _____    ______ ____
ROOT
ATOM      1  C   UNL     1       2.964   6.337   0.460  0.00  0.00    +0.349 C 
ATOM      2  O   UNL     1       3.983   5.772   0.779  0.00  0.00    -0.247 OA
ENDROOT
BRANCH   1   3
ATOM      3  C   UNL     1       3.007   7.775   0.013  0.00  0.00    +0.213 C 
BRANCH   3   7
ATOM      4  C   UNL     1       2.173  10.324   3.338  0.00  0.00    +0.000 A 
ATOM      5  C   UNL     1       1.645  10.615   2.095  0.00  0.00    +0.000 A 
ATOM      6  C   UNL     1       1.915   9.791   1.019  0.00  0.00    +0.007 A 
ATOM      7  C   UNL     1       2.713   8.675   1.187  0.00  0.00    -0.001 A 
ATOM      8  C   UNL     1       3.236   8.380   2.432  0.00  0.00    +0.007 A 
ATOM      9  C   UNL     1       2.970   9.207   3.506  0.00  0.00    +0.000 A 
ENDBRANCH   3   7
BRANCH   3  10
ATOM     10  C   UNL     1       4.377   8.091  -0.530  0.00  0.00    -0.001 A 
ATOM     11  C   UNL     1       5.477   8.057   0.305  0.00  0.00    +0.007 A 
ATOM     12  C   UNL     1       6.734   8.342  -0.195  0.00  0.00    +0.000 A 
ATOM     13  C   UNL     1       6.889   8.671  -1.529  0.00  0.00    +0.000 A 
ATOM     14  C   UNL     1       5.787   8.711  -2.363  0.00  0.00    +0.000 A 
ATOM     15  C   UNL     1       4.531   8.421  -1.864  0.00  0.00    +0.007 A 
ENDBRANCH   3  10
BRANCH   3  16
ATOM     16  O   UNL     1       2.029   7.987  -1.006  0.00  0.00    -0.370 OA
ATOM     17  H   UNL     1       2.156   7.440  -1.794  0.00  0.00    +0.212 HD
ENDBRANCH   3  16
ENDBRANCH   1   3
BRANCH   1  18
ATOM     18  O   UNL     1       1.792   5.682   0.503  0.00  0.00    -0.454 OA
BRANCH  18  19
ATOM     19  C   UNL     1       1.826   4.299   0.943  0.00  0.00    +0.306 C 
BRANCH  19  20
ATOM     20  C   UNL     1       0.429   3.733   0.927  0.00  0.00    +0.148 A 
ATOM     21  N   UNL     1       0.236   2.445   1.305  0.00  0.00    -0.305 N 
ATOM     22  H   UNL     1       0.993   1.905   1.581  0.00  0.00    +0.170 HD
ATOM     23  C   UNL     1      -1.004   1.909   1.302  0.00  0.00    +0.295 A 
ATOM     24  O   UNL     1      -1.184   0.751   1.640  0.00  0.00    -0.264 OA
ATOM     25  C   UNL     1      -2.087   2.718   0.891  0.00  0.00    +0.218 A 
ATOM     26  C   UNL     1      -1.819   4.033   0.520  0.00  0.00    +0.124 A 
ATOM     27  N   UNL     1      -0.559   4.495   0.550  0.00  0.00    -0.226 NA
ATOM     28  C   UNL     1      -3.119   4.617   0.157  0.00  0.00    +0.046 A 
ATOM     29  C   UNL     1      -3.527   5.871  -0.294  0.00  0.00    +0.014 A 
ATOM     30  C   UNL     1      -4.860   6.103  -0.552  0.00  0.00    +0.001 A 
ATOM     31  C   UNL     1      -5.793   5.094  -0.365  0.00  0.00    +0.004 A 
ATOM     32  C   UNL     1      -5.403   3.850   0.080  0.00  0.00    +0.047 A 
ATOM     33  C   UNL     1      -4.063   3.594   0.347  0.00  0.00    +0.138 A 
ATOM     34  O   UNL     1      -3.413   2.494   0.783  0.00  0.00    -0.448 OA
ENDBRANCH  19  20
ENDBRANCH  18  19
ENDBRANCH   1  18
TORSDOF 7
