REMARK  Name = ZINC04988149
REMARK  4 active torsions:
REMARK  status: ('A' for Active; 'I' for Inactive)
REMARK    1  A    between atoms: C_6  and  S_7
REMARK    2  A    between atoms: S_7  and  N_10
REMARK    3  A    between atoms: N_10  and  C_11
REMARK    4  A    between atoms: C_16  and  O_17
REMARK                            x       y       z     vdW  Elec       q    Type
REMARK                         _______ _______ _______ _____ _____    ______ ____
ROOT
ATOM      1  S   UNL     1      -2.564   1.386   0.739  0.00  0.00    +0.072 S 
ATOM      2  O   UNL     1      -3.652   2.270   0.506  0.00  0.00    -0.150 OA
ATOM      3  O   UNL     1      -2.589   0.024   0.336  0.00  0.00    -0.150 OA
ENDROOT
BRANCH   1   9
ATOM      4  C   UNL     1      -2.671   2.474   3.240  0.00  0.00    +0.032 A 
ATOM      5  C   UNL     1      -2.440   2.477   4.601  0.00  0.00    +0.048 A 
ATOM      6  C   UNL     1      -1.812   1.394   5.208  0.00  0.00    +0.135 A 
ATOM      7  C   UNL     1      -1.420   0.310   4.443  0.00  0.00    -0.003 A 
ATOM      8  C   UNL     1      -1.655   0.313   3.077  0.00  0.00    +0.036 A 
ATOM      9  C   UNL     1      -2.274   1.392   2.477  0.00  0.00    +0.109 A 
ATOM     10  C   UNL     1      -0.747  -0.893   5.052  0.00  0.00    +0.050 C 
ATOM     11  C   UNL     1      -0.157  -0.522   6.417  0.00  0.00    +0.126 C 
ATOM     12  C   UNL     1      -1.192   0.310   7.149  0.00  0.00    +0.313 C 
ATOM     13  O   UNL     1      -1.632  -0.032   8.221  0.00  0.00    -0.250 OA
ATOM     14  O   UNL     1      -1.597   1.446   6.551  0.00  0.00    -0.426 OA
ENDBRANCH   1   9
BRANCH   1  15
ATOM     15  N   UNL     1      -1.237   2.068   0.019  0.00  0.00    -0.213 N 
ATOM     16  H   UNL     1      -1.334   2.873  -0.513  0.00  0.00    +0.174 HD
BRANCH  15  17
ATOM     17  C   UNL     1       0.024   1.483   0.179  0.00  0.00    +0.091 A 
ATOM     18  C   UNL     1       0.147   0.103   0.246  0.00  0.00    +0.048 A 
ATOM     19  C   UNL     1       1.395  -0.473   0.399  0.00  0.00    +0.043 A 
ATOM     20  C   UNL     1       2.522   0.325   0.485  0.00  0.00    +0.024 A 
ATOM     21  C   UNL     1       2.406   1.701   0.420  0.00  0.00    +0.049 A 
ATOM     22  C   UNL     1       1.160   2.285   0.267  0.00  0.00    +0.139 A 
ATOM     23 CL   UNL     1       1.548  -2.200   0.482  0.00  0.00    -0.083 Cl
BRANCH  22  24
ATOM     24  O   UNL     1       1.045   3.639   0.202  0.00  0.00    -0.505 OA
ATOM     25  H   UNL     1       0.920   4.065   1.061  0.00  0.00    +0.292 HD
ENDBRANCH  22  24
ENDBRANCH  15  17
ENDBRANCH   1  15
TORSDOF 4
