REMARK  Name = ZINC15002754
REMARK  7 active torsions:
REMARK  status: ('A' for Active; 'I' for Inactive)
REMARK    1  A    between atoms: C_6  and  C_7
REMARK    2  A    between atoms: C_7  and  O_31
REMARK    3  A    between atoms: C_12  and  C_13
REMARK    4  A    between atoms: C_12  and  N_59
REMARK    5  A    between atoms: C_16  and  C_21
REMARK    6  A    between atoms: N_23  and  C_24
REMARK    7  A    between atoms: C_24  and  C_25
REMARK                            x       y       z     vdW  Elec       q    Type
REMARK                         _______ _______ _______ _____ _____    ______ ____
ROOT
ATOM      1  C   UNL     1      -9.503   1.762   0.303  0.00  0.00    +0.003 A 
ATOM      2  C   UNL     1      -9.410   0.824  -0.674  0.00  0.00    +0.020 A 
ATOM      3  C   UNL     1      -8.172   0.526  -1.243  0.00  0.00    +0.020 A 
ATOM      4  C   UNL     1      -7.040   1.197  -0.784  0.00  0.00    +0.101 A 
ATOM      5  C   UNL     1      -7.188   2.169   0.239  0.00  0.00    +0.261 A 
ATOM      6  O   UNL     1      -6.214   2.773   0.654  0.00  0.00    -0.267 OA
ATOM      7  N   UNL     1      -8.408   2.422   0.750  0.00  0.00    -0.327 N 
ATOM      8  H   UNL     1      -8.504   3.088   1.449  0.00  0.00    +0.169 HD
ENDROOT
BRANCH   4   9
ATOM      9  C   UNL     1      -5.716   0.907  -1.355  0.00  0.00    +0.249 C 
ATOM     10  O   UNL     1      -5.615   0.155  -2.306  0.00  0.00    -0.270 OA
ATOM     11  N   UNL     1      -4.614   1.473  -0.824  0.00  0.00    -0.309 N 
ATOM     12  H   UNL     1      -4.700   2.129  -0.113  0.00  0.00    +0.149 HD
BRANCH  11  13
ATOM     13  C   UNL     1      -3.287   1.100  -1.319  0.00  0.00    +0.136 C 
BRANCH  13  14
ATOM     14  C   UNL     1      -2.218   1.882  -0.553  0.00  0.00    +0.135 C 
ATOM     15  C   UNL     1      -0.828   1.591  -1.150  0.00  0.00    +0.035 C 
ATOM     16  C   UNL     1      -0.018   1.015   0.038  0.00  0.00    +0.031 C 
ATOM     17  C   UNL     1      -0.818   1.536   1.260  0.00  0.00    +0.160 C 
ATOM     18  O   UNL     1      -2.192   1.458   0.820  0.00  0.00    -0.375 OA
ENDBRANCH  13  14
ENDBRANCH  11  13
ENDBRANCH   4   9
BRANCH   1  19
ATOM     19  C   UNL     1     -10.850   2.075   0.902  0.00  0.00    -0.025 C 
BRANCH  19  25
ATOM     20  C   UNL     1     -11.835   0.377   4.700  0.00  0.00    +0.088 C 
ATOM     21  C   UNL     1     -11.968   1.888   4.493  0.00  0.00    +0.021 C 
ATOM     22  C   UNL     1     -12.062   2.186   2.995  0.00  0.00    -0.075 C 
ATOM     23  C   UNL     1     -10.736   0.229   2.464  0.00  0.00    -0.075 C 
ATOM     24  C   UNL     1     -10.602  -0.128   3.946  0.00  0.00    +0.021 C 
ATOM     25  N   UNL     1     -10.835   1.698   2.331  0.00  0.00    +0.383 N 
ATOM     26  H   UNL     1     -10.019   2.129   2.781  0.00  0.00    -0.081 HD
BRANCH  20  32
ATOM     27  C   UNL     1     -11.072   1.002   7.001  0.00  0.00    +0.008 A 
ATOM     28  C   UNL     1     -10.938   0.735   8.350  0.00  0.00    +0.020 A 
ATOM     29  C   UNL     1     -11.405  -0.460   8.868  0.00  0.00    +0.041 A 
ATOM     30  C   UNL     1     -12.011  -1.384   8.035  0.00  0.00    +0.020 A 
ATOM     31  C   UNL     1     -12.150  -1.113   6.687  0.00  0.00    +0.008 A 
ATOM     32  C   UNL     1     -11.683   0.081   6.170  0.00  0.00    -0.016 A 
ATOM     33 CL   UNL     1     -11.231  -0.800  10.561  0.00  0.00    -0.084 Cl
ENDBRANCH  20  32
BRANCH  20  34
ATOM     34  O   UNL     1     -13.002  -0.278   4.200  0.00  0.00    -0.384 OA
ATOM     35  H   UNL     1     -12.986  -1.240   4.299  0.00  0.00    +0.211 HD
ENDBRANCH  20  34
ENDBRANCH  19  25
ENDBRANCH   1  19
TORSDOF 7
