REMARK  Name = ZINC64568232
REMARK  8 active torsions:
REMARK  status: ('A' for Active; 'I' for Inactive)
REMARK    1  A    between atoms: C_1  and  C_2
REMARK    2  A    between atoms: C_5  and  C_8
REMARK    3  A    between atoms: C_19  and  S_22
REMARK    4  A    between atoms: S_22  and  C_23
REMARK    5  A    between atoms: C_23  and  C_24
REMARK    6  A    between atoms: N_26  and  C_27
REMARK    7  A    between atoms: C_27  and  C_28
REMARK    8  A    between atoms: C_28  and  C_29
REMARK                            x       y       z     vdW  Elec       q    Type
REMARK                         _______ _______ _______ _____ _____    ______ ____
ROOT
ATOM      1  C   UNL     1       0.059  -4.275  -0.021  0.00  0.00    +0.207 C 
ATOM      2  N   UNL     1       0.959  -4.761   1.035  0.00  0.00    -0.320 N 
ATOM      3  C   UNL     1       0.541  -4.829   2.364  0.00  0.00    +0.040 A 
ATOM      4  C   UNL     1       1.437  -4.684   3.409  0.00  0.00    +0.024 A 
ATOM      5  C   UNL     1       0.993  -4.777   4.715  0.00  0.00    +0.002 A 
ATOM      6  C   UNL     1      -0.342  -5.016   4.993  0.00  0.00    +0.001 A 
ATOM      7  C   UNL     1      -1.254  -5.156   3.963  0.00  0.00    +0.013 A 
ATOM      8  C   UNL     1      -0.820  -5.054   2.650  0.00  0.00    +0.040 A 
ATOM      9  C   UNL     1      -1.730  -5.142   1.494  0.00  0.00    +0.168 A 
ATOM     10  N   UNL     1      -1.288  -4.783   0.226  0.00  0.00    -0.279 N 
ATOM     11  C   UNL     1      -2.332  -5.000  -0.604  0.00  0.00    +0.194 A 
ATOM     12  N   UNL     1      -3.334  -5.426   0.139  0.00  0.00    -0.122 NA
ATOM     13  N   UNL     1      -2.972  -5.494   1.382  0.00  0.00    -0.128 NA
ATOM     14  H   UNL     1       1.859  -5.040   0.803  0.00  0.00    +0.148 HD
ENDROOT
BRANCH   1  19
ATOM     15  C   UNL     1      -0.018   1.503   0.010  0.00  0.00    +0.044 C 
ATOM     16  C   UNL     1       0.002  -0.004   0.002  0.00  0.00    -0.050 A 
ATOM     17  C   UNL     1       0.006  -0.689  -1.199  0.00  0.00    +0.004 A 
ATOM     18  C   UNL     1       0.025  -2.071  -1.206  0.00  0.00    +0.007 A 
ATOM     19  C   UNL     1       0.040  -2.768  -0.013  0.00  0.00    -0.007 A 
ATOM     20  C   UNL     1       0.037  -2.084   1.188  0.00  0.00    +0.007 A 
ATOM     21  C   UNL     1       0.023  -0.702   1.195  0.00  0.00    +0.004 A 
ENDBRANCH   1  19
BRANCH  11  22
ATOM     22  S   UNL     1      -2.349  -4.758  -2.349  0.00  0.00    -0.077 S 
BRANCH  22  23
ATOM     23  C   UNL     1      -4.032  -5.228  -2.840  0.00  0.00    +0.173 C 
BRANCH  23  24
ATOM     24  C   UNL     1      -4.184  -5.066  -4.331  0.00  0.00    +0.223 C 
ATOM     25  O   UNL     1      -3.249  -4.672  -4.996  0.00  0.00    -0.275 OA
ATOM     26  N   UNL     1      -5.358  -5.358  -4.924  0.00  0.00    -0.314 N 
ATOM     27  H   UNL     1      -6.105  -5.673  -4.392  0.00  0.00    +0.149 HD
BRANCH  26  28
ATOM     28  C   UNL     1      -5.506  -5.200  -6.373  0.00  0.00    +0.108 C 
BRANCH  28  29
ATOM     29  C   UNL     1      -6.925  -5.597  -6.787  0.00  0.00    +0.065 C 
BRANCH  29  30
ATOM     30  C   UNL     1      -7.079  -5.432  -8.300  0.00  0.00    +0.175 C 
ATOM     31  N   UNL     1      -6.910  -4.022  -8.673  0.00  0.00    -0.363 N 
ATOM     32  C   UNL     1      -8.020  -3.629  -9.229  0.00  0.00    +0.060 A 
ATOM     33  C   UNL     1      -8.452  -2.345  -9.797  0.00  0.00    +0.027 A 
ATOM     34  C   UNL     1      -9.691  -2.231 -10.316  0.00  0.00    +0.002 A 
ATOM     35  C   UNL     1     -10.605  -3.300 -10.338  0.00  0.00    +0.002 A 
ATOM     36  C   UNL     1     -10.310  -4.518  -9.844  0.00  0.00    +0.027 A 
ATOM     37  C   UNL     1      -8.986  -4.760  -9.253  0.00  0.00    +0.060 A 
ATOM     38  N   UNL     1      -8.437  -5.809  -8.712  0.00  0.00    -0.363 N 
ATOM     39  H   UNL     1      -6.116  -3.482  -8.532  0.00  0.00    +0.162 HD
ATOM     40  H   UNL     1      -8.849  -6.680  -8.602  0.00  0.00    +0.162 HD
ENDBRANCH  29  30
ENDBRANCH  28  29
ENDBRANCH  26  28
ENDBRANCH  23  24
ENDBRANCH  22  23
ENDBRANCH  11  22
TORSDOF 7
