REMARK  Name = ZINC23370930
REMARK  4 active torsions:
REMARK  status: ('A' for Active; 'I' for Inactive)
REMARK    1  A    between atoms: C_6  and  S_11
REMARK    2  A    between atoms: S_11  and  N_14
REMARK    3  A    between atoms: N_14  and  C_15
REMARK    4  A    between atoms: C_20  and  C_21
REMARK                            x       y       z     vdW  Elec       q    Type
REMARK                         _______ _______ _______ _____ _____    ______ ____
ROOT
ATOM      1  C   UNL     1       0.007   3.784  -0.329  0.00  0.00    +0.059 A 
ATOM      2  C   UNL     1       1.028   2.848  -0.407  0.00  0.00    +0.025 A 
ATOM      3  C   UNL     1       0.733   1.499  -0.384  0.00  0.00    +0.002 A 
ATOM      4  C   UNL     1      -0.581   1.071  -0.285  0.00  0.00    +0.001 A 
ATOM      5  C   UNL     1      -1.608   1.989  -0.212  0.00  0.00    +0.013 A 
ATOM      6  C   UNL     1      -1.323   3.354  -0.228  0.00  0.00    +0.042 A 
ENDROOT
BRANCH   6   7
ATOM      7  C   UNL     1      -2.419   4.343  -0.145  0.00  0.00    +0.166 A 
ATOM      8  N   UNL     1      -2.467   5.398   0.641  0.00  0.00    -0.129 NA
ATOM      9  N   UNL     1      -3.566   6.038   0.443  0.00  0.00    -0.134 NA
ATOM     10  C   UNL     1      -4.272   5.438  -0.472  0.00  0.00    +0.134 A 
ATOM     11  N   UNL     1      -3.574   4.341  -0.872  0.00  0.00    -0.311 N 
ATOM     12  C   UNL     1      -4.001   3.348  -1.859  0.00  0.00    +0.125 C 
ATOM     13  C   UNL     1      -4.935   4.015  -2.873  0.00  0.00    +0.022 C 
ATOM     14  C   UNL     1      -6.379   3.920  -2.384  0.00  0.00    +0.002 C 
ATOM     15  C   UNL     1      -6.545   4.650  -1.055  0.00  0.00    +0.008 C 
ATOM     16  C   UNL     1      -5.612   5.864  -1.015  0.00  0.00    +0.076 C 
ENDBRANCH   6   7
BRANCH   1  17
ATOM     17  N   UNL     1       0.303   5.146  -0.352  0.00  0.00    -0.216 N 
ATOM     18  H   UNL     1      -0.293   5.848   0.249  0.00  0.00    +0.174 HD
BRANCH  17  19
ATOM     19  S   UNL     1       1.552   5.706  -1.284  0.00  0.00    +0.072 S 
ATOM     20  O   UNL     1       1.515   7.125  -1.201  0.00  0.00    -0.150 OA
ATOM     21  O   UNL     1       2.700   4.952  -0.920  0.00  0.00    -0.150 OA
BRANCH  19  27
ATOM     22  C   UNL     1      -0.374   5.139  -7.685  0.00  0.00    +0.001 A 
ATOM     23  C   UNL     1      -0.808   6.359  -7.171  0.00  0.00    +0.001 A 
ATOM     24  C   UNL     1      -0.540   6.712  -5.884  0.00  0.00    +0.008 A 
ATOM     25  C   UNL     1       0.183   5.834  -5.059  0.00  0.00    -0.016 A 
ATOM     26  C   UNL     1       0.479   6.164  -3.725  0.00  0.00    +0.037 A 
ATOM     27  C   UNL     1       1.183   5.289  -2.955  0.00  0.00    +0.109 A 
ATOM     28  C   UNL     1       1.621   4.071  -3.471  0.00  0.00    +0.029 A 
ATOM     29  C   UNL     1       1.348   3.716  -4.756  0.00  0.00    +0.010 A 
ATOM     30  C   UNL     1       0.624   4.593  -5.582  0.00  0.00    -0.018 A 
ATOM     31  C   UNL     1       0.330   4.264  -6.916  0.00  0.00    +0.008 A 
ENDBRANCH  19  27
ENDBRANCH  17  19
ENDBRANCH   1  17
TORSDOF 4
