REMARK  Name = ZINC64164388
REMARK  11 active torsions:
REMARK  status: ('A' for Active; 'I' for Inactive)
REMARK    1  A    between atoms: C_1  and  O_2
REMARK    2  A    between atoms: O_2  and  C_3
REMARK    3  A    between atoms: C_7  and  C_12
REMARK    4  A    between atoms: C_12  and  C_13
REMARK    5  A    between atoms: C_13  and  N_14
REMARK    6  A    between atoms: C_15  and  C_17
REMARK    7  A    between atoms: C_17  and  S_18
REMARK    8  A    between atoms: S_18  and  C_19
REMARK    9  A    between atoms: N_24  and  C_25
REMARK   10  A    between atoms: C_30  and  O_31
REMARK   11  A    between atoms: O_31  and  C_32
REMARK                            x       y       z     vdW  Elec       q    Type
REMARK                         _______ _______ _______ _____ _____    ______ ____
ROOT
ATOM      1  C   UNL     1       7.369  -1.237  -7.701  0.00  0.00    +0.167 C 
ENDROOT
BRANCH   1   3
ATOM      2  N   UNL     1       5.313  -1.753  -6.427  0.00  0.00    -0.314 N 
ATOM      3  C   UNL     1       6.657  -1.657  -6.441  0.00  0.00    +0.223 C 
ATOM      4  O   UNL     1       7.293  -1.908  -5.439  0.00  0.00    -0.275 OA
ATOM      5  H   UNL     1       4.804  -1.552  -7.228  0.00  0.00    +0.149 HD
BRANCH   2   6
ATOM      6  C   UNL     1       4.620  -2.161  -5.202  0.00  0.00    +0.108 C 
BRANCH   6   7
ATOM      7  C   UNL     1       3.112  -2.190  -5.455  0.00  0.00    +0.052 C 
BRANCH   7  12
ATOM      8  C   UNL     1       0.605  -0.606  -1.053  0.00  0.00    +0.122 A 
ATOM      9  C   UNL     1       1.171   0.200  -2.059  0.00  0.00    +0.046 A 
ATOM     10  C   UNL     1       1.785  -0.338  -3.135  0.00  0.00    +0.013 A 
ATOM     11  C   UNL     1       1.862  -1.799  -3.257  0.00  0.00    -0.001 A 
ATOM     12  C   UNL     1       2.399  -2.610  -4.195  0.00  0.00    -0.040 C 
ATOM     13  C   UNL     1       2.142  -4.025  -3.725  0.00  0.00    +0.144 C 
ATOM     14  N   UNL     1       1.419  -3.902  -2.454  0.00  0.00    -0.380 N 
ATOM     15  C   UNL     1       1.260  -2.626  -2.186  0.00  0.00    +0.046 A 
ATOM     16  C   UNL     1       0.643  -1.962  -1.097  0.00  0.00    +0.071 A 
ATOM     17  H   UNL     1       1.112  -4.639  -1.904  0.00  0.00    +0.160 HD
BRANCH   8  19
ATOM     18  C   UNL     1      -0.017   1.425   0.010  0.00  0.00    +0.277 C 
ATOM     19  O   UNL     1       0.002  -0.004   0.002  0.00  0.00    -0.495 OA
ENDBRANCH   8  19
ENDBRANCH   7  12
ENDBRANCH   6   7
ENDBRANCH   2   6
ENDBRANCH   1   3
BRANCH   1  20
ATOM     20  S   UNL     1       9.158  -1.202  -7.401  0.00  0.00    -0.114 S 
BRANCH  20  21
ATOM     21  C   UNL     1       9.860  -0.685  -8.992  0.00  0.00    +0.203 C 
ATOM     22  N   UNL     1       9.292   0.623  -9.401  0.00  0.00    -0.320 NA
ATOM     23  N   UNL     1       9.108   0.456 -10.853  0.00  0.00    +0.411 N 
ATOM     24  N   UNL     1       8.716  -0.955 -10.971  0.00  0.00    -0.265 NA
ATOM     25  N   UNL     1       9.477  -1.637 -10.049  0.00  0.00    -0.251 N 
ATOM     26  H   UNL     1       8.410   0.794  -8.942  0.00  0.00    +0.106 HD
ATOM     27  H   UNL     1       8.374   1.060 -11.192  0.00  0.00    -0.031 HD
ATOM     28  H   UNL     1       7.731  -1.073 -10.786  0.00  0.00    +0.125 HD
ATOM     29  H   UNL     1       9.972   0.629 -11.345  0.00  0.00    -0.031 HD
BRANCH  25  30
ATOM     30  C   UNL     1       9.825  -2.991 -10.105  0.00  0.00    +0.087 A 
ATOM     31  C   UNL     1       9.526  -3.831  -9.042  0.00  0.00    +0.028 A 
ATOM     32  C   UNL     1       9.870  -5.168  -9.100  0.00  0.00    +0.002 A 
ATOM     33  C   UNL     1      10.514  -5.672 -10.215  0.00  0.00    +0.004 A 
ATOM     34  C   UNL     1      10.816  -4.841 -11.278  0.00  0.00    +0.047 A 
ATOM     35  C   UNL     1      10.469  -3.501 -11.230  0.00  0.00    +0.142 A 
BRANCH  35  36
ATOM     36  O   UNL     1      10.761  -2.684 -12.278  0.00  0.00    -0.493 OA
ATOM     37  C   UNL     1      11.422  -3.276 -13.398  0.00  0.00    +0.277 C 
ENDBRANCH  35  36
ENDBRANCH  25  30
ENDBRANCH  20  21
ENDBRANCH   1  20
TORSDOF 9
