REMARK  Name = ZINC66952664
REMARK  4 active torsions:
REMARK  status: ('A' for Active; 'I' for Inactive)
REMARK    1  A    between atoms: C_10  and  C_11
REMARK    2  A    between atoms: C_10  and  O_25
REMARK    3  A    between atoms: C_11  and  N_12
REMARK    4  A    between atoms: N_15  and  C_16
REMARK                            x       y       z     vdW  Elec       q    Type
REMARK                         _______ _______ _______ _____ _____    ______ ____
ROOT
ATOM      1  N   UNL     1       5.965  -0.668   0.958  0.00  0.00    -0.296 N 
ATOM      2  C   UNL     1       6.923  -0.275   1.821  0.00  0.00    +0.304 C 
ATOM      3  O   UNL     1       6.736   0.690   2.538  0.00  0.00    -0.253 OA
ATOM      4  N   UNL     1       8.087  -0.950   1.889  0.00  0.00    -0.265 N 
ATOM      5  H   UNL     1       6.113  -1.437   0.386  0.00  0.00    +0.150 HD
ATOM      6  H   UNL     1       8.262  -1.677   1.271  0.00  0.00    +0.157 HD
ENDROOT
BRANCH   4   7
ATOM      7  C   UNL     1       9.043  -0.603   2.853  0.00  0.00    +0.101 A 
ATOM      8  C   UNL     1       9.457  -1.520   3.780  0.00  0.00    +0.045 A 
ATOM      9  C   UNL     1      10.415  -1.147   4.734  0.00  0.00    +0.036 A 
ATOM     10  C   UNL     1      10.920   0.109   4.731  0.00  0.00    +0.101 A 
ATOM     11  N   UNL     1      10.509   1.022   3.810  0.00  0.00    -0.327 N 
ATOM     12  H   UNL     1      10.882   1.917   3.824  0.00  0.00    +0.168 HD
ATOM     13  C   UNL     1       9.595   0.696   2.876  0.00  0.00    +0.270 A 
ATOM     14  O   UNL     1       9.241   1.525   2.053  0.00  0.00    -0.266 OA
ATOM     15 BR   UNL     1      11.002  -2.398   6.025  0.00  0.00    -0.049 Br
ENDBRANCH   4   7
BRANCH   1  16
ATOM     16  C   UNL     1       4.699   0.067   0.883  0.00  0.00    +0.145 C 
BRANCH  16  26
ATOM     17  C   UNL     1       0.009   1.425  -0.041  0.00  0.00    +0.000 A 
ATOM     18  C   UNL     1       1.205   2.119  -0.044  0.00  0.00    +0.000 A 
ATOM     19  C   UNL     1       2.398   1.427  -0.053  0.00  0.00    +0.007 A 
ATOM     20  C   UNL     1       2.409   0.038  -0.056  0.00  0.00    -0.011 A 
ATOM     21  C   UNL     1       1.218  -0.653  -0.047  0.00  0.00    -0.041 A 
ATOM     22  C   UNL     1       0.017   0.046  -0.042  0.00  0.00    +0.004 A 
ATOM     23  C   UNL     1       1.154  -2.158  -0.034  0.00  0.00    +0.035 C 
ATOM     24  C   UNL     1       2.489  -2.757  -0.470  0.00  0.00    +0.008 C 
ATOM     25  C   UNL     1       3.604  -2.111   0.362  0.00  0.00    +0.041 C 
ATOM     26  C   UNL     1       3.747  -0.654  -0.073  0.00  0.00    +0.107 C 
BRANCH  26  27
ATOM     27  O   UNL     1       4.284  -0.608  -1.396  0.00  0.00    -0.382 OA
ATOM     28  H   UNL     1       4.420   0.288  -1.734  0.00  0.00    +0.211 HD
ENDBRANCH  26  27
ENDBRANCH  16  26
ENDBRANCH   1  16
TORSDOF 4
