REMARK  Name = ZINC09541425
REMARK  9 active torsions:
REMARK  status: ('A' for Active; 'I' for Inactive)
REMARK    1  A    between atoms: C_1  and  C_2
REMARK    2  A    between atoms: C_2  and  O_3
REMARK    3  A    between atoms: O_3  and  C_4
REMARK    4  A    between atoms: C_8  and  C_11
REMARK    5  A    between atoms: C_9  and  O_10
REMARK    6  A    between atoms: C_14  and  C_26
REMARK    7  A    between atoms: C_16  and  C_18
REMARK    8  A    between atoms: C_23  and  O_24
REMARK    9  A    between atoms: O_24  and  C_25
REMARK                            x       y       z     vdW  Elec       q    Type
REMARK                         _______ _______ _______ _____ _____    ______ ____
ROOT
ATOM      1  C   UNL     1       1.271   5.542   2.030  0.00  0.00    -0.028 C 
ATOM      2  C   UNL     1       0.207   6.380   2.747  0.00  0.00    +0.044 C 
ATOM      3  C   UNL     1      -1.099   6.266   2.012  0.00  0.00    +0.040 C 
ATOM      4  N   UNL     1      -1.192   5.816   0.818  0.00  0.00    -0.298 NA
ATOM      5  C   UNL     1      -0.059   5.351   0.028  0.00  0.00    +0.084 C 
ATOM      6  N   UNL     1       1.207   5.848   0.588  0.00  0.00    +0.401 N 
ATOM      7  H   UNL     1       1.993   5.394   0.108  0.00  0.00    -0.081 HD
ATOM      8  H   UNL     1       1.263   6.864   0.452  0.00  0.00    -0.081 HD
ENDROOT
BRANCH   3   9
ATOM      9  C   UNL     1      -2.333   6.694   2.700  0.00  0.00    -0.004 A 
ATOM     10  C   UNL     1      -2.272   7.186   4.006  0.00  0.00    +0.011 A 
ATOM     11  C   UNL     1      -3.428   7.589   4.641  0.00  0.00    +0.016 A 
ATOM     12  C   UNL     1      -4.647   7.497   3.992  0.00  0.00    +0.018 A 
ATOM     13  C   UNL     1      -4.714   7.005   2.699  0.00  0.00    +0.016 A 
ATOM     14  C   UNL     1      -3.566   6.603   2.050  0.00  0.00    +0.011 A 
ATOM     15 BR   UNL     1      -6.228   8.044   4.874  0.00  0.00    -0.050 Br
ENDBRANCH   3   9
BRANCH   1  20
ATOM     16  C   UNL     1       4.390   5.585   4.176  0.00  0.00    +0.162 A 
ATOM     17  C   UNL     1       5.151   6.545   3.529  0.00  0.00    +0.049 A 
ATOM     18  C   UNL     1       4.655   7.176   2.403  0.00  0.00    +0.004 A 
ATOM     19  C   UNL     1       3.402   6.851   1.919  0.00  0.00    +0.006 A 
ATOM     20  C   UNL     1       2.638   5.894   2.560  0.00  0.00    -0.016 A 
ATOM     21  C   UNL     1       3.125   5.262   3.693  0.00  0.00    +0.160 A 
BRANCH  21  22
ATOM     22  O   UNL     1       2.373   4.324   4.327  0.00  0.00    -0.503 OA
ATOM     23  H   UNL     1       2.513   3.423   4.005  0.00  0.00    +0.292 HD
ENDBRANCH  21  22
BRANCH  16  24
ATOM     24  O   UNL     1       4.875   4.963   5.283  0.00  0.00    -0.489 OA
BRANCH  24  26
ATOM     25  C   UNL     1       6.551   4.550   6.975  0.00  0.00    +0.048 C 
ATOM     26  C   UNL     1       6.178   5.350   5.726  0.00  0.00    +0.226 C 
ENDBRANCH  24  26
ENDBRANCH  16  24
ENDBRANCH   1  20
BRANCH   5  27
ATOM     27  C   UNL     1      -0.043   3.844   0.021  0.00  0.00    +0.001 A 
ATOM     28  C   UNL     1       1.161   3.165   0.007  0.00  0.00    +0.007 A 
ATOM     29  C   UNL     1       1.176   1.783   0.000  0.00  0.00    +0.000 A 
ATOM     30  C   UNL     1      -0.013   1.076   0.008  0.00  0.00    +0.004 A 
ATOM     31  C   UNL     1      -1.218   1.750   0.017  0.00  0.00    +0.046 A 
ATOM     32  C   UNL     1      -1.236   3.137   0.029  0.00  0.00    +0.123 A 
BRANCH  32  33
ATOM     33  O   UNL     1      -2.421   3.802   0.044  0.00  0.00    -0.495 OA
ATOM     34  C   UNL     1      -3.610   3.009   0.051  0.00  0.00    +0.277 C 
ENDBRANCH  32  33
ENDBRANCH   5  27
TORSDOF 7
