REMARK  Name = ZINC14459514
REMARK  9 active torsions:
REMARK  status: ('A' for Active; 'I' for Inactive)
REMARK    1  A    between atoms: C_1  and  C_2
REMARK    2  A    between atoms: C_5  and  N_9
REMARK    3  A    between atoms: C_7  and  C_8
REMARK    4  A    between atoms: N_9  and  S_10
REMARK    5  A    between atoms: S_10  and  C_13
REMARK    6  A    between atoms: C_26  and  C_29
REMARK    7  A    between atoms: C_33  and  O_36
REMARK    8  A    between atoms: C_34  and  O_35
REMARK    9  A    between atoms: O_36  and  C_37
REMARK                            x       y       z     vdW  Elec       q    Type
REMARK                         _______ _______ _______ _____ _____    ______ ____
ROOT
ATOM      1  C   UNL     1      -3.317   5.377   2.343  0.00  0.00    +0.109 A 
ATOM      2  C   UNL     1      -2.175   6.144   2.494  0.00  0.00    +0.030 A 
ATOM      3  C   UNL     1      -1.936   7.191   1.626  0.00  0.00    +0.025 A 
ATOM      4  C   UNL     1      -2.845   7.479   0.616  0.00  0.00    +0.031 A 
ATOM      5  C   UNL     1      -3.995   6.719   0.467  0.00  0.00    -0.018 A 
ATOM      6  C   UNL     1      -4.220   5.664   1.340  0.00  0.00    +0.034 A 
ATOM      7  C   UNL     1      -5.004   6.995  -0.602  0.00  0.00    +0.049 C 
ATOM      8  C   UNL     1      -4.918   5.983  -1.719  0.00  0.00    -0.023 C 
ATOM      9  C   UNL     1      -5.153   6.559  -2.872  0.00  0.00    -0.030 C 
ATOM     10  C   UNL     1      -5.433   8.037  -2.681  0.00  0.00    +0.033 C 
ATOM     11  C   UNL     1      -4.783   8.351  -1.302  0.00  0.00    +0.029 C 
ATOM     12  C   UNL     1      -3.287   8.574  -1.543  0.00  0.00    +0.109 C 
ATOM     13  N   UNL     1      -2.588   8.544  -0.254  0.00  0.00    -0.336 N 
ATOM     14  H   UNL     1      -1.964   9.245  -0.011  0.00  0.00    +0.147 HD
ENDROOT
BRANCH  12  15
ATOM     15  C   UNL     1      -2.751   7.482  -2.433  0.00  0.00    +0.018 A 
ATOM     16  C   UNL     1      -2.268   6.312  -1.878  0.00  0.00    +0.009 A 
ATOM     17  C   UNL     1      -1.776   5.308  -2.691  0.00  0.00    +0.004 A 
ATOM     18  C   UNL     1      -1.765   5.471  -4.064  0.00  0.00    +0.049 A 
ATOM     19  C   UNL     1      -2.248   6.641  -4.628  0.00  0.00    +0.162 A 
ATOM     20  C   UNL     1      -2.748   7.649  -3.809  0.00  0.00    +0.163 A 
BRANCH  20  21
ATOM     21  O   UNL     1      -3.227   8.797  -4.357  0.00  0.00    -0.503 OA
ATOM     22  H   UNL     1      -2.559   9.488  -4.470  0.00  0.00    +0.292 HD
ENDBRANCH  20  21
BRANCH  19  23
ATOM     23  O   UNL     1      -2.238   6.801  -5.978  0.00  0.00    -0.491 OA
ATOM     24  C   UNL     1      -1.715   5.723  -6.756  0.00  0.00    +0.277 C 
ENDBRANCH  19  23
ENDBRANCH  12  15
BRANCH   1  25
ATOM     25  S   UNL     1      -3.622   4.034   3.441  0.00  0.00    +0.072 S 
ATOM     26  O   UNL     1      -5.027   3.816   3.436  0.00  0.00    -0.150 OA
ATOM     27  O   UNL     1      -2.898   4.310   4.632  0.00  0.00    -0.150 OA
BRANCH  25  28
ATOM     28  N   UNL     1      -2.932   2.686   2.769  0.00  0.00    -0.216 N 
ATOM     29  H   UNL     1      -3.491   1.946   2.483  0.00  0.00    +0.174 HD
BRANCH  28  34
ATOM     30  C   UNL     1       2.696   2.394   2.143  0.00  0.00    +0.044 C 
ATOM     31  C   UNL     1       1.200   2.472   2.309  0.00  0.00    -0.047 A 
ATOM     32  C   UNL     1       0.661   2.930   3.498  0.00  0.00    +0.005 A 
ATOM     33  C   UNL     1      -0.709   3.002   3.654  0.00  0.00    +0.025 A 
ATOM     34  C   UNL     1      -1.546   2.614   2.615  0.00  0.00    +0.048 A 
ATOM     35  C   UNL     1      -1.001   2.160   1.421  0.00  0.00    +0.028 A 
ATOM     36  C   UNL     1       0.370   2.085   1.274  0.00  0.00    -0.046 A 
ATOM     37  C   UNL     1       0.962   1.587  -0.019  0.00  0.00    +0.044 C 
ENDBRANCH  28  34
ENDBRANCH  25  28
ENDBRANCH   1  25
TORSDOF 6
