REMARK  Name = ZINC67139485
REMARK  9 active torsions:
REMARK  status: ('A' for Active; 'I' for Inactive)
REMARK    1  A    between atoms: C_1  and  C_2
REMARK    2  A    between atoms: C_2  and  C_3
REMARK    3  A    between atoms: C_2  and  N_4
REMARK    4  A    between atoms: C_7  and  N_10
REMARK    5  A    between atoms: C_11  and  C_13
REMARK    6  A    between atoms: C_13  and  C_14
REMARK    7  A    between atoms: C_14  and  C_15
REMARK    8  A    between atoms: C_15  and  C_16
REMARK    9  A    between atoms: C_16  and  C_17
REMARK                            x       y       z     vdW  Elec       q    Type
REMARK                         _______ _______ _______ _____ _____    ______ ____
ROOT
ATOM      1  C   UNL     1      -7.173  -3.057  -1.954  0.00  0.00    +0.096 C 
ENDROOT
BRANCH   1   3
ATOM      2  N   UNL     1      -4.980  -2.461  -0.976  0.00  0.00    -0.313 N 
ATOM      3  C   UNL     1      -5.743  -2.599  -2.079  0.00  0.00    +0.213 C 
ATOM      4  O   UNL     1      -5.278  -2.354  -3.172  0.00  0.00    -0.276 OA
ATOM      5  H   UNL     1      -5.352  -2.657  -0.102  0.00  0.00    +0.149 HD
BRANCH   2   9
ATOM      6  N   UNL     1      -1.376  -0.512   0.012  0.00  0.00    +0.381 N 
ATOM      7  C   UNL     1      -1.355  -1.980   0.013  0.00  0.00    -0.077 C 
ATOM      8  C   UNL     1      -2.785  -2.515   0.106  0.00  0.00    +0.003 C 
ATOM      9  C   UNL     1      -3.590  -2.015  -1.097  0.00  0.00    +0.069 C 
ATOM     10  C   UNL     1      -3.543  -0.485  -1.130  0.00  0.00    +0.003 C 
ATOM     11  C   UNL     1      -2.085  -0.025  -1.177  0.00  0.00    -0.077 C 
ATOM     12  H   UNL     1      -1.848  -0.185   0.842  0.00  0.00    -0.081 HD
BRANCH   6  14
ATOM     13  C   UNL     1      -0.019   1.526   0.010  0.00  0.00    -0.014 C 
ATOM     14  C   UNL     1       0.002  -0.004   0.002  0.00  0.00    -0.075 C 
ATOM     15  C   UNL     1       0.742  -0.511   1.242  0.00  0.00    -0.014 C 
ENDBRANCH   6  14
ENDBRANCH   2   9
ENDBRANCH   1   3
BRANCH   1  16
ATOM     16  C   UNL     1      -7.809  -3.129  -3.343  0.00  0.00    +0.009 C 
BRANCH  16  17
ATOM     17  C   UNL     1      -9.261  -3.594  -3.216  0.00  0.00    +0.002 C 
BRANCH  17  18
ATOM     18  C   UNL     1      -9.896  -3.666  -4.606  0.00  0.00    +0.016 C 
BRANCH  18  19
ATOM     19  C   UNL     1     -11.349  -4.131  -4.479  0.00  0.00    +0.069 C 
ATOM     20  C   UNL     1     -12.004  -4.247  -5.832  0.00  0.00    +0.108 C 
ATOM     21  C   UNL     1     -13.541  -4.052  -5.658  0.00  0.00    +0.105 C 
ATOM     22  C   UNL     1     -13.706  -2.667  -5.036  0.00  0.00    +0.093 C 
ATOM     23  S   UNL     1     -12.405  -2.824  -3.698  0.00  0.00    -0.154 S 
ATOM     24  N   UNL     1     -13.966  -4.326  -7.012  0.00  0.00    -0.294 N 
ATOM     25  C   UNL     1     -13.089  -5.261  -7.487  0.00  0.00    +0.300 C 
ATOM     26  O   UNL     1     -13.278  -5.910  -8.497  0.00  0.00    -0.253 OA
ATOM     27  N   UNL     1     -11.991  -5.393  -6.693  0.00  0.00    -0.294 N 
ATOM     28  H   UNL     1     -14.716  -3.932  -7.484  0.00  0.00    +0.151 HD
ATOM     29  H   UNL     1     -11.337  -6.108  -6.714  0.00  0.00    +0.151 HD
ENDBRANCH  18  19
ENDBRANCH  17  18
ENDBRANCH  16  17
ENDBRANCH   1  16
TORSDOF 7
