REMARK  Name = ZINC23590820
REMARK  8 active torsions:
REMARK  status: ('A' for Active; 'I' for Inactive)
REMARK    1  A    between atoms: C_1  and  C_2
REMARK    2  A    between atoms: C_11  and  N_28
REMARK    3  A    between atoms: C_13  and  S_15
REMARK    4  A    between atoms: S_15  and  C_16
REMARK    5  A    between atoms: C_16  and  C_17
REMARK    6  A    between atoms: N_19  and  C_20
REMARK    7  A    between atoms: C_20  and  C_22
REMARK    8  A    between atoms: C_20  and  C_23
REMARK                            x       y       z     vdW  Elec       q    Type
REMARK                         _______ _______ _______ _____ _____    ______ ____
ROOT
ATOM      1  C   UNL     1      12.725   9.098   6.986  0.00  0.00    +0.008 C 
ATOM      2  C   UNL     1      11.485   8.646   6.212  0.00  0.00    -0.009 C 
ATOM      3  C   UNL     1      11.019   7.285   6.738  0.00  0.00    +0.008 C 
ATOM      4  C   UNL     1       9.941   6.715   5.816  0.00  0.00    +0.037 C 
ATOM      5  C   UNL     1       8.845   7.761   5.633  0.00  0.00    -0.025 A 
ATOM      6  C   UNL     1       9.078   9.059   5.912  0.00  0.00    -0.004 A 
ATOM      7  S   UNL     1       7.552   9.889   5.560  0.00  0.00    -0.073 S 
ATOM      8  C   UNL     1       6.599   8.488   5.036  0.00  0.00    +0.115 A 
ATOM      9  C   UNL     1       7.505   7.415   5.154  0.00  0.00    +0.051 A 
ATOM     10  C   UNL     1       6.993   6.137   4.790  0.00  0.00    +0.129 A 
ATOM     11  N   UNL     1       5.739   6.035   4.383  0.00  0.00    -0.207 NA
ATOM     12  C   UNL     1       4.940   7.091   4.290  0.00  0.00    +0.191 A 
ATOM     13  N   UNL     1       5.362   8.306   4.615  0.00  0.00    -0.214 NA
ATOM     14  C   UNL     1      10.354   9.665   6.412  0.00  0.00    +0.046 C 
ENDROOT
BRANCH  10  15
ATOM     15  N   UNL     1       7.797   5.014   4.868  0.00  0.00    -0.343 N 
ATOM     16  H   UNL     1       7.395   4.030   4.586  0.00  0.00    +0.144 HD
ATOM     17  H   UNL     1       8.838   5.106   5.213  0.00  0.00    +0.144 HD
ENDBRANCH  10  15
BRANCH  12  18
ATOM     18  S   UNL     1       3.283   6.874   3.730  0.00  0.00    -0.077 S 
BRANCH  18  19
ATOM     19  C   UNL     1       3.279   5.086   3.447  0.00  0.00    +0.173 C 
BRANCH  19  20
ATOM     20  C   UNL     1       1.922   4.659   2.949  0.00  0.00    +0.224 C 
ATOM     21  O   UNL     1       1.044   5.483   2.800  0.00  0.00    -0.275 OA
ATOM     22  N   UNL     1       1.684   3.363   2.670  0.00  0.00    -0.308 N 
ATOM     23  H   UNL     1       2.480   2.616   2.804  0.00  0.00    +0.149 HD
BRANCH  22  24
ATOM     24  C   UNL     1       0.365   2.948   2.186  0.00  0.00    +0.107 C 
ATOM     25  C   UNL     1       0.295   3.136   0.669  0.00  0.00    +0.033 C 
BRANCH  24  26
ATOM     26  C   UNL     1       0.140   1.496   2.523  0.00  0.00    +0.010 A 
ATOM     27  C   UNL     1      -0.990   0.887   2.959  0.00  0.00    +0.013 A 
ATOM     28  C   UNL     1      -0.964  -0.473   3.207  0.00  0.00    +0.008 A 
ATOM     29  C   UNL     1       0.189  -1.156   3.006  0.00  0.00    +0.045 A 
ATOM     30  S   UNL     1       1.290   0.134   2.450  0.00  0.00    -0.100 S 
ENDBRANCH  24  26
ENDBRANCH  22  24
ENDBRANCH  19  20
ENDBRANCH  18  19
ENDBRANCH  12  18
TORSDOF 6
