REMARK  Name = ZINC45699550
REMARK  9 active torsions:
REMARK  status: ('A' for Active; 'I' for Inactive)
REMARK    1  A    between atoms: C_1  and  C_2
REMARK    2  A    between atoms: C_5  and  C_8
REMARK    3  A    between atoms: C_11  and  S_14
REMARK    4  A    between atoms: N_12  and  N_13
REMARK    5  A    between atoms: S_14  and  C_15
REMARK    6  A    between atoms: C_15  and  C_16
REMARK    7  A    between atoms: C_16  and  C_17
REMARK    8  A    between atoms: N_19  and  C_20
REMARK    9  A    between atoms: C_21  and  C_29
REMARK                            x       y       z     vdW  Elec       q    Type
REMARK                         _______ _______ _______ _____ _____    ______ ____
ROOT
ATOM      1  C   UNL     1       0.210  -9.149   0.274  0.00  0.00    +0.086 C 
ENDROOT
BRANCH   1   2
ATOM      2  S   UNL     1       0.514  -7.829   1.481  0.00  0.00    -0.084 S 
BRANCH   2   6
ATOM      3  C   UNL     1       0.058  -4.251  -0.021  0.00  0.00    +0.182 A 
ATOM      4  N   UNL     1      -0.205  -5.029  -1.045  0.00  0.00    -0.127 NA
ATOM      5  N   UNL     1      -0.094  -6.262  -0.700  0.00  0.00    -0.121 NA
ATOM      6  C   UNL     1       0.247  -6.346   0.567  0.00  0.00    +0.209 A 
ATOM      7  N   UNL     1       0.361  -5.071   1.041  0.00  0.00    -0.224 N 
BRANCH   3  12
ATOM      8  C   UNL     1      -0.018   1.503   0.010  0.00  0.00    +0.044 C 
ATOM      9  C   UNL     1       0.002  -0.004   0.002  0.00  0.00    -0.050 A 
ATOM     10  C   UNL     1       0.006  -0.686  -1.202  0.00  0.00    +0.004 A 
ATOM     11  C   UNL     1       0.024  -2.066  -1.216  0.00  0.00    +0.012 A 
ATOM     12  C   UNL     1       0.039  -2.773  -0.013  0.00  0.00    +0.021 A 
ATOM     13  C   UNL     1       0.036  -2.079   1.198  0.00  0.00    +0.012 A 
ATOM     14  C   UNL     1       0.023  -0.699   1.198  0.00  0.00    +0.004 A 
ENDBRANCH   3  12
BRANCH   7  15
ATOM     15  N   UNL     1       0.701  -4.689   2.308  0.00  0.00    -0.295 N 
ATOM     16  H   UNL     1      -0.117  -4.601   2.891  0.00  0.00    +0.163 HD
ATOM     17  H   UNL     1       1.367  -5.330   2.713  0.00  0.00    +0.163 HD
ENDBRANCH   7  15
ENDBRANCH   2   6
ENDBRANCH   1   2
BRANCH   1  18
ATOM     18  C   UNL     1       0.410 -10.509   0.945  0.00  0.00    +0.107 C 
BRANCH  18  19
ATOM     19  C   UNL     1       0.158 -11.606  -0.057  0.00  0.00    +0.218 C 
ATOM     20  O   UNL     1      -0.151 -11.327  -1.196  0.00  0.00    -0.275 OA
ATOM     21  N   UNL     1       0.276 -12.897   0.312  0.00  0.00    -0.279 N 
ATOM     22  H   UNL     1       0.523 -13.120   1.223  0.00  0.00    +0.155 HD
BRANCH  21  23
ATOM     23  C   UNL     1       0.043 -13.907  -0.612  0.00  0.00    +0.090 A 
ATOM     24  C   UNL     1       0.111 -15.276  -0.411  0.00  0.00    +0.084 A 
ATOM     25  C   UNL     1      -0.180 -16.129  -1.549  0.00  0.00    -0.018 A 
ATOM     26  C   UNL     1      -0.486 -15.456  -2.680  0.00  0.00    -0.004 A 
ATOM     27  S   UNL     1      -0.392 -13.750  -2.226  0.00  0.00    -0.077 S 
ATOM     28  C   UNL     1      -0.829 -16.047  -4.013  0.00  0.00    +0.043 C 
ATOM     29  C   UNL     1      -0.416 -17.526  -4.006  0.00  0.00    +0.005 C 
ATOM     30  C   UNL     1      -0.935 -18.179  -2.722  0.00  0.00    +0.005 C 
ATOM     31  C   UNL     1      -0.156 -17.650  -1.516  0.00  0.00    +0.037 C 
BRANCH  24  32
ATOM     32  C   UNL     1       0.455 -15.826   0.865  0.00  0.00    +0.102 C 
ATOM     33  N   UNL     1       0.728 -16.263   1.878  0.00  0.00    -0.191 NA
ENDBRANCH  24  32
ENDBRANCH  21  23
ENDBRANCH  18  19
ENDBRANCH   1  18
TORSDOF 8
