REMARK  Name = ZINC39941689
REMARK  5 active torsions:
REMARK  status: ('A' for Active; 'I' for Inactive)
REMARK    1  A    between atoms: C_8  and  C_13
REMARK    2  A    between atoms: N_14  and  N_15
REMARK    3  A    between atoms: C_16  and  C_18
REMARK    4  A    between atoms: N_20  and  C_21
REMARK    5  A    between atoms: C_22  and  C_30
REMARK                            x       y       z     vdW  Elec       q    Type
REMARK                         _______ _______ _______ _____ _____    ______ ____
ROOT
ATOM      1  N   UNL     1       3.043  -5.668   2.154  0.00  0.00    -0.199 N 
ATOM      2  C   UNL     1       3.124  -7.005   2.003  0.00  0.00    +0.318 C 
ATOM      3  O   UNL     1       3.102  -7.492   0.891  0.00  0.00    -0.263 OA
ATOM      4  H   UNL     1       3.060  -5.278   3.042  0.00  0.00    +0.178 HD
ENDROOT
BRANCH   2   5
ATOM      5  C   UNL     1       3.239  -7.885   3.201  0.00  0.00    +0.305 C 
ATOM      6  O   UNL     1       3.261  -7.397   4.312  0.00  0.00    -0.265 OA
ATOM      7  N   UNL     1       3.320  -9.222   3.050  0.00  0.00    -0.271 N 
ATOM      8  H   UNL     1       3.303  -9.611   2.161  0.00  0.00    +0.156 HD
BRANCH   7   9
ATOM      9  C   UNL     1       3.428 -10.039   4.162  0.00  0.00    +0.090 A 
ATOM     10  C   UNL     1       3.527 -11.424   4.221  0.00  0.00    +0.084 A 
ATOM     11  C   UNL     1       3.630 -12.042   5.531  0.00  0.00    -0.018 A 
ATOM     12  C   UNL     1       3.619 -11.202   6.591  0.00  0.00    -0.004 A 
ATOM     13  S   UNL     1       3.481  -9.582   5.886  0.00  0.00    -0.077 S 
ATOM     14  C   UNL     1       3.710 -11.569   8.040  0.00  0.00    +0.043 C 
ATOM     15  C   UNL     1       3.445 -13.076   8.175  0.00  0.00    +0.005 C 
ATOM     16  C   UNL     1       4.291 -13.819   7.137  0.00  0.00    +0.005 C 
ATOM     17  C   UNL     1       3.746 -13.550   5.734  0.00  0.00    +0.037 C 
BRANCH  10  18
ATOM     18  C   UNL     1       3.528 -12.216   3.027  0.00  0.00    +0.102 C 
ATOM     19  N   UNL     1       3.529 -12.844   2.081  0.00  0.00    -0.191 NA
ENDBRANCH  10  18
ENDBRANCH   7   9
ENDBRANCH   2   5
BRANCH   1  21
ATOM     20  C   UNL     1       2.858  -3.571   1.172  0.00  0.00    +0.120 C 
ATOM     21  N   UNL     1       2.934  -4.841   1.028  0.00  0.00    -0.191 NA
BRANCH  20  29
ATOM     22  C   UNL     1      -0.016   1.354   0.009  0.00  0.00    +0.001 A 
ATOM     23  C   UNL     1       1.165   2.097   0.002  0.00  0.00    +0.002 A 
ATOM     24  C   UNL     1       2.394   1.518  -0.013  0.00  0.00    +0.024 A 
ATOM     25  C   UNL     1       2.524   0.117  -0.021  0.00  0.00    +0.040 A 
ATOM     26  N   UNL     1       3.736  -0.439  -0.035  0.00  0.00    -0.284 N 
ATOM     27  C   UNL     1       3.929  -1.747  -0.045  0.00  0.00    +0.229 C 
ATOM     28  O   UNL     1       5.060  -2.197  -0.058  0.00  0.00    -0.274 OA
ATOM     29  C   UNL     1       2.741  -2.681  -0.039  0.00  0.00    +0.141 C 
ATOM     30  C   UNL     1       1.361  -2.054  -0.022  0.00  0.00    +0.001 C 
ATOM     31  C   UNL     1       1.294  -0.692  -0.014  0.00  0.00    -0.007 A 
ATOM     32  C   UNL     1       0.002  -0.004   0.002  0.00  0.00    +0.009 A 
ATOM     33  H   UNL     1       4.511   0.143  -0.039  0.00  0.00    +0.155 HD
ENDBRANCH  20  29
ENDBRANCH   1  21
TORSDOF 5
