REMARK  Name = ZINC46568780
REMARK  9 active torsions:
REMARK  status: ('A' for Active; 'I' for Inactive)
REMARK    1  A    between atoms: C_1  and  C_2
REMARK    2  A    between atoms: C_2  and  O_3
REMARK    3  A    between atoms: O_3  and  C_4
REMARK    4  A    between atoms: C_6  and  C_12
REMARK    5  A    between atoms: C_9  and  O_10
REMARK    6  A    between atoms: N_13  and  N_14
REMARK    7  A    between atoms: N_14  and  C_15
REMARK    8  A    between atoms: C_18  and  S_21
REMARK    9  A    between atoms: S_21  and  N_24
REMARK                            x       y       z     vdW  Elec       q    Type
REMARK                         _______ _______ _______ _____ _____    ______ ____
ROOT
ATOM      1  C   UNL     1       0.620  -4.950  -0.019  0.00  0.00    +0.138 C 
ATOM      2  N   UNL     1       0.463  -6.239  -0.025  0.00  0.00    -0.190 NA
ENDROOT
BRANCH   1   5
ATOM      3  C   UNL     1      -1.498  -1.849   0.006  0.00  0.00    +0.164 A 
ATOM      4  C   UNL     1      -0.390  -2.676  -0.003  0.00  0.00    +0.059 A 
ATOM      5  C   UNL     1      -0.558  -4.063  -0.009  0.00  0.00    -0.000 A 
ATOM      6  C   UNL     1      -1.844  -4.608  -0.005  0.00  0.00    +0.033 A 
ATOM      7  C   UNL     1      -2.945  -3.777   0.004  0.00  0.00    +0.087 A 
ATOM      8  C   UNL     1      -2.778  -2.399   0.016  0.00  0.00    +0.177 A 
ATOM      9 CL   UNL     1      -4.543  -4.455   0.008  0.00  0.00    -0.080 Cl
BRANCH   8  10
ATOM     10  O   UNL     1      -3.866  -1.583   0.031  0.00  0.00    -0.502 OA
ATOM     11  H   UNL     1      -4.189  -1.342  -0.848  0.00  0.00    +0.292 HD
ENDBRANCH   8  10
BRANCH   3  12
ATOM     12  O   UNL     1      -1.339  -0.499   0.012  0.00  0.00    -0.489 OA
BRANCH  12  14
ATOM     13  C   UNL     1      -0.019   1.526   0.010  0.00  0.00    +0.048 C 
ATOM     14  C   UNL     1       0.002  -0.004   0.002  0.00  0.00    +0.226 C 
ENDBRANCH  12  14
ENDBRANCH   3  12
ENDBRANCH   1   5
BRANCH   2  15
ATOM     15  N   UNL     1       1.583  -7.081  -0.035  0.00  0.00    -0.238 N 
ATOM     16  H   UNL     1       2.475  -6.701  -0.037  0.00  0.00    +0.174 HD
BRANCH  15  17
ATOM     17  C   UNL     1       1.413  -8.466  -0.040  0.00  0.00    +0.048 A 
ATOM     18  C   UNL     1       0.135  -9.011  -0.042  0.00  0.00    +0.026 A 
ATOM     19  C   UNL     1      -0.028 -10.383  -0.049  0.00  0.00    +0.030 A 
ATOM     20  C   UNL     1       1.078 -11.213  -0.052  0.00  0.00    +0.105 A 
ATOM     21  C   UNL     1       2.352 -10.673  -0.050  0.00  0.00    +0.030 A 
ATOM     22  C   UNL     1       2.523  -9.303  -0.050  0.00  0.00    +0.026 A 
BRANCH  20  23
ATOM     23  S   UNL     1       0.865 -12.961  -0.060  0.00  0.00    +0.056 S 
ATOM     24  O   UNL     1       2.052 -13.518   0.488  0.00  0.00    -0.153 OA
ATOM     25  O   UNL     1      -0.420 -13.216   0.490  0.00  0.00    -0.153 OA
BRANCH  23  26
ATOM     26  N   UNL     1       0.805 -13.441  -1.644  0.00  0.00    -0.204 NA
ATOM     27  H   UNL     1       0.884 -12.784  -2.353  0.00  0.00    +0.144 HD
ATOM     28  H   UNL     1       0.690 -14.379  -1.863  0.00  0.00    +0.144 HD
ENDBRANCH  23  26
ENDBRANCH  20  23
ENDBRANCH  15  17
ENDBRANCH   2  15
TORSDOF 8
