REMARK  Name = ZINC17783146
REMARK  6 active torsions:
REMARK  status: ('A' for Active; 'I' for Inactive)
REMARK    1  A    between atoms: N_9  and  C_10
REMARK    2  A    between atoms: C_10  and  C_11
REMARK    3  A    between atoms: C_11  and  N_12
REMARK    4  A    between atoms: N_18  and  C_19
REMARK    5  A    between atoms: C_19  and  C_21
REMARK    6  A    between atoms: C_30  and  N_33
REMARK                            x       y       z     vdW  Elec       q    Type
REMARK                         _______ _______ _______ _____ _____    ______ ____
ROOT
ATOM      1  C   UNL     1      -0.015   1.377   0.027  0.00  0.00    +0.002 A 
ATOM      2  C   UNL     1       1.172   2.091   0.030  0.00  0.00    +0.002 A 
ATOM      3  C   UNL     1       2.383   1.429   0.016  0.00  0.00    +0.028 A 
ATOM      4  C   UNL     1       2.412   0.042  -0.002  0.00  0.00    +0.068 A 
ATOM      5  C   UNL     1       1.216  -0.678  -0.005  0.00  0.00    +0.066 A 
ATOM      6  C   UNL     1       0.003  -0.003   0.010  0.00  0.00    +0.028 A 
ATOM      7  N   UNL     1       1.550  -2.028  -0.023  0.00  0.00    -0.326 N 
ATOM      8  C   UNL     1       2.905  -2.131  -0.031  0.00  0.00    +0.201 A 
ATOM      9  N   UNL     1       3.449  -0.886  -0.018  0.00  0.00    -0.314 N 
ATOM     10  N   UNL     1       3.591  -3.271  -0.048  0.00  0.00    -0.146 NA
ATOM     11  H   UNL     1       0.924  -2.769  -0.029  0.00  0.00    +0.169 HD
ENDROOT
BRANCH  10  12
ATOM     12  C   UNL     1       2.953  -4.433   0.052  0.00  0.00    +0.245 C 
ATOM     13  O   UNL     1       1.737  -4.460   0.063  0.00  0.00    -0.273 OA
BRANCH  12  14
ATOM     14  C   UNL     1       3.736  -5.717   0.153  0.00  0.00    +0.052 C 
ATOM     15  C   UNL     1       4.608  -5.881  -1.094  0.00  0.00    +0.020 C 
ATOM     16  C   UNL     1       5.403  -7.184  -0.992  0.00  0.00    -0.007 C 
ATOM     17  C   UNL     1       6.293  -7.143   0.252  0.00  0.00    +0.007 C 
ATOM     18  C   UNL     1       5.421  -6.979   1.498  0.00  0.00    -0.007 C 
ATOM     19  C   UNL     1       4.626  -5.676   1.396  0.00  0.00    +0.020 C 
ATOM     20  C   UNL     1       4.453  -8.159   1.602  0.00  0.00    +0.034 C 
ATOM     21  C   UNL     1       3.563  -8.201   0.359  0.00  0.00    +0.067 C 
ATOM     22  C   UNL     1       4.435  -8.365  -0.888  0.00  0.00    +0.034 C 
ATOM     23  C   UNL     1       2.768  -6.897   0.257  0.00  0.00    +0.046 C 
BRANCH  21  24
ATOM     24  N   UNL     1       2.636  -9.331   0.459  0.00  0.00    -0.244 N 
ATOM     25  C   UNL     1       2.931 -10.631   0.289  0.00  0.00    +0.221 A 
ATOM     26  N   UNL     1       1.834 -11.323   0.462  0.00  0.00    -0.205 NA
ATOM     27  C   UNL     1       0.821 -10.502   0.742  0.00  0.00    +0.242 A 
ATOM     28  N   UNL     1       1.265  -9.271   0.756  0.00  0.00    -0.137 NA
ATOM     29 CL   UNL     1      -0.818 -10.987   1.045  0.00  0.00    -0.040 Cl
ENDBRANCH  21  24
ENDBRANCH  12  14
ENDBRANCH  10  12
BRANCH   9  30
ATOM     30  C   UNL     1       4.880  -0.574  -0.022  0.00  0.00    +0.106 C 
BRANCH  30  31
ATOM     31  C   UNL     1       5.386  -0.482   1.419  0.00  0.00    -0.057 C 
BRANCH  31  32
ATOM     32  N   UNL     1       6.821  -0.169   1.416  0.00  0.00    +0.381 N 
ATOM     33  C   UNL     1       7.561  -1.280   0.805  0.00  0.00    -0.079 C 
ATOM     34  C   UNL     1       9.047  -0.925   0.725  0.00  0.00    -0.019 C 
ATOM     35  C   UNL     1       9.582  -0.668   2.137  0.00  0.00    -0.004 C 
ATOM     36  C   UNL     1       8.754   0.442   2.791  0.00  0.00    -0.019 C 
ATOM     37  C   UNL     1       7.279   0.036   2.795  0.00  0.00    -0.079 C 
ATOM     38  H   UNL     1       6.979   0.672   0.881  0.00  0.00    -0.082 HD
ENDBRANCH  31  32
ENDBRANCH  30  31
ENDBRANCH   9  30
TORSDOF 6
