REMARK  Name = ZINC63688306
REMARK  11 active torsions:
REMARK  status: ('A' for Active; 'I' for Inactive)
REMARK    1  A    between atoms: C_1  and  C_2
REMARK    2  A    between atoms: C_2  and  N_3
REMARK    3  A    between atoms: N_3  and  C_4
REMARK    4  A    between atoms: N_3  and  C_6
REMARK    5  A    between atoms: C_4  and  C_5
REMARK    6  A    between atoms: C_6  and  C_7
REMARK    7  A    between atoms: C_6  and  C_20
REMARK    8  A    between atoms: C_7  and  N_8
REMARK    9  A    between atoms: C_9  and  C_11
REMARK   10  A    between atoms: C_13  and  S_16
REMARK   11  A    between atoms: S_16  and  N_19
REMARK                            x       y       z     vdW  Elec       q    Type
REMARK                         _______ _______ _______ _____ _____    ______ ____
ROOT
ATOM      1  N   UNL     1       0.372  -1.917   1.465  0.00  0.00    -0.313 N 
ATOM      2  C   UNL     1       1.101  -2.377   2.501  0.00  0.00    +0.245 C 
ATOM      3  O   UNL     1       0.588  -3.103   3.331  0.00  0.00    -0.270 OA
ATOM      4  H   UNL     1       0.782  -1.338   0.803  0.00  0.00    +0.149 HD
ENDROOT
BRANCH   2   5
ATOM      5  C   UNL     1       2.518  -1.999   2.630  0.00  0.00    +0.046 A 
ATOM      6  C   UNL     1       3.330  -2.476   3.723  0.00  0.00    +0.049 A 
ATOM      7  C   UNL     1       4.612  -2.058   3.725  0.00  0.00    +0.143 A 
ATOM      8  S   UNL     1       4.707  -1.038   2.270  0.00  0.00    -0.076 S 
ATOM      9  C   UNL     1       3.131  -1.180   1.709  0.00  0.00    +0.060 A 
BRANCH   7  10
ATOM     10  S   UNL     1       5.884  -2.430   4.886  0.00  0.00    +0.062 S 
ATOM     11  O   UNL     1       6.831  -1.374   4.804  0.00  0.00    -0.153 OA
ATOM     12  O   UNL     1       5.235  -2.779   6.101  0.00  0.00    -0.153 OA
BRANCH  10  13
ATOM     13  N   UNL     1       6.651  -3.797   4.351  0.00  0.00    -0.203 NA
ATOM     14  H   UNL     1       6.361  -4.226   3.530  0.00  0.00    +0.144 HD
ATOM     15  H   UNL     1       7.390  -4.168   4.857  0.00  0.00    +0.144 HD
ENDBRANCH  10  13
ENDBRANCH   7  10
ENDBRANCH   2   5
BRANCH   1  16
ATOM     16  C   UNL     1      -1.038  -2.293   1.337  0.00  0.00    +0.094 C 
BRANCH  16  17
ATOM     17  C   UNL     1      -1.654  -1.564   0.141  0.00  0.00    -0.020 C 
BRANCH  17  18
ATOM     18  C   UNL     1      -3.032  -2.112  -0.126  0.00  0.00    -0.052 A 
ATOM     19  C   UNL     1      -3.235  -3.040  -1.130  0.00  0.00    +0.009 A 
ATOM     20  C   UNL     1      -4.487  -3.513  -1.344  0.00  0.00    +0.045 A 
ATOM     21  S   UNL     1      -5.429  -2.639  -0.105  0.00  0.00    -0.105 S 
ATOM     22  C   UNL     1      -4.090  -1.706   0.618  0.00  0.00    +0.047 A 
ENDBRANCH  17  18
BRANCH  17  23
ATOM     23  N   UNL     1      -1.747  -0.128   0.439  0.00  0.00    +0.385 N 
ATOM     24  H   UNL     1      -2.199   0.002   1.331  0.00  0.00    -0.081 HD
BRANCH  23  26
ATOM     25  C   UNL     1       0.247   0.351  -0.899  0.00  0.00    -0.017 C 
ATOM     26  C   UNL     1      -0.398   0.451   0.484  0.00  0.00    -0.081 C 
ENDBRANCH  23  26
BRANCH  23  27
ATOM     27  C   UNL     1      -2.531   0.539  -0.609  0.00  0.00    -0.081 C 
ATOM     28  C   UNL     1      -2.752   2.004  -0.226  0.00  0.00    -0.017 C 
ENDBRANCH  23  27
ENDBRANCH  17  23
ENDBRANCH  16  17
ENDBRANCH   1  16
TORSDOF 9
