REMARK  Name = ZINC02503979
REMARK  6 active torsions:
REMARK  status: ('A' for Active; 'I' for Inactive)
REMARK    1  A    between atoms: C_1  and  S_2
REMARK    2  A    between atoms: S_2  and  C_3
REMARK    3  A    between atoms: C_6  and  C_9
REMARK    4  A    between atoms: C_11  and  C_26
REMARK    5  A    between atoms: C_12  and  N_25
REMARK    6  A    between atoms: C_22  and  C_23
REMARK                            x       y       z     vdW  Elec       q    Type
REMARK                         _______ _______ _______ _____ _____    ______ ____
ROOT
ATOM      1  C   UNL     1       1.351  -0.697  -0.024  0.00  0.00    +0.105 C 
ATOM      2  C   UNL     1       2.559   0.218  -0.030  0.00  0.00    +0.078 C 
ATOM      3  C   UNL     1       2.366   1.557  -0.012  0.00  0.00    +0.107 C 
ATOM      4  N   UNL     1       1.107   2.157   0.012  0.00  0.00    -0.249 N 
ATOM      5  C   UNL     1       0.912   3.552   0.031  0.00  0.00    +0.054 A 
ATOM      6  C   UNL     1       1.924   4.526   0.028  0.00  0.00    +0.025 A 
ATOM      7  C   UNL     1       1.611   5.865   0.049  0.00  0.00    +0.002 A 
ATOM      8  C   UNL     1       0.295   6.294   0.072  0.00  0.00    +0.001 A 
ATOM      9  C   UNL     1      -0.721   5.354   0.075  0.00  0.00    +0.017 A 
ATOM     10  C   UNL     1      -0.405   4.015   0.055  0.00  0.00    +0.036 A 
ATOM     11  S   UNL     1      -1.367   2.524   0.044  0.00  0.00    -0.071 S 
ATOM     12  C   UNL     1      -0.016   1.365   0.019  0.00  0.00    +0.093 C 
ATOM     13  C   UNL     1       0.002  -0.004   0.003  0.00  0.00    +0.070 C 
ENDROOT
BRANCH   1  17
ATOM     14  C   UNL     1       1.526  -3.151  -3.519  0.00  0.00    +0.008 A 
ATOM     15  C   UNL     1       1.654  -3.723  -2.259  0.00  0.00    +0.015 A 
ATOM     16  C   UNL     1       1.597  -2.927  -1.132  0.00  0.00    +0.005 A 
ATOM     17  C   UNL     1       1.413  -1.562  -1.256  0.00  0.00    -0.034 A 
ATOM     18  C   UNL     1       1.279  -0.990  -2.508  0.00  0.00    +0.005 A 
ATOM     19  C   UNL     1       1.341  -1.779  -3.640  0.00  0.00    +0.015 A 
BRANCH  14  21
ATOM     20  C   UNL     1       1.386  -2.991  -6.329  0.00  0.00    +0.090 C 
ATOM     21  S   UNL     1       1.597  -4.162  -4.960  0.00  0.00    -0.129 S 
ENDBRANCH  14  21
ENDBRANCH   1  17
BRANCH   3  22
ATOM     22  N   UNL     1       3.473   2.371  -0.019  0.00  0.00    -0.345 N 
ATOM     23  H   UNL     1       4.142   2.275  -0.714  0.00  0.00    +0.144 HD
ATOM     24  H   UNL     1       3.585   3.043   0.672  0.00  0.00    +0.144 HD
ENDBRANCH   3  22
BRANCH  13  25
ATOM     25  C   UNL     1      -1.215  -0.758   0.012  0.00  0.00    +0.098 C 
ATOM     26  N   UNL     1      -2.180  -1.357   0.019  0.00  0.00    -0.191 NA
ENDBRANCH  13  25
BRANCH   2  27
ATOM     27  C   UNL     1       3.884  -0.326  -0.055  0.00  0.00    +0.099 C 
ATOM     28  N   UNL     1       4.934  -0.757  -0.075  0.00  0.00    -0.191 NA
ENDBRANCH   2  27
TORSDOF 5
