REMARK  Name = ZINC21938098
REMARK  11 active torsions:
REMARK  status: ('A' for Active; 'I' for Inactive)
REMARK    1  A    between atoms: C_1  and  C_2
REMARK    2  A    between atoms: C_2  and  N_3
REMARK    3  A    between atoms: C_10  and  S_12
REMARK    4  A    between atoms: S_12  and  N_15
REMARK    5  A    between atoms: C_19  and  C_22
REMARK    6  A    between atoms: N_24  and  C_25
REMARK    7  A    between atoms: C_25  and  C_26
REMARK    8  A    between atoms: C_26  and  C_27
REMARK    9  A    between atoms: C_27  and  N_28
REMARK   10  A    between atoms: N_31  and  C_34
REMARK   11  A    between atoms: C_34  and  C_35
REMARK                            x       y       z     vdW  Elec       q    Type
REMARK                         _______ _______ _______ _____ _____    ______ ____
ROOT
ATOM      1  N   UNL     1      -0.934   1.568   8.605  0.00  0.00    -0.176 NA
ATOM      2  C   UNL     1      -2.351   1.185   8.680  0.00  0.00    +0.109 C 
ATOM      3  C   UNL     1      -3.066   1.693   7.424  0.00  0.00    +0.018 C 
ATOM      4  C   UNL     1      -2.339   1.174   6.182  0.00  0.00    +0.015 C 
ATOM      5  C   UNL     1      -0.903   1.705   6.169  0.00  0.00    +0.091 C 
ATOM      6  C   UNL     1      -0.164   1.196   7.411  0.00  0.00    +0.122 C 
ENDROOT
BRANCH   5   7
ATOM      7  C   UNL     1      -0.198   1.219   4.929  0.00  0.00    +0.217 C 
ATOM      8  O   UNL     1       0.798   0.535   5.028  0.00  0.00    -0.275 OA
ATOM      9  N   UNL     1      -0.675   1.545   3.712  0.00  0.00    -0.315 N 
ATOM     10  H   UNL     1      -1.578   2.166   3.623  0.00  0.00    +0.149 HD
BRANCH   9  11
ATOM     11  C   UNL     1       0.011   1.072   2.506  0.00  0.00    +0.105 C 
BRANCH  11  12
ATOM     12  C   UNL     1      -0.729   1.579   1.267  0.00  0.00    +0.034 C 
BRANCH  12  13
ATOM     13  C   UNL     1      -0.013   1.086   0.008  0.00  0.00    +0.086 C 
BRANCH  13  14
ATOM     14  N   UNL     1      -0.723   1.572  -1.182  0.00  0.00    -0.306 NA
ATOM     15  C   UNL     1      -2.058   0.966  -1.283  0.00  0.00    +0.066 C 
ATOM     16  C   UNL     1      -2.794   1.557  -2.488  0.00  0.00    -0.063 C 
ATOM     17  N   UNL     1      -2.012   1.308  -3.707  0.00  0.00    +0.381 N 
ATOM     18  C   UNL     1      -0.677   1.914  -3.606  0.00  0.00    -0.063 C 
ATOM     19  C   UNL     1       0.059   1.323  -2.401  0.00  0.00    +0.066 C 
ATOM     20  H   UNL     1      -1.885   0.220  -3.812  0.00  0.00    -0.082 HD
BRANCH  17  21
ATOM     21  C   UNL     1      -2.723   1.794  -4.897  0.00  0.00    -0.082 C 
ATOM     22  C   UNL     1      -4.184   1.344  -4.838  0.00  0.00    -0.017 C 
ENDBRANCH  17  21
ENDBRANCH  13  14
ENDBRANCH  12  13
ENDBRANCH  11  12
ENDBRANCH   9  11
ENDBRANCH   5   7
BRANCH   1  23
ATOM     23  S   UNL     1      -0.220   2.403   9.844  0.00  0.00    +0.061 S 
ATOM     24  O   UNL     1      -0.980   2.126  11.012  0.00  0.00    -0.153 OA
ATOM     25  O   UNL     1       1.174   2.138   9.762  0.00  0.00    -0.153 OA
BRANCH  23  33
ATOM     26  N   UNL     1      -0.676   8.133   8.569  0.00  0.00    -0.347 N 
ATOM     27  C   UNL     1       0.479   8.303   7.855  0.00  0.00    +0.087 A 
ATOM     28  C   UNL     1       1.147   7.141   7.781  0.00  0.00    +0.027 A 
ATOM     29  C   UNL     1       0.355   6.145   8.506  0.00  0.00    +0.002 A 
ATOM     30  C   UNL     1      -0.782   6.823   8.982  0.00  0.00    +0.049 A 
ATOM     31  C   UNL     1      -1.732   6.126   9.720  0.00  0.00    +0.028 A 
ATOM     32  C   UNL     1      -1.551   4.784   9.975  0.00  0.00    +0.030 A 
ATOM     33  C   UNL     1      -0.427   4.119   9.503  0.00  0.00    +0.106 A 
ATOM     34  C   UNL     1       0.522   4.787   8.781  0.00  0.00    +0.038 A 
BRANCH  26  36
ATOM     35  C   UNL     1      -1.363   9.795  10.226  0.00  0.00    +0.027 C 
ATOM     36  C   UNL     1      -1.653   9.186   8.853  0.00  0.00    +0.118 C 
ENDBRANCH  26  36
ENDBRANCH  23  33
ENDBRANCH   1  23
TORSDOF 9
