REMARK  Name = ZINC15635789
REMARK  18 active torsions:
REMARK  status: ('A' for Active; 'I' for Inactive)
REMARK    1  A    between atoms: C_1  and  C_2
REMARK    2  A    between atoms: C_4  and  N_32
REMARK    3  A    between atoms: C_7  and  C_8
REMARK    4  A    between atoms: C_8  and  C_23
REMARK    5  A    between atoms: N_13  and  C_14
REMARK    6  A    between atoms: N_13  and  C_17
REMARK    7  A    between atoms: C_14  and  C_15
REMARK    8  A    between atoms: C_15  and  O_16
REMARK    9  A    between atoms: C_17  and  C_18
REMARK   10  A    between atoms: C_18  and  O_19
REMARK   11  A    between atoms: C_21  and  C_22
REMARK   12  A    between atoms: C_26  and  N_29
REMARK   13  A    between atoms: N_32  and  C_33
REMARK   14  A    between atoms: N_32  and  C_36
REMARK   15  A    between atoms: C_33  and  C_34
REMARK   16  A    between atoms: C_34  and  O_35
REMARK   17  A    between atoms: C_36  and  C_37
REMARK   18  A    between atoms: C_37  and  O_38
REMARK                            x       y       z     vdW  Elec       q    Type
REMARK                         _______ _______ _______ _____ _____    ______ ____
ROOT
ATOM      1  C   UNL     1      -1.887  -0.132   3.573  0.00  0.00    -0.003 C 
ATOM      2  C   UNL     1      -2.873   0.372   4.551  0.00  0.00    -0.014 C 
ATOM      3  C   UNL     1      -3.656   1.486   4.217  0.00  0.00    +0.011 C 
ATOM      4  C   UNL     1      -4.575   1.980   5.090  0.00  0.00    +0.026 C 
ATOM      5  C   UNL     1      -4.740   1.328   6.401  0.00  0.00    +0.038 C 
ATOM      6  N   UNL     1      -5.615   1.775   7.268  0.00  0.00    -0.366 N 
ATOM      7  C   UNL     1      -3.897   0.160   6.714  0.00  0.00    +0.029 C 
ATOM      8  C   UNL     1      -3.005  -0.279   5.785  0.00  0.00    -0.041 C 
ATOM      9  C   UNL     1      -2.142  -1.476   6.091  0.00  0.00    +0.044 C 
ENDROOT
BRANCH   1  16
ATOM     10  C   UNL     1      -2.820  -0.375   0.863  0.00  0.00    +0.044 C 
ATOM     11  C   UNL     1      -1.786   0.647   1.256  0.00  0.00    -0.041 A 
ATOM     12  C   UNL     1      -1.272   1.491   0.320  0.00  0.00    +0.027 A 
ATOM     13  C   UNL     1      -0.306   2.438   0.682  0.00  0.00    +0.030 A 
ATOM     14  C   UNL     1       0.128   2.531   2.010  0.00  0.00    +0.024 A 
ATOM     15  C   UNL     1      -0.383   1.698   2.956  0.00  0.00    +0.010 A 
ATOM     16  C   UNL     1      -1.353   0.737   2.596  0.00  0.00    -0.014 A 
BRANCH  13  17
ATOM     17  N   UNL     1       0.215   3.286  -0.272  0.00  0.00    -0.326 N 
BRANCH  17  18
ATOM     18  C   UNL     1       1.221   4.282   0.105  0.00  0.00    +0.133 C 
BRANCH  18  19
ATOM     19  C   UNL     1       0.524   5.582   0.510  0.00  0.00    +0.174 C 
BRANCH  19  20
ATOM     20  O   UNL     1      -0.248   5.360   1.692  0.00  0.00    -0.393 OA
ATOM     21  H   UNL     1      -0.719   6.144   2.007  0.00  0.00    +0.209 HD
ENDBRANCH  19  20
ENDBRANCH  18  19
ENDBRANCH  17  18
BRANCH  17  22
ATOM     22  C   UNL     1      -0.236   3.191  -1.663  0.00  0.00    +0.133 C 
BRANCH  22  23
ATOM     23  C   UNL     1       0.654   2.204  -2.421  0.00  0.00    +0.174 C 
BRANCH  23  24
ATOM     24  O   UNL     1       0.483   0.893  -1.878  0.00  0.00    -0.393 OA
ATOM     25  H   UNL     1       1.019   0.215  -2.312  0.00  0.00    +0.209 HD
ENDBRANCH  23  24
ENDBRANCH  22  23
ENDBRANCH  17  22
ENDBRANCH  13  17
ENDBRANCH   1  16
BRANCH   1  26
ATOM     26  C   UNL     1      -1.462  -1.535   3.618  0.00  0.00    -0.017 A 
ATOM     27  C   UNL     1      -0.145  -1.863   3.975  0.00  0.00    +0.011 A 
ATOM     28  C   UNL     1       0.242  -3.184   4.020  0.00  0.00    +0.033 A 
ATOM     29  C   UNL     1      -0.660  -4.187   3.702  0.00  0.00    +0.126 A 
ATOM     30  C   UNL     1      -1.961  -3.872   3.341  0.00  0.00    +0.033 A 
ATOM     31  C   UNL     1      -2.369  -2.558   3.297  0.00  0.00    +0.011 A 
BRANCH  29  32
ATOM     32  N   UNL     1      -0.231  -5.604   3.747  0.00  0.00    +0.056 N 
ATOM     33  O   UNL     1      -1.085  -6.560   3.445  0.00  0.00    -0.126 OA
ATOM     34  O   UNL     1       1.004  -5.908   4.089  0.00  0.00    -0.126 OA
ENDBRANCH  29  32
ENDBRANCH   1  26
BRANCH   6  35
ATOM     35  C   UNL     1      -5.661   1.212   8.620  0.00  0.00    +0.144 C 
BRANCH  35  36
ATOM     36  C   UNL     1      -7.079   0.724   8.922  0.00  0.00    +0.177 C 
BRANCH  36  37
ATOM     37  O   UNL     1      -7.405  -0.360   8.050  0.00  0.00    -0.393 OA
ATOM     38  H   UNL     1      -8.292  -0.721   8.185  0.00  0.00    +0.209 HD
ENDBRANCH  36  37
ENDBRANCH  35  36
ENDBRANCH   6  35
BRANCH   6  39
ATOM     39  C   UNL     1      -6.548   2.838   6.886  0.00  0.00    +0.144 C 
BRANCH  39  40
ATOM     40  C   UNL     1      -6.239   4.102   7.691  0.00  0.00    +0.177 C 
BRANCH  40  41
ATOM     41  O   UNL     1      -4.944   4.589   7.334  0.00  0.00    -0.393 OA
ATOM     42  H   UNL     1      -4.682   5.391   7.807  0.00  0.00    +0.209 HD
ENDBRANCH  40  41
ENDBRANCH  39  40
ENDBRANCH   6  39
TORSDOF 16
