REMARK  Name = ZINC08659782
REMARK  9 active torsions:
REMARK  status: ('A' for Active; 'I' for Inactive)
REMARK    1  A    between atoms: C_1  and  C_2
REMARK    2  A    between atoms: C_3  and  C_27
REMARK    3  A    between atoms: C_4  and  C_21
REMARK    4  A    between atoms: C_6  and  C_19
REMARK    5  A    between atoms: C_7  and  S_9
REMARK    6  A    between atoms: S_9  and  C_10
REMARK    7  A    between atoms: C_10  and  C_11
REMARK    8  A    between atoms: N_13  and  C_14
REMARK    9  A    between atoms: N_29  and  C_30
REMARK                            x       y       z     vdW  Elec       q    Type
REMARK                         _______ _______ _______ _____ _____    ______ ____
ROOT
ATOM      1  C   UNL     1      -8.634  -0.897   1.275  0.00  0.00    +0.061 C 
ATOM      2  C   UNL     1      -8.700   0.502   0.719  0.00  0.00    +0.014 C 
ATOM      3  C   UNL     1      -9.893   1.103   0.580  0.00  0.00    +0.044 C 
ATOM      4  C   UNL     1     -10.018   2.492   0.023  0.00  0.00    +0.098 C 
ATOM      5  C   UNL     1      -8.692   3.197   0.046  0.00  0.00    +0.069 C 
ATOM      6  C   UNL     1      -7.530   2.509   0.202  0.00  0.00    +0.080 C 
ATOM      7  N   UNL     1      -7.543   1.141   0.363  0.00  0.00    -0.312 N 
ATOM      8  H   UNL     1      -6.622   0.562   0.205  0.00  0.00    +0.152 HD
ENDROOT
BRANCH   4   9
ATOM      9  C   UNL     1     -10.519   2.414  -1.396  0.00  0.00    -0.035 A 
ATOM     10  C   UNL     1      -9.785   1.736  -2.352  0.00  0.00    +0.004 A 
ATOM     11  C   UNL     1     -10.247   1.661  -3.652  0.00  0.00    +0.000 A 
ATOM     12  C   UNL     1     -11.438   2.270  -4.000  0.00  0.00    +0.000 A 
ATOM     13  C   UNL     1     -12.170   2.952  -3.045  0.00  0.00    +0.000 A 
ATOM     14  C   UNL     1     -11.710   3.024  -1.743  0.00  0.00    +0.004 A 
ENDBRANCH   4   9
BRANCH   3  15
ATOM     15  C   UNL     1     -11.063   0.408   0.970  0.00  0.00    +0.247 C 
ATOM     16  O   UNL     1     -10.980  -0.719   1.423  0.00  0.00    -0.270 OA
ATOM     17  N   UNL     1     -12.270   0.994   0.838  0.00  0.00    -0.282 N 
ATOM     18  H   UNL     1     -12.340   2.042   0.511  0.00  0.00    +0.155 HD
BRANCH  17  19
ATOM     19  C   UNL     1     -13.433   0.270   1.118  0.00  0.00    +0.034 A 
ATOM     20  C   UNL     1     -13.485  -1.092   0.854  0.00  0.00    +0.023 A 
ATOM     21  C   UNL     1     -14.634  -1.806   1.136  0.00  0.00    +0.002 A 
ATOM     22  C   UNL     1     -15.735  -1.162   1.671  0.00  0.00    +0.000 A 
ATOM     23  C   UNL     1     -15.688   0.195   1.930  0.00  0.00    +0.002 A 
ATOM     24  C   UNL     1     -14.541   0.913   1.655  0.00  0.00    +0.023 A 
ENDBRANCH  17  19
ENDBRANCH   3  15
BRANCH   5  25
ATOM     25  C   UNL     1      -8.651   4.620  -0.105  0.00  0.00    +0.098 C 
ATOM     26  N   UNL     1      -8.618   5.750  -0.225  0.00  0.00    -0.191 NA
ENDBRANCH   5  25
BRANCH   6  27
ATOM     27  S   UNL     1      -5.995   3.374   0.207  0.00  0.00    -0.100 S 
BRANCH  27  28
ATOM     28  C   UNL     1      -4.854   1.990   0.451  0.00  0.00    +0.171 C 
BRANCH  28  29
ATOM     29  C   UNL     1      -3.439   2.506   0.488  0.00  0.00    +0.230 C 
ATOM     30  O   UNL     1      -3.223   3.693   0.363  0.00  0.00    -0.274 OA
ATOM     31  N   UNL     1      -2.413   1.649   0.661  0.00  0.00    -0.256 N 
ATOM     32  H   UNL     1      -2.609   0.573   0.775  0.00  0.00    +0.158 HD
BRANCH  31  33
ATOM     33  C   UNL     1      -1.104   2.127   0.696  0.00  0.00    +0.192 A 
ATOM     34  C   UNL     1       0.010   1.376   0.863  0.00  0.00    +0.066 A 
ATOM     35  C   UNL     1       1.109   2.264   0.829  0.00  0.00    +0.043 A 
ATOM     36  C   UNL     1       0.610   3.499   0.650  0.00  0.00    +0.197 A 
ATOM     37  O   UNL     1      -0.731   3.412   0.574  0.00  0.00    -0.449 OA
ENDBRANCH  31  33
ENDBRANCH  28  29
ENDBRANCH  27  28
ENDBRANCH   6  27
TORSDOF 8
