REMARK  Name = ZINC43253786
REMARK  8 active torsions:
REMARK  status: ('A' for Active; 'I' for Inactive)
REMARK    1  A    between atoms: C_1  and  C_2
REMARK    2  A    between atoms: C_2  and  C_3
REMARK    3  A    between atoms: C_3  and  C_5
REMARK    4  A    between atoms: C_3  and  N_25
REMARK    5  A    between atoms: C_5  and  C_7
REMARK    6  A    between atoms: C_5  and  N_13
REMARK    7  A    between atoms: C_15  and  C_22
REMARK    8  A    between atoms: C_19  and  C_21
REMARK                            x       y       z     vdW  Elec       q    Type
REMARK                         _______ _______ _______ _____ _____    ______ ____
ROOT
ATOM      1  C   UNL     1      -1.002  -1.868   0.327  0.00  0.00    +0.079 C 
ENDROOT
BRANCH   1   2
ATOM      2  N   UNL     1      -0.323  -2.716   1.316  0.00  0.00    -0.293 NA
ATOM      3  C   UNL     1      -0.957  -2.598   2.635  0.00  0.00    +0.098 C 
ATOM      4  C   UNL     1      -0.140  -3.377   3.668  0.00  0.00    +0.089 C 
ATOM      5  C   UNL     1      -0.065  -4.848   3.247  0.00  0.00    +0.015 C 
ATOM      6  C   UNL     1       0.555  -4.940   1.850  0.00  0.00    +0.019 C 
ATOM      7  C   UNL     1      -0.282  -4.115   0.870  0.00  0.00    +0.054 C 
ATOM      8  C   UNL     1       0.345  -4.188  -0.523  0.00  0.00    +0.024 C 
BRANCH   4   9
ATOM      9  C   UNL     1       1.251  -2.804   3.745  0.00  0.00    +0.215 C 
ATOM     10  O   UNL     1       1.560  -1.864   3.044  0.00  0.00    -0.276 OA
ATOM     11  N   UNL     1       2.153  -3.336   4.594  0.00  0.00    -0.329 N 
ATOM     12  H   UNL     1       1.906  -4.088   5.155  0.00  0.00    +0.145 HD
ATOM     13  H   UNL     1       3.049  -2.966   4.644  0.00  0.00    +0.145 HD
ENDBRANCH   4   9
ENDBRANCH   1   2
BRANCH   1  14
ATOM     14  C   UNL     1      -2.388  -2.401   0.075  0.00  0.00    +0.007 A 
ATOM     15  C   UNL     1      -3.008  -2.641  -1.106  0.00  0.00    +0.014 A 
ATOM     16  C   UNL     1      -4.298  -3.138  -1.098  0.00  0.00    +0.028 A 
ATOM     17  C   UNL     1      -4.905  -3.370   0.093  0.00  0.00    +0.078 A 
ATOM     18  S   UNL     1      -3.637  -2.889   1.254  0.00  0.00    -0.080 S 
ATOM     19 CL   UNL     1      -6.499  -3.982   0.407  0.00  0.00    -0.076 Cl
ENDBRANCH   1  14
BRANCH   1  20
ATOM     20  C   UNL     1      -1.095  -0.437   0.862  0.00  0.00    -0.053 C 
BRANCH  20  21
ATOM     21  N   UNL     1      -1.774   0.411  -0.127  0.00  0.00    +0.381 N 
ATOM     22  H   UNL     1      -2.702   0.054  -0.296  0.00  0.00    -0.090 HD
ATOM     23  H   UNL     1      -1.836   1.355   0.225  0.00  0.00    -0.090 HD
ATOM     24  H   UNL     1      -1.250   0.408  -0.990  0.00  0.00    -0.090 HD
ENDBRANCH  20  21
BRANCH  20  26
ATOM     25  C   UNL     1       0.216   1.486   1.768  0.00  0.00    +0.002 C 
ATOM     26  C   UNL     1       0.312   0.105   1.118  0.00  0.00    -0.018 C 
ENDBRANCH  20  26
ENDBRANCH   1  20
TORSDOF 6
