REMARK  Name = ZINC39923300
REMARK  12 active torsions:
REMARK  status: ('A' for Active; 'I' for Inactive)
REMARK    1  A    between atoms: C_1  and  C_2
REMARK    2  A    between atoms: C_2  and  N_3
REMARK    3  A    between atoms: C_4  and  C_26
REMARK    4  A    between atoms: C_8  and  S_10
REMARK    5  A    between atoms: S_10  and  C_11
REMARK    6  A    between atoms: C_11  and  C_12
REMARK    7  A    between atoms: N_14  and  N_15
REMARK    8  A    between atoms: C_16  and  C_17
REMARK    9  A    between atoms: C_29  and  C_32
REMARK   10  A    between atoms: C_32  and  C_33
REMARK   11  A    between atoms: C_32  and  C_34
REMARK   12  A    between atoms: C_32  and  C_35
REMARK                            x       y       z     vdW  Elec       q    Type
REMARK                         _______ _______ _______ _____ _____    ______ ____
ROOT
ATOM      1  N   UNL     1      -1.203  -0.639   0.409  0.00  0.00    +0.410 N 
ATOM      2  C   UNL     1      -1.379  -1.979  -0.197  0.00  0.00    +0.049 C 
ATOM      3  N   UNL     1      -1.675  -2.866   0.959  0.00  0.00    -0.267 NA
ATOM      4  N   UNL     1      -2.516  -2.019   1.820  0.00  0.00    -0.262 NA
ATOM      5  C   UNL     1      -1.928  -0.666   1.696  0.00  0.00    +0.077 C 
ATOM      6  H   UNL     1      -0.827  -3.135   1.435  0.00  0.00    +0.139 HD
ATOM      7  H   UNL     1      -2.491  -2.338   2.777  0.00  0.00    +0.140 HD
ATOM      8  H   UNL     1      -1.595   0.069  -0.194  0.00  0.00    -0.075 HD
ENDROOT
BRANCH   2   9
ATOM      9  C   UNL     1      -0.113  -2.415  -0.888  0.00  0.00    -0.046 A 
ATOM     10  C   UNL     1       0.959  -2.871  -0.144  0.00  0.00    +0.003 A 
ATOM     11  C   UNL     1       2.120  -3.272  -0.779  0.00  0.00    +0.004 A 
ATOM     12  C   UNL     1       2.209  -3.216  -2.157  0.00  0.00    -0.042 A 
ATOM     13  C   UNL     1       1.137  -2.761  -2.901  0.00  0.00    +0.004 A 
ATOM     14  C   UNL     1      -0.026  -2.365  -2.267  0.00  0.00    +0.003 A 
BRANCH  12  15
ATOM     15  C   UNL     1       3.476  -3.651  -2.849  0.00  0.00    -0.013 C 
ATOM     16  C   UNL     1       3.758  -5.118  -2.519  0.00  0.00    +0.015 C 
ATOM     17  C   UNL     1       3.312  -3.491  -4.361  0.00  0.00    +0.015 C 
ATOM     18  C   UNL     1       4.643  -2.787  -2.368  0.00  0.00    +0.015 C 
ENDBRANCH  12  15
ENDBRANCH   2   9
BRANCH   1  20
ATOM     19  C   UNL     1       0.394   1.039   1.204  0.00  0.00    -0.017 C 
ATOM     20  C   UNL     1       0.223  -0.372   0.639  0.00  0.00    -0.076 C 
ENDBRANCH   1  20
BRANCH   5  21
ATOM     21  S   UNL     1      -3.241   0.585   1.696  0.00  0.00    -0.150 S 
BRANCH  21  22
ATOM     22  C   UNL     1      -4.307   0.103   0.310  0.00  0.00    +0.166 C 
BRANCH  22  23
ATOM     23  C   UNL     1      -5.454   1.074   0.197  0.00  0.00    +0.242 C 
ATOM     24  O   UNL     1      -5.544   1.999   0.975  0.00  0.00    -0.273 OA
ATOM     25  N   UNL     1      -6.380   0.913  -0.769  0.00  0.00    -0.206 N 
ATOM     26  H   UNL     1      -6.308   0.173  -1.392  0.00  0.00    +0.177 HD
BRANCH  25  27
ATOM     27  N   UNL     1      -7.447   1.816  -0.874  0.00  0.00    -0.188 NA
ATOM     28  C   UNL     1      -8.346   1.659  -1.813  0.00  0.00    +0.136 C 
BRANCH  28  29
ATOM     29  C   UNL     1      -9.414   2.563  -1.918  0.00  0.00    +0.000 C 
ATOM     30  C   UNL     1     -10.450   2.537  -2.848  0.00  0.00    +0.004 A 
ATOM     31  C   UNL     1     -10.754   1.662  -3.915  0.00  0.00    +0.010 A 
ATOM     32  C   UNL     1     -11.855   1.885  -4.675  0.00  0.00    +0.001 A 
ATOM     33  C   UNL     1     -12.708   2.965  -4.430  0.00  0.00    +0.002 A 
ATOM     34  C   UNL     1     -12.480   3.843  -3.425  0.00  0.00    +0.026 A 
ATOM     35  C   UNL     1     -11.346   3.677  -2.586  0.00  0.00    +0.043 A 
ATOM     36  N   UNL     1     -10.910   4.379  -1.561  0.00  0.00    -0.380 N 
ATOM     37  C   UNL     1      -9.684   3.765  -1.041  0.00  0.00    +0.150 C 
ATOM     38  H   UNL     1     -11.335   5.174  -1.204  0.00  0.00    +0.160 HD
ENDBRANCH  28  29
ENDBRANCH  25  27
ENDBRANCH  22  23
ENDBRANCH  21  22
ENDBRANCH   5  21
TORSDOF 8
