REMARK  Name = ZINC14538205
REMARK  12 active torsions:
REMARK  status: ('A' for Active; 'I' for Inactive)
REMARK    1  A    between atoms: C_1  and  C_2
REMARK    2  A    between atoms: C_2  and  C_3
REMARK    3  A    between atoms: C_2  and  C_4
REMARK    4  A    between atoms: C_4  and  N_5
REMARK    5  A    between atoms: C_7  and  O_26
REMARK    6  A    between atoms: C_13  and  C_14
REMARK    7  A    between atoms: C_13  and  N_64
REMARK    8  A    between atoms: C_17  and  S_19
REMARK    9  A    between atoms: S_19  and  C_20
REMARK   10  A    between atoms: N_24  and  C_25
REMARK   11  A    between atoms: O_26  and  C_27
REMARK   12  A    between atoms: C_27  and  C_28
REMARK                            x       y       z     vdW  Elec       q    Type
REMARK                         _______ _______ _______ _____ _____    ______ ____
ROOT
ATOM      1  N   UNL     1      -0.072  -0.389   2.561  0.00  0.00    -0.300 N 
ATOM      2  C   UNL     1       0.962  -1.212   1.911  0.00  0.00    +0.137 C 
ATOM      3  C   UNL     1       1.794  -1.892   3.001  0.00  0.00    +0.120 C 
ATOM      4  C   UNL     1       1.141  -3.186   3.448  0.00  0.00    -0.044 C 
ATOM      5  C   UNL     1      -1.181  -2.489   3.249  0.00  0.00    +0.019 C 
ATOM      6  C   UNL     1      -1.083  -0.979   3.205  0.00  0.00    +0.199 C 
ATOM      7  O   UNL     1      -1.927  -0.302   3.753  0.00  0.00    -0.278 OA
ATOM      8  N   UNL     1      -0.129  -2.979   4.173  0.00  0.00    +0.392 N 
ATOM      9  H   UNL     1       0.020  -2.275   4.906  0.00  0.00    -0.080 HD
ENDROOT
BRANCH   1  10
ATOM     10  C   UNL     1       0.011   1.072   2.506  0.00  0.00    +0.110 C 
BRANCH  10  12
ATOM     11  C   UNL     1      -0.013   1.086   0.008  0.00  0.00    +0.009 C 
ATOM     12  C   UNL     1      -0.729   1.579   1.267  0.00  0.00    +0.000 C 
ATOM     13  C   UNL     1      -0.750   3.109   1.275  0.00  0.00    +0.009 C 
ENDBRANCH  10  12
ENDBRANCH   1  10
BRANCH   8  14
ATOM     14  C   UNL     1      -0.555  -4.238   4.802  0.00  0.00    -0.002 C 
BRANCH  14  15
ATOM     15  C   UNL     1      -1.972  -4.084   5.293  0.00  0.00    +0.090 A 
ATOM     16  C   UNL     1      -3.082  -4.386   4.595  0.00  0.00    +0.044 A 
ATOM     17  C   UNL     1      -4.185  -4.090   5.427  0.00  0.00    +0.057 A 
ATOM     18  C   UNL     1      -3.680  -3.621   6.593  0.00  0.00    +0.169 A 
ATOM     19  O   UNL     1      -2.339  -3.626   6.504  0.00  0.00    -0.455 OA
BRANCH  18  20
ATOM     20  S   UNL     1      -4.620  -3.099   7.990  0.00  0.00    -0.012 S 
BRANCH  20  21
ATOM     21  C   UNL     1      -3.316  -2.638   9.081  0.00  0.00    +0.199 A 
ATOM     22  N   UNL     1      -2.029  -2.708   8.833  0.00  0.00    -0.122 NA
ATOM     23  N   UNL     1      -1.365  -2.288   9.850  0.00  0.00    -0.137 NA
ATOM     24  C   UNL     1      -2.181  -1.936  10.803  0.00  0.00    +0.225 A 
ATOM     25  N   UNL     1      -3.453  -2.147  10.348  0.00  0.00    -0.311 N 
ATOM     26  C   UNL     1      -4.703  -1.897  11.069  0.00  0.00    +0.152 C 
ENDBRANCH  20  21
ENDBRANCH  18  20
ENDBRANCH  14  15
ENDBRANCH   8  14
BRANCH   3  27
ATOM     27  O   UNL     1       3.098  -2.178   2.489  0.00  0.00    -0.372 OA
BRANCH  27  28
ATOM     28  C   UNL     1       4.045  -1.126   2.691  0.00  0.00    +0.198 C 
BRANCH  28  29
ATOM     29  C   UNL     1       5.376  -1.533   2.115  0.00  0.00    +0.013 A 
ATOM     30  C   UNL     1       5.522  -2.769   1.514  0.00  0.00    +0.009 A 
ATOM     31  C   UNL     1       6.742  -3.140   0.981  0.00  0.00    +0.001 A 
ATOM     32  C   UNL     1       7.821  -2.279   1.057  0.00  0.00    +0.003 A 
ATOM     33  C   UNL     1       7.680  -1.044   1.662  0.00  0.00    +0.039 A 
ATOM     34  C   UNL     1       6.456  -0.670   2.192  0.00  0.00    +0.129 A 
ATOM     35  F   UNL     1       6.317   0.537   2.783  0.00  0.00    -0.205 F 
ENDBRANCH  28  29
ENDBRANCH  27  28
ENDBRANCH   3  27
TORSDOF 9
