REMARK  Name = ZINC40176449
REMARK  3 active torsions:
REMARK  status: ('A' for Active; 'I' for Inactive)
REMARK    1  A    between atoms: C_4  and  C_7
REMARK    2  A    between atoms: C_8  and  C_9
REMARK    3  A    between atoms: C_14  and  N_20
REMARK                            x       y       z     vdW  Elec       q    Type
REMARK                         _______ _______ _______ _____ _____    ______ ____
ROOT
ATOM      1  C   UNL     1       5.033  -2.743  -0.063  0.00  0.00    +0.190 C 
ATOM      2  N   UNL     1       5.142  -3.628   1.105  0.00  0.00    -0.352 N 
ATOM      3  C   UNL     1       5.262  -4.909   0.624  0.00  0.00    +0.120 C 
ATOM      4  C   UNL     1       5.394  -6.108   1.299  0.00  0.00    +0.084 C 
ATOM      5  C   UNL     1       5.500  -7.295   0.567  0.00  0.00    +0.099 C 
ATOM      6  N   UNL     1       5.473  -7.259  -0.761  0.00  0.00    -0.325 N 
ATOM      7  C   UNL     1       5.346  -6.111  -1.415  0.00  0.00    +0.166 C 
ATOM      8  S   UNL     1       5.317  -6.115  -3.074  0.00  0.00    -0.014 SA
ATOM      9  N   UNL     1       5.239  -4.917  -0.741  0.00  0.00    -0.196 N 
ATOM     10  N   UNL     1       5.104  -3.642  -1.228  0.00  0.00    -0.207 NA
ATOM     11  H   UNL     1       5.132  -3.359   2.037  0.00  0.00    +0.163 HD
ATOM     12  H   UNL     1       4.278  -3.559  -1.800  0.00  0.00    +0.147 HD
ATOM     13  H   UNL     1       5.547  -8.087  -1.262  0.00  0.00    +0.169 HD
ENDROOT
BRANCH   5  14
ATOM     14  N   UNL     1       5.632  -8.501   1.222  0.00  0.00    -0.344 N 
ATOM     15  H   UNL     1       5.652  -8.526   2.192  0.00  0.00    +0.144 HD
ATOM     16  H   UNL     1       5.706  -9.324   0.714  0.00  0.00    +0.144 HD
ENDBRANCH   5  14
BRANCH   1  18
ATOM     17  C   UNL     1       3.695  -0.685  -0.038  0.00  0.00    +0.007 C 
ATOM     18  C   UNL     1       3.716  -2.010  -0.046  0.00  0.00    +0.015 C 
BRANCH  17  22
ATOM     19  C   UNL     1      -0.017   1.379   0.010  0.00  0.00    +0.000 A 
ATOM     20  C   UNL     1       1.168   2.093   0.002  0.00  0.00    +0.001 A 
ATOM     21  C   UNL     1       2.377   1.429  -0.013  0.00  0.00    +0.008 A 
ATOM     22  C   UNL     1       2.403   0.034  -0.021  0.00  0.00    -0.025 A 
ATOM     23  C   UNL     1       1.204  -0.681  -0.013  0.00  0.00    +0.008 A 
ATOM     24  C   UNL     1       0.002  -0.004   0.002  0.00  0.00    +0.001 A 
ENDBRANCH  17  22
ENDBRANCH   1  18
TORSDOF 3
