REMARK  Name = ZINC64058328
REMARK  12 active torsions:
REMARK  status: ('A' for Active; 'I' for Inactive)
REMARK    1  A    between atoms: C_1  and  O_2
REMARK    2  A    between atoms: O_2  and  C_3
REMARK    3  A    between atoms: C_8  and  C_9
REMARK    4  A    between atoms: C_9  and  N_10
REMARK    5  A    between atoms: C_12  and  N_31
REMARK    6  A    between atoms: C_15  and  C_17
REMARK    7  A    between atoms: N_19  and  C_20
REMARK    8  A    between atoms: C_20  and  C_21
REMARK    9  A    between atoms: C_21  and  C_22
REMARK   10  A    between atoms: C_33  and  C_36
REMARK   11  A    between atoms: C_36  and  O_38
REMARK   12  A    between atoms: O_38  and  C_39
REMARK                            x       y       z     vdW  Elec       q    Type
REMARK                         _______ _______ _______ _____ _____    ______ ____
ROOT
ATOM      1  N   UNL     1      -1.406  -2.882  -0.212  0.00  0.00    +0.391 N 
ATOM      2  C   UNL     1      -1.671  -3.503  -1.527  0.00  0.00    -0.053 C 
ATOM      3  C   UNL     1      -2.930  -4.377  -1.307  0.00  0.00    +0.074 C 
ATOM      4  C   UNL     1      -2.689  -4.918   0.127  0.00  0.00    +0.016 C 
ATOM      5  C   UNL     1      -2.003  -3.731   0.836  0.00  0.00    +0.021 C 
ATOM      6  H   UNL     1      -1.822  -1.963  -0.182  0.00  0.00    -0.080 HD
ENDROOT
BRANCH   3   7
ATOM      7  N   UNL     1      -2.986  -5.471  -2.279  0.00  0.00    -0.255 N 
ATOM      8  C   UNL     1      -3.990  -5.678  -3.192  0.00  0.00    +0.121 C 
ATOM      9  C   UNL     1      -3.691  -6.782  -3.912  0.00  0.00    +0.142 C 
ATOM     10  N   UNL     1      -2.460  -7.282  -3.432  0.00  0.00    -0.257 N 
ATOM     11  N   UNL     1      -2.047  -6.450  -2.430  0.00  0.00    -0.160 NA
ATOM     12  H   UNL     1      -1.992  -8.068  -3.757  0.00  0.00    +0.168 HD
ATOM     13  H   UNL     1      -1.915  -6.960  -1.570  0.00  0.00    +0.168 HD
BRANCH   9  14
ATOM     14  C   UNL     1      -4.471  -7.338  -4.956  0.00  0.00    +0.355 C 
ATOM     15  O   UNL     1      -5.520  -6.811  -5.277  0.00  0.00    -0.243 OA
BRANCH  14  16
ATOM     16  O   UNL     1      -4.050  -8.450  -5.593  0.00  0.00    -0.464 OA
ATOM     17  C   UNL     1      -4.887  -8.955  -6.636  0.00  0.00    +0.280 C 
ENDBRANCH  14  16
ENDBRANCH   9  14
ENDBRANCH   3   7
BRANCH   5  18
ATOM     18  C   UNL     1      -0.927  -4.238   1.760  0.00  0.00    +0.200 C 
ATOM     19  O   UNL     1       0.012  -4.863   1.313  0.00  0.00    -0.278 OA
ATOM     20  N   UNL     1      -1.007  -3.997   3.084  0.00  0.00    -0.316 N 
ATOM     21  H   UNL     1      -1.758  -3.498   3.442  0.00  0.00    +0.149 HD
BRANCH  20  22
ATOM     22  C   UNL     1       0.040  -4.490   3.983  0.00  0.00    +0.108 C 
BRANCH  22  23
ATOM     23  C   UNL     1      -0.290  -4.084   5.421  0.00  0.00    +0.052 C 
BRANCH  23  24
ATOM     24  C   UNL     1       0.787  -4.592   6.345  0.00  0.00    -0.040 C 
ATOM     25  C   UNL     1       1.867  -3.908   6.788  0.00  0.00    -0.001 A 
ATOM     26  C   UNL     1       2.344  -2.541   6.550  0.00  0.00    +0.010 A 
ATOM     27  C   UNL     1       3.487  -2.132   7.146  0.00  0.00    +0.001 A 
ATOM     28  C   UNL     1       4.226  -2.980   7.983  0.00  0.00    +0.002 A 
ATOM     29  C   UNL     1       3.851  -4.249   8.250  0.00  0.00    +0.026 A 
ATOM     30  C   UNL     1       2.664  -4.783   7.677  0.00  0.00    +0.043 A 
ATOM     31  N   UNL     1       2.099  -5.962   7.779  0.00  0.00    -0.380 N 
ATOM     32  C   UNL     1       0.875  -5.966   6.971  0.00  0.00    +0.144 C 
ATOM     33  H   UNL     1       2.433  -6.706   8.305  0.00  0.00    +0.160 HD
ENDBRANCH  23  24
ENDBRANCH  22  23
ENDBRANCH  20  22
ENDBRANCH   5  18
BRANCH   1  34
ATOM     34  C   UNL     1       0.043  -2.778   0.003  0.00  0.00    -0.038 C 
BRANCH  34  40
ATOM     35  C   UNL     1       0.521  -0.417  -0.693  0.00  0.00    +0.121 A 
ATOM     36  C   UNL     1       1.061   0.504  -1.579  0.00  0.00    +0.046 A 
ATOM     37  C   UNL     1       1.693   0.068  -2.727  0.00  0.00    +0.004 A 
ATOM     38  C   UNL     1       1.789  -1.286  -2.994  0.00  0.00    +0.000 A 
ATOM     39  C   UNL     1       1.252  -2.206  -2.112  0.00  0.00    +0.005 A 
ATOM     40  C   UNL     1       0.623  -1.775  -0.960  0.00  0.00    -0.022 A 
BRANCH  35  42
ATOM     41  C   UNL     1      -0.169   1.421   0.647  0.00  0.00    +0.277 C 
ATOM     42  O   UNL     1      -0.101   0.009   0.437  0.00  0.00    -0.495 OA
ENDBRANCH  35  42
ENDBRANCH  34  40
ENDBRANCH   1  34
TORSDOF 10
