REMARK  Name = ZINC13064523
REMARK  14 active torsions:
REMARK  status: ('A' for Active; 'I' for Inactive)
REMARK    1  A    between atoms: C_1  and  C_2
REMARK    2  A    between atoms: C_2  and  C_3
REMARK    3  A    between atoms: C_3  and  C_5
REMARK    4  A    between atoms: C_3  and  N_65
REMARK    5  A    between atoms: N_9  and  C_10
REMARK    6  A    between atoms: C_10  and  C_11
REMARK    7  A    between atoms: C_16  and  C_17
REMARK    8  A    between atoms: C_16  and  N_65
REMARK    9  A    between atoms: C_22  and  C_23
REMARK   10  A    between atoms: C_22  and  N_65
REMARK   11  A    between atoms: C_27  and  O_37
REMARK   12  A    between atoms: C_28  and  O_35
REMARK   13  A    between atoms: O_35  and  C_36
REMARK   14  A    between atoms: O_37  and  C_38
REMARK                            x       y       z     vdW  Elec       q    Type
REMARK                         _______ _______ _______ _____ _____    ______ ____
ROOT
ATOM      1  N   UNL     1      -5.290   4.149  -1.705  0.00  0.00    +0.392 N 
ATOM      2  H   UNL     1      -4.595   4.614  -2.301  0.00  0.00    -0.080 HD
ENDROOT
BRANCH   1   3
ATOM      3  C   UNL     1      -6.483   5.014  -1.595  0.00  0.00    +0.003 C 
BRANCH   3   4
ATOM      4  C   UNL     1      -6.035   6.453  -1.596  0.00  0.00    +0.139 A 
ATOM      5  N   UNL     1      -5.047   6.965  -0.904  0.00  0.00    -0.115 NA
ATOM      6  N   UNL     1      -4.979   8.223  -1.178  0.00  0.00    -0.023 NA
ATOM      7  N   UNL     1      -5.903   8.527  -2.020  0.00  0.00    -0.044 NA
ATOM      8  N   UNL     1      -6.576   7.463  -2.303  0.00  0.00    -0.223 N 
BRANCH   8   9
ATOM      9  C   UNL     1      -7.715   7.371  -3.220  0.00  0.00    +0.221 C 
BRANCH   9  10
ATOM     10  C   UNL     1      -8.993   7.616  -2.460  0.00  0.00    +0.126 A 
ATOM     11  C   UNL     1      -9.576   8.812  -2.267  0.00  0.00    +0.046 A 
ATOM     12  C   UNL     1     -10.747   8.580  -1.509  0.00  0.00    +0.041 A 
ATOM     13  C   UNL     1     -10.805   7.256  -1.278  0.00  0.00    +0.195 A 
ATOM     14  O   UNL     1      -9.740   6.677  -1.856  0.00  0.00    -0.466 OA
ENDBRANCH   9  10
ENDBRANCH   8   9
ENDBRANCH   3   4
BRANCH   3  16
ATOM     15  C   UNL     1      -7.816   3.300  -0.359  0.00  0.00    +0.002 C 
ATOM     16  C   UNL     1      -7.241   4.716  -0.300  0.00  0.00    -0.011 C 
ENDBRANCH   3  16
ENDBRANCH   1   3
BRANCH   1  17
ATOM     17  C   UNL     1      -5.659   2.855  -2.318  0.00  0.00    -0.034 C 
BRANCH  17  18
ATOM     18  C   UNL     1      -6.163   3.103  -3.716  0.00  0.00    -0.027 A 
ATOM     19  C   UNL     1      -5.457   3.264  -4.862  0.00  0.00    +0.009 A 
ATOM     20  C   UNL     1      -6.139   3.483  -6.044  0.00  0.00    +0.008 A 
ATOM     21  C   UNL     1      -7.493   3.530  -6.023  0.00  0.00    +0.045 A 
ATOM     22  S   UNL     1      -7.845   3.253  -4.294  0.00  0.00    -0.103 S 
ENDBRANCH  17  18
ENDBRANCH   1  17
BRANCH   1  23
ATOM     23  C   UNL     1      -4.703   3.925  -0.367  0.00  0.00    -0.036 C 
BRANCH  23  24
ATOM     24  C   UNL     1      -3.330   3.325  -0.534  0.00  0.00    +0.001 A 
ATOM     25  C   UNL     1      -2.237   4.130  -0.540  0.00  0.00    +0.017 A 
ATOM     26  C   UNL     1      -0.919   3.517  -0.708  0.00  0.00    +0.002 A 
ATOM     27  C   UNL     1       0.242   4.300  -0.735  0.00  0.00    +0.059 A 
ATOM     28  C   UNL     1       1.468   3.693  -0.895  0.00  0.00    +0.162 A 
ATOM     29  C   UNL     1       1.556   2.304  -1.029  0.00  0.00    +0.163 A 
ATOM     30  C   UNL     1       0.416   1.523  -1.003  0.00  0.00    +0.075 A 
ATOM     31  C   UNL     1      -0.830   2.119  -0.848  0.00  0.00    +0.053 A 
ATOM     32  N   UNL     1      -1.980   1.357  -0.824  0.00  0.00    -0.322 N 
ATOM     33  H   UNL     1      -1.917   0.393  -0.918  0.00  0.00    +0.169 HD
ATOM     34  C   UNL     1      -3.187   1.930  -0.674  0.00  0.00    +0.251 A 
ATOM     35  O   UNL     1      -4.181   1.226  -0.658  0.00  0.00    -0.268 OA
BRANCH  29  36
ATOM     36  O   UNL     1       2.771   1.718  -1.187  0.00  0.00    -0.491 OA
ATOM     37  C   UNL     1       2.792   0.295  -1.319  0.00  0.00    +0.277 C 
ENDBRANCH  29  36
BRANCH  28  38
ATOM     38  O   UNL     1       2.599   4.449  -0.923  0.00  0.00    -0.491 OA
ATOM     39  C   UNL     1       2.439   5.862  -0.780  0.00  0.00    +0.277 C 
ENDBRANCH  28  38
ENDBRANCH  23  24
ENDBRANCH   1  23
TORSDOF 11
