REMARK  Name = ZINC38684509
REMARK  11 active torsions:
REMARK  status: ('A' for Active; 'I' for Inactive)
REMARK    1  A    between atoms: C_1  and  O_2
REMARK    2  A    between atoms: O_2  and  C_3
REMARK    3  A    between atoms: C_7  and  C_9
REMARK    4  A    between atoms: C_9  and  O_11
REMARK    5  A    between atoms: O_11  and  C_12
REMARK    6  A    between atoms: C_19  and  N_35
REMARK    7  A    between atoms: C_20  and  C_33
REMARK    8  A    between atoms: C_21  and  C_23
REMARK    9  A    between atoms: C_27  and  O_29
REMARK   10  A    between atoms: O_29  and  C_30
REMARK   11  A    between atoms: C_30  and  C_31
REMARK                            x       y       z     vdW  Elec       q    Type
REMARK                         _______ _______ _______ _____ _____    ______ ____
ROOT
ATOM      1  C   UNL     1       2.077  -6.056   3.377  0.00  0.00    +0.135 A 
ATOM      2  C   UNL     1       1.556  -6.866   2.377  0.00  0.00    +0.047 A 
ATOM      3  C   UNL     1       1.618  -8.240   2.499  0.00  0.00    +0.012 A 
ATOM      4  C   UNL     1       2.197  -8.815   3.617  0.00  0.00    +0.008 A 
ATOM      5  C   UNL     1       2.719  -8.011   4.619  0.00  0.00    +0.138 A 
ATOM      6  C   UNL     1       2.663  -6.629   4.494  0.00  0.00    +0.093 A 
ATOM      7  O   UNL     1       3.290  -8.556   5.721  0.00  0.00    -0.441 OA
ATOM      8  C   UNL     1       3.029  -9.832   6.050  0.00  0.00    +0.199 C 
ATOM      9  C   UNL     1       2.536 -10.718   5.152  0.00  0.00    +0.098 C 
ATOM     10  C   UNL     1       2.255 -10.316   3.731  0.00  0.00    +0.098 C 
ENDROOT
BRANCH  10  11
ATOM     11  C   UNL     1       3.348 -10.843   2.838  0.00  0.00    -0.031 A 
ATOM     12  C   UNL     1       4.657 -10.444   3.039  0.00  0.00    +0.005 A 
ATOM     13  C   UNL     1       5.662 -10.926   2.221  0.00  0.00    +0.004 A 
ATOM     14  C   UNL     1       5.361 -11.807   1.200  0.00  0.00    +0.045 A 
ATOM     15  C   UNL     1       4.049 -12.208   0.997  0.00  0.00    +0.121 A 
ATOM     16  C   UNL     1       3.043 -11.728   1.823  0.00  0.00    +0.050 A 
BRANCH  15  17
ATOM     17  O   UNL     1       3.751 -13.075  -0.007  0.00  0.00    -0.488 OA
BRANCH  17  18
ATOM     18  C   UNL     1       4.837 -13.532  -0.814  0.00  0.00    +0.256 C 
BRANCH  18  19
ATOM     19  C   UNL     1       4.318 -14.478  -1.866  0.00  0.00    +0.006 C 
ATOM     20  C   UNL     1       4.727 -14.366  -3.106  0.00  0.00    +0.007 C 
ENDBRANCH  18  19
ENDBRANCH  17  18
ENDBRANCH  15  17
ENDBRANCH  10  11
BRANCH   8  21
ATOM     21  N   UNL     1       3.269 -10.251   7.335  0.00  0.00    -0.328 N 
ATOM     22  H   UNL     1       3.623  -9.629   7.990  0.00  0.00    +0.145 HD
ATOM     23  H   UNL     1       3.085 -11.169   7.588  0.00  0.00    +0.145 HD
ENDBRANCH   8  21
BRANCH   9  24
ATOM     24  C   UNL     1       2.276 -12.064   5.564  0.00  0.00    +0.101 C 
ATOM     25  N   UNL     1       2.071 -13.133   5.891  0.00  0.00    -0.191 NA
ENDBRANCH   9  24
BRANCH   1  26
ATOM     26  O   UNL     1       2.017  -4.704   3.258  0.00  0.00    -0.422 OA
BRANCH  26  27
ATOM     27  C   UNL     1       0.838  -4.099   3.504  0.00  0.00    +0.345 C 
ATOM     28  O   UNL     1      -0.150  -4.766   3.734  0.00  0.00    -0.245 OA
BRANCH  27  33
ATOM     29  C   UNL     1      -0.547  -0.613   3.739  0.00  0.00    +0.121 A 
ATOM     30  C   UNL     1       0.587   0.144   3.476  0.00  0.00    +0.045 A 
ATOM     31  C   UNL     1       1.796  -0.478   3.224  0.00  0.00    +0.004 A 
ATOM     32  C   UNL     1       1.884  -1.855   3.231  0.00  0.00    +0.015 A 
ATOM     33  C   UNL     1       0.749  -2.624   3.495  0.00  0.00    +0.063 A 
ATOM     34  C   UNL     1      -0.470  -1.995   3.755  0.00  0.00    +0.060 A 
BRANCH  29  36
ATOM     35  C   UNL     1      -1.740   1.433   3.953  0.00  0.00    +0.277 C 
ATOM     36  O   UNL     1      -1.732   0.004   3.986  0.00  0.00    -0.495 OA
ENDBRANCH  29  36
ENDBRANCH  27  33
ENDBRANCH  26  27
ENDBRANCH   1  26
TORSDOF 10
