REMARK  Name = ZINC36008819
REMARK  7 active torsions:
REMARK  status: ('A' for Active; 'I' for Inactive)
REMARK    1  A    between atoms: C_1  and  C_2
REMARK    2  A    between atoms: C_3  and  C_20
REMARK    3  A    between atoms: C_4  and  C_10
REMARK    4  A    between atoms: C_13  and  O_19
REMARK    5  A    between atoms: C_14  and  N_16
REMARK    6  A    between atoms: C_20  and  O_22
REMARK    7  A    between atoms: O_22  and  C_23
REMARK                            x       y       z     vdW  Elec       q    Type
REMARK                         _______ _______ _______ _____ _____    ______ ____
ROOT
ATOM      1  C   UNL     1      -0.018   1.503   0.010  0.00  0.00    +0.061 C 
ATOM      2  C   UNL     1       0.002  -0.004   0.002  0.00  0.00    +0.021 C 
ATOM      3  C   UNL     1      -1.165  -0.684   0.004  0.00  0.00    +0.078 C 
ATOM      4  C   UNL     1      -1.098  -2.198  -0.005  0.00  0.00    +0.144 C 
ATOM      5  N   UNL     1       0.242  -2.807  -0.014  0.00  0.00    -0.288 N 
ATOM      6  C   UNL     1       1.317  -1.993  -0.015  0.00  0.00    +0.304 C 
ATOM      7  O   UNL     1       2.428  -2.486  -0.023  0.00  0.00    -0.252 OA
ATOM      8  N   UNL     1       1.200  -0.659  -0.013  0.00  0.00    -0.273 N 
ATOM      9  H   UNL     1       0.350  -3.771  -0.020  0.00  0.00    +0.151 HD
ATOM     10  H   UNL     1       2.012  -0.129  -0.018  0.00  0.00    +0.156 HD
ENDROOT
BRANCH   4  11
ATOM     11  C   UNL     1      -1.840  -2.689  -1.222  0.00  0.00    -0.020 A 
ATOM     12  C   UNL     1      -1.221  -2.675  -2.458  0.00  0.00    +0.009 A 
ATOM     13  C   UNL     1      -1.899  -3.124  -3.575  0.00  0.00    +0.048 A 
ATOM     14  C   UNL     1      -3.200  -3.590  -3.455  0.00  0.00    +0.147 A 
ATOM     15  C   UNL     1      -3.818  -3.603  -2.213  0.00  0.00    +0.168 A 
ATOM     16  C   UNL     1      -3.135  -3.157  -1.099  0.00  0.00    +0.042 A 
BRANCH  15  17
ATOM     17  N   UNL     1      -5.206  -4.098  -2.082  0.00  0.00    +0.060 N 
ATOM     18  O   UNL     1      -5.744  -4.109  -1.000  0.00  0.00    -0.126 OA
ATOM     19  O   UNL     1      -5.803  -4.492  -3.058  0.00  0.00    -0.126 OA
ENDBRANCH  15  17
BRANCH  14  20
ATOM     20  O   UNL     1      -3.869  -4.032  -4.553  0.00  0.00    -0.504 OA
ATOM     21  H   UNL     1      -3.757  -4.976  -4.728  0.00  0.00    +0.292 HD
ENDBRANCH  14  20
ENDBRANCH   4  11
BRANCH   3  22
ATOM     22  C   UNL     1      -2.406  -0.006   0.014  0.00  0.00    +0.339 C 
ATOM     23  O   UNL     1      -2.435   1.210   0.021  0.00  0.00    -0.245 OA
BRANCH  22  24
ATOM     24  O   UNL     1      -3.558  -0.709   0.016  0.00  0.00    -0.458 OA
BRANCH  24  25
ATOM     25  C   UNL     1      -4.775   0.040   0.026  0.00  0.00    +0.177 C 
ATOM     26  C   UNL     1      -5.202   0.299   1.472  0.00  0.00    +0.044 C 
ATOM     27  C   UNL     1      -6.252   1.411   1.502  0.00  0.00    +0.004 C 
ATOM     28  C   UNL     1      -5.821   2.546   0.572  0.00  0.00    +0.000 C 
ATOM     29  C   UNL     1      -6.786   2.630  -0.612  0.00  0.00    +0.000 C 
ATOM     30  C   UNL     1      -6.486   1.496  -1.594  0.00  0.00    +0.000 C 
ATOM     31  C   UNL     1      -7.032   0.180  -1.035  0.00  0.00    +0.004 C 
ATOM     32  C   UNL     1      -5.868  -0.752  -0.694  0.00  0.00    +0.044 C 
ENDBRANCH  24  25
ENDBRANCH  22  24
ENDBRANCH   3  22
TORSDOF 6
