REMARK  Name = ZINC10093463
REMARK  4 active torsions:
REMARK  status: ('A' for Active; 'I' for Inactive)
REMARK    1  A    between atoms: C_7  and  O_11
REMARK    2  A    between atoms: O_11  and  C_12
REMARK    3  A    between atoms: C_12  and  C_13
REMARK    4  A    between atoms: C_15  and  N_23
REMARK                            x       y       z     vdW  Elec       q    Type
REMARK                         _______ _______ _______ _____ _____    ______ ____
ROOT
ATOM      1  C   UNL     1      -1.955   1.773   3.685  0.00  0.00    +0.268 C 
ENDROOT
BRANCH   1   2
ATOM      2  C   UNL     1      -2.718   1.494   2.416  0.00  0.00    +0.034 A 
ATOM      3  C   UNL     1      -4.090   1.340   2.455  0.00  0.00    +0.043 A 
ATOM      4  C   UNL     1      -4.791   1.082   1.292  0.00  0.00    +0.127 A 
ATOM      5  C   UNL     1      -4.120   0.977   0.087  0.00  0.00    +0.042 A 
ATOM      6  C   UNL     1      -2.747   1.129   0.043  0.00  0.00    +0.022 A 
ATOM      7  C   UNL     1      -2.042   1.390   1.208  0.00  0.00    +0.135 A 
ATOM      8  O   UNL     1      -0.689   1.550   1.180  0.00  0.00    -0.465 OA
ATOM      9  C   UNL     1      -0.013   1.086   0.008  0.00  0.00    +0.394 C 
ATOM     10  O   UNL     1      -0.712   1.564  -1.147  0.00  0.00    -0.339 OA
ATOM     11  C   UNL     1      -2.025   1.010  -1.276  0.00  0.00    +0.202 C 
BRANCH   4  12
ATOM     12  N   UNL     1      -6.261   0.918   1.335  0.00  0.00    +0.056 N 
ATOM     13  O   UNL     1      -6.879   0.691   0.311  0.00  0.00    -0.126 OA
ATOM     14  O   UNL     1      -6.853   1.010   2.396  0.00  0.00    -0.126 OA
ENDBRANCH   4  12
ENDBRANCH   1   2
BRANCH   1  15
ATOM     15  O   UNL     1      -2.865   1.833   4.785  0.00  0.00    -0.484 OA
BRANCH  15  22
ATOM     16  C   UNL     1      -1.119  -1.046   8.454  0.00  0.00    +0.020 A 
ATOM     17  C   UNL     1      -0.954   0.226   8.923  0.00  0.00    +0.013 A 
ATOM     18  C   UNL     1      -1.369   1.294   8.106  0.00  0.00    +0.022 A 
ATOM     19  C   UNL     1      -1.248   2.629   8.530  0.00  0.00    +0.051 A 
ATOM     20  C   UNL     1      -1.661   3.637   7.711  0.00  0.00    +0.038 A 
ATOM     21  C   UNL     1      -2.202   3.364   6.457  0.00  0.00    +0.059 A 
ATOM     22  C   UNL     1      -2.335   2.079   6.012  0.00  0.00    +0.160 A 
ATOM     23  C   UNL     1      -1.924   1.010   6.834  0.00  0.00    +0.115 A 
ATOM     24  N   UNL     1      -2.047  -0.257   6.430  0.00  0.00    -0.251 NA
ATOM     25  C   UNL     1      -1.667  -1.255   7.190  0.00  0.00    +0.111 A 
ATOM     26  I   UNL     1      -2.821   4.949   5.234  0.00  0.00    -0.040 I 
ATOM     27 CL   UNL     1      -0.576   2.992  10.089  0.00  0.00    -0.083 Cl
ENDBRANCH  15  22
ENDBRANCH   1  15
TORSDOF 4
