REMARK  Name = ZINC14992829
REMARK  8 active torsions:
REMARK  status: ('A' for Active; 'I' for Inactive)
REMARK    1  A    between atoms: C_1  and  C_2
REMARK    2  A    between atoms: C_2  and  O_3
REMARK    3  A    between atoms: O_3  and  C_4
REMARK    4  A    between atoms: C_4  and  C_6
REMARK    5  A    between atoms: C_12  and  N_68
REMARK    6  A    between atoms: C_18  and  C_20
REMARK    7  A    between atoms: C_22  and  C_31
REMARK    8  A    between atoms: C_24  and  N_26
REMARK                            x       y       z     vdW  Elec       q    Type
REMARK                         _______ _______ _______ _____ _____    ______ ____
ROOT
ATOM      1  C   UNL     1      -4.799   0.094   0.792  0.00  0.00    -0.066 C 
ATOM      2  C   UNL     1      -4.687   1.616   0.908  0.00  0.00    +0.004 C 
ATOM      3  C   UNL     1      -3.746   2.139  -0.182  0.00  0.00    +0.106 C 
ATOM      4  N   UNL     1      -2.464   1.430  -0.080  0.00  0.00    -0.298 N 
ATOM      5  C   UNL     1      -2.466  -0.039  -0.096  0.00  0.00    +0.106 C 
ATOM      6  C   UNL     1      -3.421  -0.538   0.999  0.00  0.00    +0.004 C 
ATOM      7  C   UNL     1      -1.307   2.114   0.020  0.00  0.00    +0.247 C 
ATOM      8  O   UNL     1      -1.324   3.324   0.134  0.00  0.00    -0.270 OA
ENDROOT
BRANCH   1  14
ATOM      9  C   UNL     1      -6.801  -2.365   2.823  0.00  0.00    +0.081 C 
ATOM     10  C   UNL     1      -8.139  -1.620   2.840  0.00  0.00    +0.011 C 
ATOM     11  C   UNL     1      -7.875  -0.116   2.954  0.00  0.00    -0.018 C 
ATOM     12  C   UNL     1      -6.993   0.333   1.786  0.00  0.00    -0.078 C 
ATOM     13  C   UNL     1      -5.951  -1.851   1.659  0.00  0.00    -0.064 C 
ATOM     14  N   UNL     1      -5.712  -0.403   1.842  0.00  0.00    +0.382 N 
ATOM     15  H   UNL     1      -5.280  -0.250   2.760  0.00  0.00    -0.081 HD
BRANCH   9  16
ATOM     16  C   UNL     1      -7.050  -3.841   2.651  0.00  0.00    +0.308 C 
ATOM     17  O   UNL     1      -6.594  -4.423   1.696  0.00  0.00    -0.251 OA
BRANCH  16  18
ATOM     18  O   UNL     1      -7.778  -4.509   3.560  0.00  0.00    -0.465 OA
BRANCH  18  20
ATOM     19  C   UNL     1      -8.824  -6.515   4.461  0.00  0.00    +0.048 C 
ATOM     20  C   UNL     1      -7.977  -5.929   3.330  0.00  0.00    +0.229 C 
ENDBRANCH  18  20
ENDBRANCH  16  18
ENDBRANCH   9  16
ENDBRANCH   1  14
BRANCH   7  21
ATOM     21  C   UNL     1      -0.016   1.393  -0.009  0.00  0.00    +0.039 A 
ATOM     22  C   UNL     1       1.009   1.760   0.861  0.00  0.00    +0.021 A 
ATOM     23  C   UNL     1       2.223   1.083   0.826  0.00  0.00    -0.015 A 
ATOM     24  C   UNL     1       2.412   0.039  -0.077  0.00  0.00    +0.036 A 
ATOM     25  C   UNL     1       1.392  -0.326  -0.943  0.00  0.00    +0.070 A 
ATOM     26  C   UNL     1       0.180   0.347  -0.912  0.00  0.00    +0.041 A 
BRANCH  23  27
ATOM     27  C   UNL     1       3.317   1.472   1.751  0.00  0.00    -0.018 A 
ATOM     28  C   UNL     1       3.132   2.519   2.651  0.00  0.00    +0.008 A 
ATOM     29  C   UNL     1       4.151   2.873   3.513  0.00  0.00    +0.001 A 
ATOM     30  C   UNL     1       5.358   2.197   3.475  0.00  0.00    +0.000 A 
ATOM     31  C   UNL     1       5.548   1.160   2.580  0.00  0.00    +0.001 A 
ATOM     32  C   UNL     1       4.534   0.794   1.718  0.00  0.00    +0.008 A 
ENDBRANCH  23  27
BRANCH  25  33
ATOM     33  N   UNL     1       1.586  -1.377  -1.851  0.00  0.00    -0.200 N 
ATOM     34  C   UNL     1       0.739  -1.793  -2.817  0.00  0.00    +0.250 A 
ATOM     35  N   UNL     1       1.312  -2.796  -3.430  0.00  0.00    -0.116 NA
ATOM     36  N   UNL     1       2.463  -3.042  -2.918  0.00  0.00    -0.023 NA
ATOM     37  N   UNL     1       2.708  -2.219  -1.956  0.00  0.00    -0.039 NA
ENDBRANCH  25  33
ENDBRANCH   7  21
TORSDOF 7
