REMARK  Name = ZINC05273419
REMARK  4 active torsions:
REMARK  status: ('A' for Active; 'I' for Inactive)
REMARK    1  A    between atoms: C_1  and  C_2
REMARK    2  A    between atoms: C_14  and  C_15
REMARK    3  A    between atoms: N_17  and  N_18
REMARK    4  A    between atoms: C_19  and  C_21
REMARK                            x       y       z     vdW  Elec       q    Type
REMARK                         _______ _______ _______ _____ _____    ______ ____
ROOT
ATOM      1  C   UNL     1      -1.969   8.438   0.060  0.00  0.00    +0.048 C 
ATOM      2  C   UNL     1      -0.970   7.309   0.045  0.00  0.00    +0.008 A 
ATOM      3  C   UNL     1      -1.263   5.922   0.042  0.00  0.00    +0.024 A 
ATOM      4  C   UNL     1      -2.468   5.190   0.050  0.00  0.00    +0.012 A 
ATOM      5  C   UNL     1      -2.456   3.837   0.044  0.00  0.00    +0.009 A 
ATOM      6  C   UNL     1      -1.232   3.135   0.030  0.00  0.00    -0.014 A 
ATOM      7  C   UNL     1      -1.207   1.731   0.017  0.00  0.00    +0.008 A 
ATOM      8  C   UNL     1      -0.013   1.076   0.008  0.00  0.00    +0.001 A 
ATOM      9  C   UNL     1       1.189   1.778   0.000  0.00  0.00    +0.001 A 
ATOM     10  C   UNL     1       1.202   3.141   0.006  0.00  0.00    +0.012 A 
ATOM     11  C   UNL     1      -0.009   3.848   0.021  0.00  0.00    +0.025 A 
ATOM     12  C   UNL     1      -0.031   5.260   0.028  0.00  0.00    +0.144 A 
ATOM     13  O   UNL     1       0.937   6.195   0.023  0.00  0.00    -0.449 OA
ATOM     14  C   UNL     1       0.384   7.426   0.033  0.00  0.00    +0.195 A 
ENDROOT
BRANCH  14  15
ATOM     15  C   UNL     1       1.128   8.693   0.033  0.00  0.00    +0.296 C 
ATOM     16  O   UNL     1       0.527   9.751   0.044  0.00  0.00    -0.265 OA
ATOM     17  N   UNL     1       2.475   8.683   0.020  0.00  0.00    -0.228 N 
ATOM     18  H   UNL     1       2.954   7.839   0.011  0.00  0.00    +0.173 HD
BRANCH  17  19
ATOM     19  N   UNL     1       3.185   9.891   0.019  0.00  0.00    -0.230 N 
ATOM     20  C   UNL     1       4.533   9.881   0.006  0.00  0.00    +0.260 C 
ATOM     21  O   UNL     1       5.132   8.823  -0.004  0.00  0.00    -0.269 OA
ATOM     22  H   UNL     1       2.706  10.734   0.028  0.00  0.00    +0.173 HD
BRANCH  20  23
ATOM     23  C   UNL     1       5.281  11.155   0.006  0.00  0.00    +0.038 A 
ATOM     24  C   UNL     1       4.596  12.371   0.013  0.00  0.00    +0.013 A 
ATOM     25  C   UNL     1       5.301  13.557   0.017  0.00  0.00    +0.001 A 
ATOM     26  C   UNL     1       6.684  13.543   0.004  0.00  0.00    +0.000 A 
ATOM     27  C   UNL     1       7.370  12.341  -0.008  0.00  0.00    +0.001 A 
ATOM     28  C   UNL     1       6.677  11.148  -0.007  0.00  0.00    +0.013 A 
ENDBRANCH  20  23
ENDBRANCH  17  19
ENDBRANCH  14  15
TORSDOF 3
