REMARK  Name = ZINC08721487
REMARK  8 active torsions:
REMARK  status: ('A' for Active; 'I' for Inactive)
REMARK    1  A    between atoms: C_1  and  C_2
REMARK    2  A    between atoms: C_2  and  C_3
REMARK    3  A    between atoms: C_3  and  C_4
REMARK    4  A    between atoms: C_10  and  S_12
REMARK    5  A    between atoms: S_12  and  C_13
REMARK    6  A    between atoms: C_13  and  C_14
REMARK    7  A    between atoms: N_20  and  C_21
REMARK    8  A    between atoms: C_24  and  C_27
REMARK                            x       y       z     vdW  Elec       q    Type
REMARK                         _______ _______ _______ _____ _____    ______ ____
ROOT
ATOM      1  C   UNL     1      -0.939  -4.171  -5.296  0.00  0.00    +0.146 A 
ATOM      2  N   UNL     1       0.244  -4.170  -5.884  0.00  0.00    -0.199 NA
ATOM      3  C   UNL     1       0.347  -4.469  -7.177  0.00  0.00    +0.217 A 
ATOM      4  N   UNL     1      -0.743  -4.769  -7.876  0.00  0.00    -0.181 NA
ATOM      5  C   UNL     1      -1.931  -4.769  -7.281  0.00  0.00    +0.224 A 
ATOM      6  N   UNL     1      -2.024  -4.473  -5.986  0.00  0.00    -0.198 NA
ATOM      7  N   UNL     1      -3.066  -5.079  -8.003  0.00  0.00    -0.284 N 
ATOM      8  N   UNL     1       1.583  -4.468  -7.791  0.00  0.00    -0.327 N 
ATOM      9  H   UNL     1      -3.940  -4.999  -7.590  0.00  0.00    +0.155 HD
ATOM     10  H   UNL     1       2.378  -4.249  -7.280  0.00  0.00    +0.145 HD
ATOM     11  H   UNL     1       1.656  -4.686  -8.733  0.00  0.00    +0.145 HD
ENDROOT
BRANCH   7  12
ATOM     12  C   UNL     1      -2.956  -5.508  -9.330  0.00  0.00    +0.034 A 
ATOM     13  C   UNL     1      -1.905  -6.333  -9.709  0.00  0.00    +0.023 A 
ATOM     14  C   UNL     1      -1.799  -6.755 -11.020  0.00  0.00    +0.005 A 
ATOM     15  C   UNL     1      -2.737  -6.356 -11.954  0.00  0.00    -0.050 A 
ATOM     16  C   UNL     1      -3.784  -5.534 -11.580  0.00  0.00    +0.005 A 
ATOM     17  C   UNL     1      -3.900  -5.114 -10.269  0.00  0.00    +0.023 A 
ATOM     18  C   UNL     1      -2.619  -6.819 -13.384  0.00  0.00    +0.044 C 
ENDBRANCH   7  12
BRANCH   1  19
ATOM     19  C   UNL     1      -1.050  -3.832  -3.831  0.00  0.00    +0.153 C 
BRANCH  19  20
ATOM     20  S   UNL     1      -0.888  -5.347  -2.846  0.00  0.00    -0.080 S 
BRANCH  20  27
ATOM     21  C   UNL     1      -1.340  -3.045   0.302  0.00  0.00    +0.049 A 
ATOM     22  C   UNL     1      -1.270  -3.904   1.361  0.00  0.00    +0.093 A 
ATOM     23  C   UNL     1      -1.073  -5.274   1.114  0.00  0.00    +0.252 A 
ATOM     24  O   UNL     1      -1.006  -6.069   2.037  0.00  0.00    -0.268 OA
ATOM     25  N   UNL     1      -0.960  -5.693  -0.164  0.00  0.00    -0.302 N 
ATOM     26  H   UNL     1      -0.824  -6.634  -0.358  0.00  0.00    +0.171 HD
ATOM     27  C   UNL     1      -1.037  -4.791  -1.181  0.00  0.00    +0.170 A 
ATOM     28  N   UNL     1      -1.227  -3.507  -0.941  0.00  0.00    -0.228 NA
BRANCH  21  29
ATOM     29  C   UNL     1      -1.550  -1.572   0.540  0.00  0.00    +0.055 C 
BRANCH  29  31
ATOM     30  C   UNL     1      -0.411   0.637   0.795  0.00  0.00    +0.004 C 
ATOM     31  C   UNL     1      -0.197  -0.859   0.553  0.00  0.00    +0.003 C 
ENDBRANCH  29  31
ENDBRANCH  21  29
ENDBRANCH  20  27
ENDBRANCH  19  20
ENDBRANCH   1  19
TORSDOF 6
