REMARK  Name = ZINC03557764
REMARK  6 active torsions:
REMARK  status: ('A' for Active; 'I' for Inactive)
REMARK    1  A    between atoms: C_1  and  N_2
REMARK    2  A    between atoms: C_6  and  C_8
REMARK    3  A    between atoms: C_8  and  C_10
REMARK    4  A    between atoms: C_8  and  O_16
REMARK    5  A    between atoms: O_16  and  C_17
REMARK    6  A    between atoms: C_17  and  C_19
REMARK                            x       y       z     vdW  Elec       q    Type
REMARK                         _______ _______ _______ _____ _____    ______ ____
ROOT
ATOM      1  C   UNL     1      -2.619   4.109   0.037  0.00  0.00    +0.292 C 
ENDROOT
BRANCH   1   7
ATOM      2  C   UNL     1      -4.554   9.361   2.535  0.00  0.00    +0.129 C 
ATOM      3  N   UNL     1      -4.651   8.076   1.838  0.00  0.00    -0.302 N 
ATOM      4  C   UNL     1      -3.541   7.344   1.617  0.00  0.00    +0.306 C 
ATOM      5  O   UNL     1      -2.460   7.750   1.995  0.00  0.00    -0.252 OA
ATOM      6  N   UNL     1      -3.630   6.162   0.975  0.00  0.00    -0.237 N 
ATOM      7  C   UNL     1      -2.520   5.430   0.754  0.00  0.00    +0.266 C 
ATOM      8  O   UNL     1      -1.442   5.835   1.132  0.00  0.00    -0.271 OA
ATOM      9  H   UNL     1      -5.514   7.752   1.535  0.00  0.00    +0.150 HD
ATOM     10  H   UNL     1      -4.493   5.838   0.673  0.00  0.00    +0.159 HD
ENDBRANCH   1   7
BRANCH   1  11
ATOM     11  C   UNL     1      -3.076   4.339  -1.381  0.00  0.00    +0.002 A 
ATOM     12  C   UNL     1      -2.155   4.657  -2.361  0.00  0.00    +0.008 A 
ATOM     13  C   UNL     1      -2.573   4.864  -3.662  0.00  0.00    +0.000 A 
ATOM     14  C   UNL     1      -3.914   4.763  -3.981  0.00  0.00    +0.000 A 
ATOM     15  C   UNL     1      -4.836   4.450  -3.000  0.00  0.00    +0.000 A 
ATOM     16  C   UNL     1      -4.417   4.238  -1.700  0.00  0.00    +0.008 A 
ENDBRANCH   1  11
BRANCH   1  17
ATOM     17  O   UNL     1      -1.318   3.464   0.027  0.00  0.00    -0.444 OA
BRANCH  17  18
ATOM     18  C   UNL     1      -1.303   2.117   0.020  0.00  0.00    +0.342 C 
ATOM     19  O   UNL     1      -2.348   1.497   0.021  0.00  0.00    -0.245 OA
BRANCH  18  20
ATOM     20  C   UNL     1      -0.017   1.394   0.010  0.00  0.00    +0.080 A 
ATOM     21  C   UNL     1       1.187   2.104   0.002  0.00  0.00    +0.057 A 
ATOM     22  C   UNL     1       2.386   1.422  -0.013  0.00  0.00    +0.159 A 
ATOM     23  C   UNL     1       2.398   0.033  -0.021  0.00  0.00    +0.160 A 
ATOM     24  C   UNL     1       1.208  -0.675  -0.013  0.00  0.00    +0.062 A 
ATOM     25  C   UNL     1       0.002  -0.004   0.002  0.00  0.00    +0.058 A 
ATOM     26 CL   UNL     1      -1.488  -0.894   0.011  0.00  0.00    -0.083 Cl
ATOM     27  F   UNL     1       3.576  -0.630  -0.036  0.00  0.00    -0.202 F 
ATOM     28  F   UNL     1       3.551   2.107  -0.021  0.00  0.00    -0.202 F 
ENDBRANCH  18  20
ENDBRANCH  17  18
ENDBRANCH   1  17
TORSDOF 5
