REMARK  Name = ZINC28365809
REMARK  3 active torsions:
REMARK  status: ('A' for Active; 'I' for Inactive)
REMARK    1  A    between atoms: C_4  and  C_8
REMARK    2  A    between atoms: C_8  and  C_9
REMARK    3  A    between atoms: N_12  and  C_15
REMARK                            x       y       z     vdW  Elec       q    Type
REMARK                         _______ _______ _______ _____ _____    ______ ____
ROOT
ATOM      1  C   UNL     1       5.791  -2.978   3.280  0.00  0.00    -0.068 C 
ATOM      2  C   UNL     1       4.815  -2.040   3.994  0.00  0.00    -0.011 C 
ATOM      3  C   UNL     1       5.191  -0.588   3.693  0.00  0.00    +0.051 C 
ATOM      4  C   UNL     1       5.130  -0.347   2.185  0.00  0.00    +0.139 C 
ATOM      5  C   UNL     1       6.097  -1.287   1.466  0.00  0.00    +0.051 C 
ATOM      6  C   UNL     1       5.719  -2.739   1.771  0.00  0.00    -0.011 C 
ATOM      7  C   UNL     1       3.726  -0.569   1.685  0.00  0.00    +0.014 A 
ATOM      8  C   UNL     1       2.885  -1.655   1.681  0.00  0.00    +0.012 A 
ATOM      9  C   UNL     1       1.615  -1.552   1.135  0.00  0.00    +0.050 A 
ATOM     10  C   UNL     1       1.184  -0.355   0.589  0.00  0.00    +0.167 A 
ATOM     11  C   UNL     1       2.027   0.754   0.585  0.00  0.00    +0.181 A 
ATOM     12  C   UNL     1       3.310   0.650   1.136  0.00  0.00    +0.111 A 
ATOM     13  C   UNL     1       4.412   1.615   1.281  0.00  0.00    +0.344 C 
ATOM     14  O   UNL     1       4.377   2.770   0.906  0.00  0.00    -0.245 OA
ATOM     15  O   UNL     1       5.462   1.034   1.887  0.00  0.00    -0.450 OA
ATOM     16  O   UNL     1       1.376   1.796  -0.001  0.00  0.00    -0.452 OA
ATOM     17  C   UNL     1      -0.018   1.436   0.010  0.00  0.00    +0.466 C 
ATOM     18  O   UNL     1       0.002  -0.004   0.002  0.00  0.00    -0.453 OA
ENDROOT
BRANCH   1  22
ATOM     19  C   UNL     1       5.803  -7.042   4.609  0.00  0.00    -0.010 C 
ATOM     20  C   UNL     1       5.863  -6.739   3.109  0.00  0.00    -0.015 C 
ATOM     21  C   UNL     1       6.350  -5.303   2.903  0.00  0.00    -0.078 C 
ATOM     22  N   UNL     1       5.433  -4.372   3.573  0.00  0.00    +0.382 N 
ATOM     23  C   UNL     1       5.395  -4.613   5.021  0.00  0.00    -0.078 C 
ATOM     24  C   UNL     1       4.879  -6.029   5.290  0.00  0.00    -0.015 C 
ATOM     25  H   UNL     1       4.423  -4.554   3.176  0.00  0.00    -0.081 HD
BRANCH  19  26
ATOM     26  C   UNL     1       5.259  -8.456   4.824  0.00  0.00    +0.039 C 
BRANCH  26  30
ATOM     27  C   UNL     1       5.422  -9.429   8.982  0.00  0.00    +0.039 A 
ATOM     28  C   UNL     1       6.561  -9.524   8.204  0.00  0.00    +0.018 A 
ATOM     29  C   UNL     1       6.507  -9.214   6.857  0.00  0.00    +0.021 A 
ATOM     30  C   UNL     1       5.315  -8.798   6.290  0.00  0.00    -0.030 A 
ATOM     31  C   UNL     1       4.176  -8.703   7.066  0.00  0.00    +0.043 A 
ATOM     32  C   UNL     1       4.228  -9.018   8.413  0.00  0.00    +0.124 A 
ATOM     33  F   UNL     1       3.115  -8.925   9.173  0.00  0.00    -0.205 F 
ATOM     34 BR   UNL     1       8.063  -9.352   5.793  0.00  0.00    -0.050 Br
ENDBRANCH  26  30
ENDBRANCH  19  26
ENDBRANCH   1  22
TORSDOF 3
