REMARK  Name = ZINC43095012
REMARK  7 active torsions:
REMARK  status: ('A' for Active; 'I' for Inactive)
REMARK    1  A    between atoms: C_1  and  C_2
REMARK    2  A    between atoms: C_2  and  C_4
REMARK    3  A    between atoms: C_2  and  N_23
REMARK    4  A    between atoms: C_4  and  C_6
REMARK    5  A    between atoms: C_4  and  O_13
REMARK    6  A    between atoms: O_13  and  C_14
REMARK    7  A    between atoms: C_17  and  C_20
REMARK                            x       y       z     vdW  Elec       q    Type
REMARK                         _______ _______ _______ _____ _____    ______ ____
ROOT
ATOM      1  C   UNL     1       0.751  -0.518   1.250  0.00  0.00    +0.190 C 
ENDROOT
BRANCH   1   2
ATOM      2  C   UNL     1       0.863  -2.020   1.302  0.00  0.00    +0.005 A 
ATOM      3  C   UNL     1      -0.049  -2.756   2.035  0.00  0.00    +0.008 A 
ATOM      4  C   UNL     1       0.053  -4.134   2.083  0.00  0.00    +0.000 A 
ATOM      5  C   UNL     1       1.068  -4.776   1.399  0.00  0.00    +0.001 A 
ATOM      6  C   UNL     1       1.981  -4.041   0.666  0.00  0.00    +0.015 A 
ATOM      7  C   UNL     1       1.875  -2.663   0.613  0.00  0.00    +0.024 A 
ATOM      8 BR   UNL     1       3.119  -1.657  -0.395  0.00  0.00    -0.050 Br
ENDBRANCH   1   2
BRANCH   1  10
ATOM      9  C   UNL     1      -0.151   1.415  -0.050  0.00  0.00    -0.010 C 
ATOM     10  C   UNL     1      -0.038  -0.110   0.004  0.00  0.00    -0.032 C 
BRANCH  10  11
ATOM     11  N   UNL     1       0.659  -0.591  -1.196  0.00  0.00    +0.382 N 
ATOM     12  H   UNL     1       1.582  -0.186  -1.235  0.00  0.00    -0.089 HD
ATOM     13  H   UNL     1       0.734  -1.597  -1.161  0.00  0.00    -0.089 HD
ATOM     14  H   UNL     1       0.139  -0.321  -2.018  0.00  0.00    -0.089 HD
ENDBRANCH  10  11
ENDBRANCH   1  10
BRANCH   1  15
ATOM     15  O   UNL     1       0.073  -0.050   2.417  0.00  0.00    -0.486 OA
BRANCH  15  16
ATOM     16  C   UNL     1       0.538   1.093   2.983  0.00  0.00    +0.121 A 
ATOM     17  C   UNL     1       0.006   1.536   4.188  0.00  0.00    +0.046 A 
ATOM     18  C   UNL     1       0.475   2.695   4.765  0.00  0.00    +0.016 A 
ATOM     19  C   UNL     1       1.488   3.425   4.138  0.00  0.00    +0.037 A 
ATOM     20  C   UNL     1       2.022   2.975   2.927  0.00  0.00    +0.016 A 
ATOM     21  C   UNL     1       1.550   1.813   2.359  0.00  0.00    +0.046 A 
BRANCH  19  22
ATOM     22  C   UNL     1       1.994   4.668   4.753  0.00  0.00    +0.242 C 
ATOM     23  O   UNL     1       1.528   5.058   5.806  0.00  0.00    -0.270 OA
ATOM     24  N   UNL     1       2.971   5.370   4.147  0.00  0.00    -0.325 N 
ATOM     25  H   UNL     1       3.343   5.059   3.306  0.00  0.00    +0.145 HD
ATOM     26  H   UNL     1       3.304   6.187   4.551  0.00  0.00    +0.145 HD
ENDBRANCH  19  22
ENDBRANCH  15  16
ENDBRANCH   1  15
TORSDOF 6
