REMARK  Name = ZINC43316212
REMARK  6 active torsions:
REMARK  status: ('A' for Active; 'I' for Inactive)
REMARK    1  A    between atoms: C_1  and  C_2
REMARK    2  A    between atoms: C_2  and  C_4
REMARK    3  A    between atoms: C_2  and  N_14
REMARK    4  A    between atoms: C_8  and  S_10
REMARK    5  A    between atoms: S_10  and  N_13
REMARK    6  A    between atoms: N_17  and  C_18
REMARK                            x       y       z     vdW  Elec       q    Type
REMARK                         _______ _______ _______ _____ _____    ______ ____
ROOT
ATOM      1  N   UNL     1       0.690  -0.464  -1.206  0.00  0.00    -0.293 N 
ATOM      2  C   UNL     1       0.007  -0.605  -2.360  0.00  0.00    +0.304 C 
ATOM      3  O   UNL     1      -1.178  -0.336  -2.401  0.00  0.00    -0.252 OA
ATOM      4  N   UNL     1       0.637  -1.043  -3.467  0.00  0.00    -0.269 N 
ATOM      5  H   UNL     1       1.636  -0.678  -1.174  0.00  0.00    +0.151 HD
ATOM      6  H   UNL     1       1.595  -1.194  -3.453  0.00  0.00    +0.156 HD
ENDROOT
BRANCH   4   7
ATOM      7  C   UNL     1      -0.091  -1.280  -4.639  0.00  0.00    +0.038 A 
ATOM      8  C   UNL     1      -1.173  -0.472  -4.953  0.00  0.00    +0.023 A 
ATOM      9  C   UNL     1      -1.890  -0.709  -6.109  0.00  0.00    +0.002 A 
ATOM     10  C   UNL     1      -1.527  -1.747  -6.942  0.00  0.00    +0.004 A 
ATOM     11  C   UNL     1      -0.444  -2.560  -6.632  0.00  0.00    -0.042 A 
ATOM     12  C   UNL     1       0.281  -2.323  -5.487  0.00  0.00    -0.023 A 
ATOM     13  C   UNL     1       1.479  -3.149  -5.100  0.00  0.00    +0.037 C 
ATOM     14  C   UNL     1       1.491  -4.471  -5.865  0.00  0.00    +0.005 C 
ATOM     15  C   UNL     1       1.322  -4.166  -7.359  0.00  0.00    +0.005 C 
ATOM     16  C   UNL     1      -0.112  -3.678  -7.585  0.00  0.00    +0.035 C 
ENDBRANCH   4   7
BRANCH   1  18
ATOM     17  C   UNL     1      -0.021   1.542  -0.002  0.00  0.00    +0.033 C 
ATOM     18  C   UNL     1       0.005   0.012  -0.002  0.00  0.00    +0.102 C 
BRANCH  18  19
ATOM     19  C   UNL     1       0.738  -0.477   1.220  0.00  0.00    -0.026 A 
ATOM     20  C   UNL     1       2.121  -0.482   1.241  0.00  0.00    +0.005 A 
ATOM     21  C   UNL     1       2.793  -0.931   2.361  0.00  0.00    +0.002 A 
ATOM     22  C   UNL     1       2.084  -1.375   3.462  0.00  0.00    +0.028 A 
ATOM     23  C   UNL     1       0.702  -1.369   3.441  0.00  0.00    +0.105 A 
ATOM     24  C   UNL     1       0.029  -0.916   2.322  0.00  0.00    +0.034 A 
BRANCH  23  25
ATOM     25  S   UNL     1      -0.203  -1.935   4.843  0.00  0.00    +0.056 S 
ATOM     26  O   UNL     1      -1.479  -2.340   4.367  0.00  0.00    -0.153 OA
ATOM     27  O   UNL     1       0.659  -2.814   5.555  0.00  0.00    -0.153 OA
BRANCH  25  28
ATOM     28  N   UNL     1      -0.457  -0.625   5.824  0.00  0.00    -0.204 NA
ATOM     29  H   UNL     1      -1.248  -0.585   6.384  0.00  0.00    +0.144 HD
ATOM     30  H   UNL     1       0.186   0.101   5.839  0.00  0.00    +0.144 HD
ENDBRANCH  25  28
ENDBRANCH  23  25
ENDBRANCH  18  19
ENDBRANCH   1  18
TORSDOF 5
