REMARK  Name = ZINC09724085
REMARK  8 active torsions:
REMARK  status: ('A' for Active; 'I' for Inactive)
REMARK    1  A    between atoms: C_1  and  C_2
REMARK    2  A    between atoms: C_2  and  O_3
REMARK    3  A    between atoms: O_3  and  C_4
REMARK    4  A    between atoms: C_4  and  C_5
REMARK    5  A    between atoms: C_5  and  N_6
REMARK    6  A    between atoms: N_15  and  C_16
REMARK    7  A    between atoms: C_16  and  C_18
REMARK    8  A    between atoms: C_18  and  N_19
REMARK                            x       y       z     vdW  Elec       q    Type
REMARK                         _______ _______ _______ _____ _____    ______ ____
ROOT
ATOM      1  N   UNL     1      -0.778   1.621   1.137  0.00  0.00    -0.319 N 
ATOM      2  C   UNL     1      -0.126   1.992   2.299  0.00  0.00    +0.058 A 
ATOM      3  C   UNL     1       1.247   1.931   2.584  0.00  0.00    +0.028 A 
ATOM      4  C   UNL     1       1.731   2.345   3.802  0.00  0.00    +0.017 A 
ATOM      5  C   UNL     1       0.883   2.834   4.783  0.00  0.00    +0.019 A 
ATOM      6  C   UNL     1      -0.476   2.904   4.528  0.00  0.00    +0.032 A 
ATOM      7  C   UNL     1      -0.960   2.490   3.310  0.00  0.00    +0.040 A 
ATOM      8  S   UNL     1      -2.577   2.409   2.581  0.00  0.00    -0.052 S 
ATOM      9  C   UNL     1      -2.127   1.757   1.038  0.00  0.00    +0.167 A 
ATOM     10  N   UNL     1      -2.913   1.460   0.006  0.00  0.00    -0.155 NA
ATOM     11 BR   UNL     1       1.573   3.398   6.451  0.00  0.00    -0.050 Br
ENDROOT
BRANCH  10  12
ATOM     12  C   UNL     1      -4.224   1.662   0.090  0.00  0.00    +0.256 C 
ATOM     13  O   UNL     1      -4.705   2.119   1.109  0.00  0.00    -0.272 OA
BRANCH  12  14
ATOM     14  C   UNL     1      -5.114   1.326  -1.078  0.00  0.00    +0.214 C 
BRANCH  14  15
ATOM     15  N   UNL     1      -6.505   1.638  -0.738  0.00  0.00    -0.225 N 
ATOM     16  C   UNL     1      -7.362   0.771  -0.169  0.00  0.00    +0.254 C 
ATOM     17  O   UNL     1      -7.110  -0.377   0.139  0.00  0.00    -0.270 OA
ATOM     18  C   UNL     1      -8.662   1.449   0.020  0.00  0.00    +0.049 A 
ATOM     19  C   UNL     1      -9.886   1.066   0.545  0.00  0.00    +0.014 A 
ATOM     20  C   UNL     1     -10.935   1.971   0.571  0.00  0.00    +0.001 A 
ATOM     21  C   UNL     1     -10.770   3.251   0.076  0.00  0.00    +0.001 A 
ATOM     22  C   UNL     1      -9.551   3.648  -0.451  0.00  0.00    +0.014 A 
ATOM     23  C   UNL     1      -8.492   2.754  -0.484  0.00  0.00    +0.049 A 
ATOM     24  C   UNL     1      -7.094   2.827  -0.958  0.00  0.00    +0.254 C 
ATOM     25  O   UNL     1      -6.566   3.797  -1.463  0.00  0.00    -0.270 OA
ENDBRANCH  14  15
ENDBRANCH  12  14
ENDBRANCH  10  12
BRANCH   1  26
ATOM     26  C   UNL     1      -0.013   1.086   0.008  0.00  0.00    +0.152 C 
BRANCH  26  27
ATOM     27  C   UNL     1      -0.621   1.586  -1.304  0.00  0.00    +0.181 C 
BRANCH  27  28
ATOM     28  O   UNL     1       0.202   1.177  -2.397  0.00  0.00    -0.378 OA
BRANCH  28  30
ATOM     29  C   UNL     1       0.674   1.104  -4.766  0.00  0.00    +0.034 C 
ATOM     30  C   UNL     1      -0.280   1.595  -3.676  0.00  0.00    +0.156 C 
ENDBRANCH  28  30
ENDBRANCH  27  28
ENDBRANCH  26  27
ENDBRANCH   1  26
TORSDOF 7
