REMARK  Name = ZINC05685489
REMARK  5 active torsions:
REMARK  status: ('A' for Active; 'I' for Inactive)
REMARK    1  A    between atoms: C_7  and  C_11
REMARK    2  A    between atoms: N_12  and  N_13
REMARK    3  A    between atoms: C_14  and  C_16
REMARK    4  A    between atoms: N_18  and  N_19
REMARK    5  A    between atoms: C_20  and  C_21
REMARK                            x       y       z     vdW  Elec       q    Type
REMARK                         _______ _______ _______ _____ _____    ______ ____
ROOT
ATOM      1  N   UNL     1       1.856  10.415  -1.099  0.00  0.00    -0.199 N 
ATOM      2  C   UNL     1       2.350   9.197  -1.395  0.00  0.00    +0.320 C 
ATOM      3  O   UNL     1       3.489   8.911  -1.084  0.00  0.00    -0.263 OA
ATOM      4  H   UNL     1       0.925  10.618  -1.282  0.00  0.00    +0.178 HD
ENDROOT
BRANCH   2   5
ATOM      5  C   UNL     1       1.501   8.201  -2.103  0.00  0.00    +0.320 C 
ATOM      6  O   UNL     1       0.332   8.450  -2.328  0.00  0.00    -0.263 OA
ATOM      7  N   UNL     1       2.027   7.024  -2.495  0.00  0.00    -0.199 N 
ATOM      8  H   UNL     1       2.959   6.825  -2.316  0.00  0.00    +0.178 HD
BRANCH   7   9
ATOM      9  N   UNL     1       1.227   6.087  -3.162  0.00  0.00    -0.187 NA
ATOM     10  C   UNL     1       1.735   4.950  -3.541  0.00  0.00    +0.140 C 
BRANCH  10  11
ATOM     11  C   UNL     1       0.895   3.967  -4.240  0.00  0.00    +0.020 A 
ATOM     12  C   UNL     1       1.282   2.742  -4.694  0.00  0.00    +0.093 A 
ATOM     13  N   UNL     1       0.227   2.119  -5.289  0.00  0.00    -0.360 N 
ATOM     14  H   UNL     1       0.259   1.236  -5.689  0.00  0.00    +0.165 HD
ATOM     15  C   UNL     1      -0.890   2.926  -5.248  0.00  0.00    +0.047 A 
ATOM     16  C   UNL     1      -0.530   4.112  -4.587  0.00  0.00    +0.008 A 
ATOM     17  C   UNL     1      -1.473   5.119  -4.397  0.00  0.00    +0.010 A 
ATOM     18  C   UNL     1      -2.761   4.943  -4.854  0.00  0.00    +0.001 A 
ATOM     19  C   UNL     1      -3.120   3.769  -5.501  0.00  0.00    +0.002 A 
ATOM     20  C   UNL     1      -2.197   2.765  -5.697  0.00  0.00    +0.026 A 
ENDBRANCH  10  11
ENDBRANCH   7   9
ENDBRANCH   2   5
BRANCH   1  22
ATOM     21  C   UNL     1       2.189  12.531  -0.155  0.00  0.00    +0.140 C 
ATOM     22  N   UNL     1       2.687  11.388  -0.528  0.00  0.00    -0.187 NA
BRANCH  21  29
ATOM     23  C   UNL     1      -0.522  16.342  -0.387  0.00  0.00    +0.001 A 
ATOM     24  C   UNL     1      -1.874  16.033  -0.336  0.00  0.00    +0.002 A 
ATOM     25  C   UNL     1      -2.291  14.724  -0.237  0.00  0.00    +0.026 A 
ATOM     26  C   UNL     1      -1.352  13.699  -0.175  0.00  0.00    +0.047 A 
ATOM     27  C   UNL     1       0.016  14.014  -0.223  0.00  0.00    +0.008 A 
ATOM     28  C   UNL     1       0.423  15.342  -0.332  0.00  0.00    +0.010 A 
ATOM     29  C   UNL     1       0.732  12.728  -0.141  0.00  0.00    +0.020 A 
ATOM     30  C   UNL     1      -0.220  11.759  -0.043  0.00  0.00    +0.093 A 
ATOM     31  N   UNL     1      -1.457  12.329  -0.062  0.00  0.00    -0.360 N 
ATOM     32  H   UNL     1      -2.293  11.840  -0.004  0.00  0.00    +0.165 HD
ENDBRANCH  21  29
ENDBRANCH   1  22
TORSDOF 5
