REMARK  Name = ZINC06306192
REMARK  6 active torsions:
REMARK  status: ('A' for Active; 'I' for Inactive)
REMARK    1  A    between atoms: C_4  and  C_7
REMARK    2  A    between atoms: C_7  and  C_8
REMARK    3  A    between atoms: N_10  and  N_11
REMARK    4  A    between atoms: N_11  and  C_12
REMARK    5  A    between atoms: N_15  and  S_16
REMARK    6  A    between atoms: S_16  and  C_19
REMARK                            x       y       z     vdW  Elec       q    Type
REMARK                         _______ _______ _______ _____ _____    ______ ____
ROOT
ATOM      1  C   UNL     1       6.931  -2.492   3.137  0.00  0.00    +0.094 C 
ATOM      2  C   UNL     1       7.683  -2.924   2.101  0.00  0.00    +0.058 C 
ATOM      3  C   UNL     1       8.957  -3.615   2.333  0.00  0.00    +0.095 C 
ATOM      4  N   UNL     1       9.672  -4.027   1.321  0.00  0.00    -0.128 NA
ATOM      5  C   UNL     1       9.428  -3.845   3.719  0.00  0.00    +0.013 A 
ATOM      6  C   UNL     1      10.630  -4.497   3.963  0.00  0.00    +0.011 A 
ATOM      7  C   UNL     1      11.051  -4.700   5.266  0.00  0.00    +0.001 A 
ATOM      8  C   UNL     1      10.282  -4.259   6.328  0.00  0.00    +0.001 A 
ATOM      9  C   UNL     1       9.083  -3.609   6.103  0.00  0.00    +0.012 A 
ATOM     10  C   UNL     1       8.647  -3.396   4.798  0.00  0.00    +0.033 A 
ATOM     11  C   UNL     1       7.374  -2.699   4.530  0.00  0.00    +0.209 C 
ATOM     12  O   UNL     1       6.690  -2.302   5.453  0.00  0.00    -0.285 OA
ENDROOT
BRANCH   4  13
ATOM     13  S   UNL     1      11.326  -4.007   1.414  0.00  0.00    +0.099 S 
ATOM     14  O   UNL     1      11.667  -3.026   2.383  0.00  0.00    -0.146 OA
ATOM     15  O   UNL     1      11.742  -5.362   1.522  0.00  0.00    -0.146 OA
BRANCH  13  16
ATOM     16  C   UNL     1      11.928  -3.417  -0.134  0.00  0.00    +0.112 A 
ATOM     17  C   UNL     1      12.195  -4.308  -1.156  0.00  0.00    +0.029 A 
ATOM     18  C   UNL     1      12.667  -3.845  -2.370  0.00  0.00    +0.002 A 
ATOM     19  C   UNL     1      12.872  -2.491  -2.562  0.00  0.00    +0.000 A 
ATOM     20  C   UNL     1      12.604  -1.600  -1.539  0.00  0.00    +0.002 A 
ATOM     21  C   UNL     1      12.127  -2.063  -0.326  0.00  0.00    +0.029 A 
ENDBRANCH  13  16
ENDBRANCH   4  13
BRANCH   1  22
ATOM     22  N   UNL     1       5.731  -1.841   2.889  0.00  0.00    -0.261 N 
ATOM     23  H   UNL     1       5.189  -1.525   3.628  0.00  0.00    +0.170 HD
BRANCH  22  26
ATOM     24  C   UNL     1       4.138  -1.007   1.329  0.00  0.00    +0.233 C 
ATOM     25  O   UNL     1       3.460  -0.612   2.254  0.00  0.00    -0.274 OA
ATOM     26  N   UNL     1       5.303  -1.639   1.570  0.00  0.00    -0.236 N 
ATOM     27  H   UNL     1       5.846  -1.955   0.831  0.00  0.00    +0.173 HD
BRANCH  24  28
ATOM     28  C   UNL     1       3.678  -0.790  -0.089  0.00  0.00    +0.132 C 
BRANCH  28  32
ATOM     29  C   UNL     1      -0.068   1.263  -0.075  0.00  0.00    +0.000 A 
ATOM     30  C   UNL     1       1.113   1.980  -0.103  0.00  0.00    +0.000 A 
ATOM     31  C   UNL     1       2.325   1.316  -0.107  0.00  0.00    +0.004 A 
ATOM     32  C   UNL     1       2.356  -0.066  -0.084  0.00  0.00    -0.039 A 
ATOM     33  C   UNL     1       1.175  -0.783  -0.055  0.00  0.00    +0.004 A 
ATOM     34  C   UNL     1      -0.037  -0.119  -0.052  0.00  0.00    +0.000 A 
ENDBRANCH  28  32
ENDBRANCH  24  28
ENDBRANCH  22  26
ENDBRANCH   1  22
TORSDOF 6
