REMARK  Name = ZINC32863035
REMARK  8 active torsions:
REMARK  status: ('A' for Active; 'I' for Inactive)
REMARK    1  A    between atoms: C_1  and  C_2
REMARK    2  A    between atoms: C_2  and  C_4
REMARK    3  A    between atoms: C_2  and  N_12
REMARK    4  A    between atoms: N_15  and  C_16
REMARK    5  A    between atoms: C_16  and  C_17
REMARK    6  A    between atoms: C_17  and  N_18
REMARK    7  A    between atoms: N_18  and  C_19
REMARK    8  A    between atoms: C_22  and  N_25
REMARK                            x       y       z     vdW  Elec       q    Type
REMARK                         _______ _______ _______ _____ _____    ______ ____
ROOT
ATOM      1  N   UNL     1      -3.471   1.632   0.915  0.00  0.00    -0.293 N 
ATOM      2  C   UNL     1      -4.466   0.917   1.476  0.00  0.00    +0.300 C 
ATOM      3  O   UNL     1      -4.570  -0.271   1.238  0.00  0.00    -0.253 OA
ATOM      4  N   UNL     1      -5.347   1.518   2.300  0.00  0.00    -0.298 N 
ATOM      5  H   UNL     1      -3.377   2.707   1.131  0.00  0.00    +0.151 HD
ATOM      6  H   UNL     1      -5.253   2.593   2.515  0.00  0.00    +0.150 HD
ENDROOT
BRANCH   1   8
ATOM      7  C   UNL     1      -3.087   0.940  -1.399  0.00  0.00    +0.033 C 
ATOM      8  C   UNL     1      -2.514   0.978   0.019  0.00  0.00    +0.102 C 
BRANCH   8   9
ATOM      9  C   UNL     1      -1.220   1.750   0.017  0.00  0.00    -0.026 A 
ATOM     10  C   UNL     1      -0.013   1.076   0.008  0.00  0.00    +0.007 A 
ATOM     11  C   UNL     1       1.175   1.783   0.000  0.00  0.00    +0.022 A 
ATOM     12  C   UNL     1       1.157   3.166   0.008  0.00  0.00    +0.059 A 
ATOM     13  C   UNL     1      -0.052   3.841   0.022  0.00  0.00    +0.060 A 
ATOM     14  C   UNL     1      -1.240   3.132   0.030  0.00  0.00    +0.027 A 
ATOM     15 CL   UNL     1      -0.076   5.577   0.031  0.00  0.00    -0.082 Cl
ATOM     16 CL   UNL     1       2.648   4.054  -0.001  0.00  0.00    -0.082 Cl
ENDBRANCH   8   9
ENDBRANCH   1   8
BRANCH   4  17
ATOM     17  C   UNL     1      -6.429   0.741   2.909  0.00  0.00    +0.124 C 
BRANCH  17  18
ATOM     18  C   UNL     1      -7.279   1.655   3.793  0.00  0.00    +0.120 C 
BRANCH  18  19
ATOM     19  N   UNL     1      -8.361   0.877   4.403  0.00  0.00    -0.342 N 
ATOM     20  H   UNL     1      -8.454  -0.197   4.187  0.00  0.00    +0.146 HD
BRANCH  19  21
ATOM     21  C   UNL     1      -9.273   1.501   5.257  0.00  0.00    +0.027 A 
ATOM     22  C   UNL     1      -9.153   2.857   5.534  0.00  0.00    +0.025 A 
ATOM     23  C   UNL     1     -10.060   3.471   6.375  0.00  0.00    +0.034 A 
ATOM     24  C   UNL     1     -11.081   2.735   6.949  0.00  0.00    +0.126 A 
ATOM     25  C   UNL     1     -11.200   1.384   6.679  0.00  0.00    +0.034 A 
ATOM     26  C   UNL     1     -10.300   0.765   5.835  0.00  0.00    +0.025 A 
BRANCH  24  27
ATOM     27  N   UNL     1     -12.049   3.396   7.854  0.00  0.00    +0.056 N 
ATOM     28  O   UNL     1     -12.948   2.749   8.360  0.00  0.00    -0.126 OA
ATOM     29  O   UNL     1     -11.945   4.586   8.092  0.00  0.00    -0.126 OA
ENDBRANCH  24  27
ENDBRANCH  19  21
ENDBRANCH  18  19
ENDBRANCH  17  18
ENDBRANCH   4  17
TORSDOF 7
