REMARK  Name = ZINC10014673
REMARK  7 active torsions:
REMARK  status: ('A' for Active; 'I' for Inactive)
REMARK    1  A    between atoms: C_1  and  C_2
REMARK    2  A    between atoms: C_5  and  S_13
REMARK    3  A    between atoms: N_6  and  C_7
REMARK    4  A    between atoms: S_13  and  C_14
REMARK    5  A    between atoms: C_14  and  C_15
REMARK    6  A    between atoms: N_17  and  C_18
REMARK    7  A    between atoms: C_19  and  C_27
REMARK                            x       y       z     vdW  Elec       q    Type
REMARK                         _______ _______ _______ _____ _____    ______ ____
ROOT
ATOM      1  C   UNL     1      -2.065   1.840   5.838  0.00  0.00    +0.228 C 
ATOM      2  O   UNL     1      -2.759   2.761   5.463  0.00  0.00    -0.275 OA
ATOM      3  N   UNL     1      -1.288   1.179   4.957  0.00  0.00    -0.279 N 
ATOM      4  H   UNL     1      -0.734   0.442   5.258  0.00  0.00    +0.155 HD
ENDROOT
BRANCH   3   5
ATOM      5  C   UNL     1      -1.282   1.552   3.622  0.00  0.00    +0.084 A 
ATOM      6  C   UNL     1      -0.558   0.999   2.575  0.00  0.00    +0.068 A 
ATOM      7  C   UNL     1      -0.732   1.580   1.257  0.00  0.00    -0.023 A 
ATOM      8  C   UNL     1      -1.601   2.615   1.194  0.00  0.00    -0.004 A 
ATOM      9  S   UNL     1      -2.178   2.821   2.855  0.00  0.00    -0.077 S 
ATOM     10  C   UNL     1      -1.979   3.405  -0.021  0.00  0.00    +0.043 C 
ATOM     11  C   UNL     1      -0.956   3.111  -1.127  0.00  0.00    +0.005 C 
ATOM     12  C   UNL     1      -0.758   1.595  -1.227  0.00  0.00    +0.005 C 
ATOM     13  C   UNL     1      -0.013   1.086   0.008  0.00  0.00    +0.037 C 
BRANCH   6  14
ATOM     14  C   UNL     1       0.351  -0.131   2.793  0.00  0.00    +0.244 C 
ATOM     15  O   UNL     1      -0.061  -1.272   2.693  0.00  0.00    -0.270 OA
ATOM     16  N   UNL     1       1.643   0.094   3.104  0.00  0.00    -0.325 N 
ATOM     17  H   UNL     1       1.971   1.004   3.184  0.00  0.00    +0.145 HD
ATOM     18  H   UNL     1       2.244  -0.653   3.248  0.00  0.00    +0.145 HD
ENDBRANCH   6  14
ENDBRANCH   3   5
BRANCH   1  19
ATOM     19  C   UNL     1      -2.071   1.434   7.290  0.00  0.00    +0.173 C 
BRANCH  19  20
ATOM     20  S   UNL     1      -3.205   2.504   8.210  0.00  0.00    -0.077 S 
BRANCH  20  25
ATOM     21  C   UNL     1      -3.606   1.493  13.412  0.00  0.00    +0.088 C 
ATOM     22  C   UNL     1      -3.203   1.433  11.961  0.00  0.00    +0.131 A 
ATOM     23  N   UNL     1      -2.359   0.595  11.428  0.00  0.00    -0.134 NA
ATOM     24  N   UNL     1      -2.247   0.823  10.168  0.00  0.00    -0.122 NA
ATOM     25  C   UNL     1      -3.021   1.827   9.826  0.00  0.00    +0.192 A 
ATOM     26  N   UNL     1      -3.650   2.252  10.961  0.00  0.00    -0.303 N 
BRANCH  26  27
ATOM     27  C   UNL     1      -4.608   3.353  11.082  0.00  0.00    +0.091 C 
ATOM     28  C   UNL     1      -5.821   3.073  10.193  0.00  0.00    +0.025 C 
ATOM     29  C   UNL     1      -6.822   4.224  10.319  0.00  0.00    +0.002 C 
ATOM     30  C   UNL     1      -6.157   5.529   9.878  0.00  0.00    +0.000 C 
ATOM     31  C   UNL     1      -4.943   5.809  10.767  0.00  0.00    +0.002 C 
ATOM     32  C   UNL     1      -3.943   4.658  10.640  0.00  0.00    +0.025 C 
ENDBRANCH  26  27
ENDBRANCH  20  25
ENDBRANCH  19  20
ENDBRANCH   1  19
TORSDOF 6
