REMARK  Name = ZINC65100826
REMARK  10 active torsions:
REMARK  status: ('A' for Active; 'I' for Inactive)
REMARK    1  A    between atoms: C_1  and  C_2
REMARK    2  A    between atoms: C_2  and  S_3
REMARK    3  A    between atoms: S_3  and  C_4
REMARK    4  A    between atoms: N_11  and  C_22
REMARK    5  A    between atoms: N_14  and  C_15
REMARK    6  A    between atoms: C_15  and  C_16
REMARK    7  A    between atoms: N_18  and  C_19
REMARK    8  A    between atoms: C_19  and  C_20
REMARK    9  A    between atoms: C_19  and  C_21
REMARK   10  A    between atoms: C_25  and  C_28
REMARK                            x       y       z     vdW  Elec       q    Type
REMARK                         _______ _______ _______ _____ _____    ______ ____
ROOT
ATOM      1  C   UNL     1      -1.731  -2.453  -0.730  0.00  0.00    +0.138 A 
ATOM      2  N   UNL     1      -2.469  -3.311  -0.051  0.00  0.00    -0.215 NA
ATOM      3  C   UNL     1      -2.162  -4.598   0.026  0.00  0.00    +0.159 A 
ATOM      4  C   UNL     1      -1.000  -4.953  -0.670  0.00  0.00    +0.122 A 
ATOM      5  S   UNL     1      -0.488  -3.401  -1.358  0.00  0.00    -0.054 S 
ATOM      6  C   UNL     1      -0.533  -6.262  -0.695  0.00  0.00    +0.277 A 
ATOM      7  O   UNL     1       0.481  -6.545  -1.308  0.00  0.00    -0.266 OA
ATOM      8  N   UNL     1      -1.223  -7.216  -0.028  0.00  0.00    -0.228 N 
ATOM      9  C   UNL     1      -2.340  -6.891   0.645  0.00  0.00    +0.338 A 
ATOM     10  O   UNL     1      -2.941  -7.768   1.237  0.00  0.00    -0.246 OA
ATOM     11  N   UNL     1      -2.820  -5.639   0.690  0.00  0.00    -0.268 N 
ENDROOT
BRANCH   8  12
ATOM     12  C   UNL     1      -0.772  -8.542  -0.038  0.00  0.00    +0.054 A 
ATOM     13  C   UNL     1      -1.201  -9.415  -1.030  0.00  0.00    +0.026 A 
ATOM     14  C   UNL     1      -0.755 -10.722  -1.038  0.00  0.00    +0.005 A 
ATOM     15  C   UNL     1       0.119 -11.162  -0.060  0.00  0.00    -0.050 A 
ATOM     16  C   UNL     1       0.548 -10.295   0.928  0.00  0.00    +0.005 A 
ATOM     17  C   UNL     1       0.109  -8.986   0.939  0.00  0.00    +0.026 A 
ATOM     18  C   UNL     1       0.604 -12.588  -0.072  0.00  0.00    +0.044 C 
ENDBRANCH   8  12
BRANCH   1  19
ATOM     19  S   UNL     1      -1.989  -0.723  -0.937  0.00  0.00    -0.099 S 
BRANCH  19  21
ATOM     20  C   UNL     1      -0.709   1.310  -2.245  0.00  0.00    +0.016 C 
ATOM     21  C   UNL     1      -0.605  -0.194  -1.984  0.00  0.00    +0.073 C 
ENDBRANCH  19  21
ENDBRANCH   1  19
BRANCH  11  22
ATOM     22  C   UNL     1      -4.044  -5.358   1.444  0.00  0.00    +0.224 C 
BRANCH  22  23
ATOM     23  C   UNL     1      -5.239  -5.515   0.539  0.00  0.00    +0.233 C 
ATOM     24  O   UNL     1      -5.083  -5.831  -0.621  0.00  0.00    -0.274 OA
ATOM     25  N   UNL     1      -6.480  -5.305   1.020  0.00  0.00    -0.312 N 
ATOM     26  H   UNL     1      -6.605  -5.053   1.948  0.00  0.00    +0.149 HD
BRANCH  25  27
ATOM     27  C   UNL     1      -7.642  -5.458   0.140  0.00  0.00    +0.067 C 
ATOM     28  C   UNL     1      -8.063  -6.928   0.102  0.00  0.00    +0.027 C 
ATOM     29  C   UNL     1      -8.799  -4.609   0.670  0.00  0.00    +0.027 C 
ENDBRANCH  25  27
ENDBRANCH  22  23
ENDBRANCH  11  22
TORSDOF 6
