REMARK  Name = ZINC00008628
REMARK  6 active torsions:
REMARK  status: ('A' for Active; 'I' for Inactive)
REMARK    1  A    between atoms: C_1  and  C_2
REMARK    2  A    between atoms: C_2  and  C_3
REMARK    3  A    between atoms: C_6  and  C_10
REMARK    4  A    between atoms: C_8  and  N_9
REMARK    5  A    between atoms: N_17  and  C_19
REMARK    6  A    between atoms: C_19  and  C_20
REMARK                            x       y       z     vdW  Elec       q    Type
REMARK                         _______ _______ _______ _____ _____    ______ ____
ROOT
ATOM      1  C   UNL     1      -1.273   2.912  -2.859  0.00  0.00    +0.139 A 
ATOM      2  C   UNL     1      -2.128   1.722  -2.901  0.00  0.00    +0.050 A 
ATOM      3  C   UNL     1      -3.160   1.292  -3.740  0.00  0.00    +0.015 A 
ATOM      4  C   UNL     1      -3.754   0.086  -3.471  0.00  0.00    +0.020 A 
ATOM      5  C   UNL     1      -3.321  -0.665  -2.388  0.00  0.00    +0.113 A 
ATOM      6  N   UNL     1      -2.348  -0.248  -1.607  0.00  0.00    -0.236 NA
ATOM      7  C   UNL     1      -1.733   0.909  -1.822  0.00  0.00    +0.159 A 
ATOM      8  N   UNL     1      -0.721   1.571  -1.179  0.00  0.00    -0.241 N 
ATOM      9  N   UNL     1      -0.465   2.779  -1.835  0.00  0.00    -0.165 NA
ENDROOT
BRANCH   1  13
ATOM     10  C   UNL     1      -1.399   6.118  -5.513  0.00  0.00    +0.010 A 
ATOM     11  C   UNL     1      -2.260   5.046  -5.655  0.00  0.00    +0.120 A 
ATOM     12  N   UNL     1      -2.194   4.043  -4.794  0.00  0.00    -0.234 NA
ATOM     13  C   UNL     1      -1.314   4.054  -3.801  0.00  0.00    +0.183 A 
ATOM     14  N   UNL     1      -0.474   5.066  -3.628  0.00  0.00    -0.211 NA
ATOM     15  C   UNL     1      -0.483   6.102  -4.458  0.00  0.00    +0.123 A 
BRANCH  15  16
ATOM     16  N   UNL     1       0.399   7.155  -4.278  0.00  0.00    -0.343 N 
ATOM     17  H   UNL     1       0.383   7.911  -4.887  0.00  0.00    +0.144 HD
ATOM     18  H   UNL     1       1.032   7.138  -3.543  0.00  0.00    +0.144 HD
ENDBRANCH  15  16
BRANCH  10  20
ATOM     19  C   UNL     1      -0.410   7.065  -7.580  0.00  0.00    +0.009 C 
ATOM     20  C   UNL     1      -1.447   7.277  -6.476  0.00  0.00    +0.037 C 
ENDBRANCH  10  20
ENDBRANCH   1  13
BRANCH   8  21
ATOM     21  C   UNL     1      -0.013   1.086   0.008  0.00  0.00    +0.183 C 
BRANCH  21  22
ATOM     22  C   UNL     1      -0.718   1.572   1.248  0.00  0.00    +0.009 A 
ATOM     23  C   UNL     1      -1.568   0.727   1.936  0.00  0.00    +0.008 A 
ATOM     24  C   UNL     1      -2.215   1.172   3.074  0.00  0.00    +0.000 A 
ATOM     25  C   UNL     1      -2.012   2.463   3.525  0.00  0.00    +0.003 A 
ATOM     26  C   UNL     1      -1.162   3.310   2.839  0.00  0.00    +0.039 A 
ATOM     27  C   UNL     1      -0.511   2.863   1.701  0.00  0.00    +0.128 A 
ATOM     28  F   UNL     1       0.324   3.689   1.033  0.00  0.00    -0.205 F 
ENDBRANCH  21  22
ENDBRANCH   8  21
TORSDOF 5
