REMARK  Name = ZINC11997637
REMARK  12 active torsions:
REMARK  status: ('A' for Active; 'I' for Inactive)
REMARK    1  A    between atoms: C_1  and  C_2
REMARK    2  A    between atoms: C_3  and  C_9
REMARK    3  A    between atoms: C_4  and  C_8
REMARK    4  A    between atoms: N_5  and  C_7
REMARK    5  A    between atoms: C_9  and  C_11
REMARK    6  A    between atoms: C_9  and  N_73
REMARK    7  A    between atoms: C_12  and  N_73
REMARK    8  A    between atoms: C_13  and  C_14
REMARK    9  A    between atoms: C_13  and  N_73
REMARK   10  A    between atoms: C_17  and  C_22
REMARK   11  A    between atoms: N_24  and  C_25
REMARK   12  A    between atoms: C_25  and  C_26
REMARK                            x       y       z     vdW  Elec       q    Type
REMARK                         _______ _______ _______ _____ _____    ______ ____
ROOT
ATOM      1  C   UNL     1       1.152   3.157   0.015  0.00  0.00    +0.003 A 
ATOM      2  C   UNL     1       1.179   1.800   0.022  0.00  0.00    +0.020 A 
ATOM      3  C   UNL     1      -0.013   1.075   0.028  0.00  0.00    +0.020 A 
ATOM      4  C   UNL     1      -1.222   1.767   0.020  0.00  0.00    +0.101 A 
ATOM      5  C   UNL     1      -1.199   3.186   0.018  0.00  0.00    +0.261 A 
ATOM      6  O   UNL     1      -2.244   3.814   0.016  0.00  0.00    -0.267 OA
ATOM      7  N   UNL     1      -0.020   3.836   0.013  0.00  0.00    -0.327 N 
ATOM      8  H   UNL     1      -0.010   4.806   0.008  0.00  0.00    +0.169 HD
ENDROOT
BRANCH   4   9
ATOM      9  C   UNL     1      -2.500   1.039   0.019  0.00  0.00    +0.249 C 
ATOM     10  O   UNL     1      -2.510  -0.173  -0.081  0.00  0.00    -0.270 OA
ATOM     11  N   UNL     1      -3.661   1.715   0.130  0.00  0.00    -0.311 N 
ATOM     12  H   UNL     1      -3.659   2.685   0.136  0.00  0.00    +0.149 HD
BRANCH  11  13
ATOM     13  C   UNL     1      -4.926   0.985   0.242  0.00  0.00    +0.108 C 
BRANCH  13  14
ATOM     14  C   UNL     1      -6.082   1.982   0.355  0.00  0.00    +0.012 C 
ATOM     15  C   UNL     1      -5.951   2.769   1.660  0.00  0.00    -0.006 C 
ATOM     16  C   UNL     1      -7.107   3.765   1.772  0.00  0.00    +0.007 C 
ATOM     17  C   UNL     1      -8.436   3.008   1.764  0.00  0.00    -0.010 C 
ATOM     18  C   UNL     1      -8.480   2.041   2.949  0.00  0.00    +0.007 C 
ATOM     19  C   UNL     1      -7.324   1.044   2.837  0.00  0.00    -0.010 C 
ATOM     20  C   UNL     1      -5.995   1.802   2.845  0.00  0.00    +0.007 C 
ATOM     21  C   UNL     1      -7.454   0.257   1.532  0.00  0.00    +0.007 C 
ATOM     22  C   UNL     1      -7.411   1.224   0.346  0.00  0.00    -0.006 C 
ATOM     23  C   UNL     1      -8.566   2.220   0.459  0.00  0.00    +0.007 C 
ENDBRANCH  13  14
ENDBRANCH  11  13
ENDBRANCH   4   9
BRANCH   1  24
ATOM     24  C   UNL     1       2.450   3.923   0.009  0.00  0.00    -0.024 C 
BRANCH  24  26
ATOM     25  C   UNL     1       2.699   3.755  -2.394  0.00  0.00    -0.095 C 
ATOM     26  N   UNL     1       2.547   4.684  -1.255  0.00  0.00    +0.386 N 
ATOM     27  H   UNL     1       1.688   5.231  -1.382  0.00  0.00    -0.081 HD
BRANCH  26  28
ATOM     28  C   UNL     1       3.700   5.608  -1.200  0.00  0.00    -0.037 C 
ATOM     29  C   UNL     1       3.483   6.604  -0.058  0.00  0.00    -0.008 C 
BRANCH  28  32
ATOM     30  C   UNL     1       1.279   6.902  -2.782  0.00  0.00    +0.068 C 
ATOM     31  C   UNL     1       2.725   6.926  -3.205  0.00  0.00    +0.062 A 
ATOM     32  C   UNL     1       3.793   6.354  -2.506  0.00  0.00    -0.018 A 
ATOM     33  C   UNL     1       4.925   6.593  -3.207  0.00  0.00    +0.038 A 
ATOM     34  N   UNL     1       4.585   7.285  -4.315  0.00  0.00    -0.271 N 
ATOM     35  N   UNL     1       3.198   7.484  -4.289  0.00  0.00    -0.176 NA
ATOM     36  C   UNL     1       5.503   7.750  -5.357  0.00  0.00    +0.172 C 
ATOM     37  C   UNL     1       6.317   6.163  -2.821  0.00  0.00    +0.065 C 
ENDBRANCH  28  32
ENDBRANCH  26  28
ENDBRANCH  24  26
ENDBRANCH   1  24
TORSDOF 7
