REMARK  Name = ZINC20487854
REMARK  5 active torsions:
REMARK  status: ('A' for Active; 'I' for Inactive)
REMARK    1  A    between atoms: C_1  and  C_2
REMARK    2  A    between atoms: C_5  and  N_9
REMARK    3  A    between atoms: N_9  and  C_10
REMARK    4  A    between atoms: C_10  and  C_12
REMARK    5  A    between atoms: C_10  and  C_13
REMARK                            x       y       z     vdW  Elec       q    Type
REMARK                         _______ _______ _______ _____ _____    ______ ____
ROOT
ATOM      1  N   UNL     1      -3.611   1.792   0.029  0.00  0.00    -0.331 N 
ATOM      2  H   UNL     1      -3.480   2.805   0.436  0.00  0.00    +0.147 HD
ENDROOT
BRANCH   1   7
ATOM      3  C   UNL     1      -8.255  -0.585  -2.201  0.00  0.00    +0.044 C 
ATOM      4  C   UNL     1      -7.021   0.046  -1.608  0.00  0.00    -0.048 A 
ATOM      5  C   UNL     1      -7.038   0.500  -0.302  0.00  0.00    +0.020 A 
ATOM      6  C   UNL     1      -5.909   1.079   0.244  0.00  0.00    +0.040 A 
ATOM      7  C   UNL     1      -4.755   1.206  -0.520  0.00  0.00    +0.056 A 
ATOM      8  C   UNL     1      -4.744   0.754  -1.834  0.00  0.00    +0.040 A 
ATOM      9  C   UNL     1      -5.875   0.171  -2.372  0.00  0.00    +0.020 A 
ATOM     10 BR   UNL     1      -3.180   0.931  -2.883  0.00  0.00    -0.048 Br
ATOM     11 BR   UNL     1      -5.932   1.698   2.031  0.00  0.00    -0.048 Br
ENDBRANCH   1   7
BRANCH   1  12
ATOM     12  C   UNL     1      -2.482   0.853   0.018  0.00  0.00    +0.154 C 
ATOM     13  C   UNL     1      -2.545  -0.035   1.263  0.00  0.00    +0.038 C 
BRANCH  12  14
ATOM     14  C   UNL     1      -1.187   1.624   0.017  0.00  0.00    +0.240 C 
ATOM     15  O   UNL     1      -1.204   2.836   0.023  0.00  0.00    -0.273 OA
ATOM     16  N   UNL     1      -0.011   0.966   0.007  0.00  0.00    -0.239 N 
ATOM     17  C   UNL     1       1.147   1.655   0.000  0.00  0.00    +0.303 C 
ATOM     18  O   UNL     1       1.130   2.871   0.007  0.00  0.00    -0.253 OA
ATOM     19  N   UNL     1       2.323   0.998  -0.015  0.00  0.00    -0.313 N 
ATOM     20  H   UNL     1       0.004  -0.134   0.006  0.00  0.00    +0.159 HD
ATOM     21  H   UNL     1       3.268   1.560  -0.021  0.00  0.00    +0.146 HD
ATOM     22  H   UNL     1       2.338  -0.102  -0.021  0.00  0.00    +0.146 HD
ENDBRANCH  12  14
ENDBRANCH   1  12
TORSDOF 3
