REMARK  Name = ZINC36608797
REMARK  12 active torsions:
REMARK  status: ('A' for Active; 'I' for Inactive)
REMARK    1  A    between atoms: C_1  and  C_2
REMARK    2  A    between atoms: C_2  and  C_3
REMARK    3  A    between atoms: C_2  and  C_4
REMARK    4  A    between atoms: C_2  and  N_5
REMARK    5  A    between atoms: C_6  and  C_8
REMARK    6  A    between atoms: C_8  and  C_10
REMARK    7  A    between atoms: C_8  and  N_19
REMARK    8  A    between atoms: C_11  and  O_18
REMARK    9  A    between atoms: C_13  and  O_17
REMARK   10  A    between atoms: C_15  and  O_16
REMARK   11  A    between atoms: N_19  and  C_20
REMARK   12  A    between atoms: C_26  and  C_28
REMARK                            x       y       z     vdW  Elec       q    Type
REMARK                         _______ _______ _______ _____ _____    ______ ____
ROOT
ATOM      1  C   UNL     1       3.115  -0.415  -1.628  0.00  0.00    +0.204 C 
ENDROOT
BRANCH   1   2
ATOM      2  C   UNL     1       3.467  -1.728  -0.978  0.00  0.00    +0.065 A 
ATOM      3  C   UNL     1       4.663  -1.862  -0.289  0.00  0.00    +0.129 A 
ATOM      4  C   UNL     1       4.987  -3.071   0.309  0.00  0.00    +0.091 A 
ATOM      5  C   UNL     1       4.115  -4.145   0.218  0.00  0.00    +0.124 A 
ATOM      6  C   UNL     1       2.918  -4.011  -0.470  0.00  0.00    +0.091 A 
ATOM      7  C   UNL     1       2.593  -2.801  -1.064  0.00  0.00    +0.129 A 
BRANCH   7   8
ATOM      8  O   UNL     1       1.418  -2.668  -1.734  0.00  0.00    -0.506 OA
ATOM      9  H   UNL     1       1.473  -2.892  -2.673  0.00  0.00    +0.292 HD
ENDBRANCH   7   8
BRANCH   5  10
ATOM     10  O   UNL     1       4.433  -5.330   0.803  0.00  0.00    -0.507 OA
ATOM     11  H   UNL     1       4.127  -5.412   1.717  0.00  0.00    +0.292 HD
ENDBRANCH   5  10
BRANCH   3  12
ATOM     12  O   UNL     1       5.518  -0.810  -0.201  0.00  0.00    -0.506 OA
ATOM     13  H   UNL     1       5.418  -0.289   0.608  0.00  0.00    +0.292 HD
ENDBRANCH   3  12
ENDBRANCH   1   2
BRANCH   1  15
ATOM     14  N   UNL     1       2.053   0.510   0.406  0.00  0.00    -0.309 N 
ATOM     15  C   UNL     1       2.974   0.648  -0.569  0.00  0.00    +0.239 C 
ATOM     16  O   UNL     1       3.689   1.627  -0.593  0.00  0.00    -0.273 OA
ATOM     17  H   UNL     1       1.482  -0.274   0.426  0.00  0.00    +0.149 HD
BRANCH  14  19
ATOM     18  C   UNL     1       1.558   2.876   0.776  0.00  0.00    +0.031 C 
ATOM     19  C   UNL     1       1.916   1.543   1.436  0.00  0.00    +0.026 C 
ATOM     20  C   UNL     1       3.237   1.687   2.193  0.00  0.00    +0.031 C 
ATOM     21  C   UNL     1       0.808   1.144   2.413  0.00  0.00    +0.031 C 
ENDBRANCH  14  19
ENDBRANCH   1  15
BRANCH   1  22
ATOM     22  N   UNL     1       4.176  -0.033  -2.564  0.00  0.00    -0.251 N 
ATOM     23  C   UNL     1       4.117   1.152  -3.202  0.00  0.00    +0.252 C 
ATOM     24  O   UNL     1       4.905   1.403  -4.093  0.00  0.00    -0.270 OA
BRANCH  23  25
ATOM     25  C   UNL     1       3.094   2.148  -2.819  0.00  0.00    +0.039 A 
ATOM     26  C   UNL     1       1.938   1.743  -2.147  0.00  0.00    +0.013 A 
ATOM     27  C   UNL     1       0.988   2.677  -1.792  0.00  0.00    +0.002 A 
ATOM     28  C   UNL     1       1.176   4.013  -2.099  0.00  0.00    +0.020 A 
ATOM     29  C   UNL     1       2.319   4.422  -2.765  0.00  0.00    +0.042 A 
ATOM     30  C   UNL     1       3.281   3.497  -3.122  0.00  0.00    +0.033 A 
ATOM     31 CL   UNL     1       2.546   6.100  -3.146  0.00  0.00    -0.084 Cl
ENDBRANCH  23  25
BRANCH  22  32
ATOM     32  C   UNL     1       5.249  -0.899  -2.795  0.00  0.00    +0.038 A 
ATOM     33  C   UNL     1       5.022  -2.165  -3.321  0.00  0.00    +0.023 A 
ATOM     34  C   UNL     1       6.084  -3.017  -3.548  0.00  0.00    +0.002 A 
ATOM     35  C   UNL     1       7.373  -2.612  -3.253  0.00  0.00    +0.000 A 
ATOM     36  C   UNL     1       7.603  -1.353  -2.729  0.00  0.00    +0.002 A 
ATOM     37  C   UNL     1       6.545  -0.494  -2.505  0.00  0.00    +0.023 A 
ENDBRANCH  22  32
ENDBRANCH   1  22
TORSDOF 9
