REMARK  Name = ZINC20912355
REMARK  7 active torsions:
REMARK  status: ('A' for Active; 'I' for Inactive)
REMARK    1  A    between atoms: C_10  and  C_11
REMARK    2  A    between atoms: N_12  and  N_13
REMARK    3  A    between atoms: C_17  and  S_20
REMARK    4  A    between atoms: N_18  and  N_19
REMARK    5  A    between atoms: S_20  and  C_21
REMARK    6  A    between atoms: C_21  and  C_22
REMARK    7  A    between atoms: N_24  and  C_25
REMARK                            x       y       z     vdW  Elec       q    Type
REMARK                         _______ _______ _______ _____ _____    ______ ____
ROOT
ATOM      1  N   UNL     1       1.435   0.081  -0.162  0.00  0.00    -0.204 N 
ATOM      2  C   UNL     1       0.173  -0.493  -0.163  0.00  0.00    +0.254 A 
ATOM      3  N   UNL     1      -0.968   0.153  -0.178  0.00  0.00    -0.109 NA
ATOM      4  N   UNL     1      -2.002  -0.792  -0.174  0.00  0.00    -0.119 NA
ATOM      5  C   UNL     1      -1.458  -1.986  -0.148  0.00  0.00    +0.210 A 
ATOM      6  N   UNL     1      -0.101  -1.833  -0.140  0.00  0.00    -0.211 N 
ATOM      7  H   UNL     1       2.330  -0.558  -0.143  0.00  0.00    +0.177 HD
ENDROOT
BRANCH   6   8
ATOM      8  N   UNL     1       0.821  -2.840  -0.116  0.00  0.00    -0.294 N 
ATOM      9  H   UNL     1       0.489  -3.889  -0.099  0.00  0.00    +0.163 HD
ATOM     10  H   UNL     1       1.895  -2.603  -0.112  0.00  0.00    +0.163 HD
ENDBRANCH   6   8
BRANCH   1  12
ATOM     11  C   UNL     1       2.755   2.013  -0.186  0.00  0.00    +0.139 C 
ATOM     12  N   UNL     1       1.571   1.475  -0.187  0.00  0.00    -0.187 NA
BRANCH  11  22
ATOM     13  C   UNL     1      -0.459   6.040   0.073  0.00  0.00    +0.001 A 
ATOM     14  C   UNL     1      -0.634   4.658   0.101  0.00  0.00    +0.001 A 
ATOM     15  C   UNL     1       0.433   3.814   0.010  0.00  0.00    +0.009 A 
ATOM     16  C   UNL     1       1.724   4.343  -0.112  0.00  0.00    -0.009 A 
ATOM     17  C   UNL     1       1.906   5.747  -0.141  0.00  0.00    -0.017 A 
ATOM     18  C   UNL     1       0.782   6.587  -0.045  0.00  0.00    +0.008 A 
ATOM     19  C   UNL     1       3.203   6.273  -0.264  0.00  0.00    +0.008 A 
ATOM     20  C   UNL     1       4.281   5.447  -0.356  0.00  0.00    +0.001 A 
ATOM     21  C   UNL     1       4.151   4.066  -0.326  0.00  0.00    +0.010 A 
ATOM     22  C   UNL     1       2.897   3.476  -0.212  0.00  0.00    +0.002 A 
ENDBRANCH  11  22
ENDBRANCH   1  12
BRANCH   5  23
ATOM     23  S   UNL     1      -2.327  -3.519  -0.128  0.00  0.00    -0.075 S 
BRANCH  23  24
ATOM     24  C   UNL     1      -4.033  -2.914  -0.152  0.00  0.00    +0.173 C 
BRANCH  24  25
ATOM     25  C   UNL     1      -4.982  -4.085  -0.139  0.00  0.00    +0.228 C 
ATOM     26  O   UNL     1      -4.547  -5.217  -0.115  0.00  0.00    -0.275 OA
ATOM     27  N   UNL     1      -6.313  -3.874  -0.153  0.00  0.00    -0.283 N 
ATOM     28  H   UNL     1      -6.708  -2.849  -0.099  0.00  0.00    +0.155 HD
BRANCH  27  29
ATOM     29  C   UNL     1      -7.193  -4.960  -0.237  0.00  0.00    +0.069 A 
ATOM     30  C   UNL     1      -6.876  -6.161   0.382  0.00  0.00    +0.027 A 
ATOM     31  C   UNL     1      -7.746  -7.231   0.298  0.00  0.00    +0.022 A 
ATOM     32  C   UNL     1      -8.933  -7.107  -0.402  0.00  0.00    +0.044 A 
ATOM     33  C   UNL     1      -9.253  -5.912  -1.020  0.00  0.00    +0.060 A 
ATOM     34  C   UNL     1      -8.389  -4.835  -0.935  0.00  0.00    +0.146 A 
ATOM     35  F   UNL     1      -8.704  -3.666  -1.534  0.00  0.00    -0.203 F 
ATOM     36 CL   UNL     1     -10.023  -8.455  -0.504  0.00  0.00    -0.083 Cl
ENDBRANCH  27  29
ENDBRANCH  24  25
ENDBRANCH  23  24
ENDBRANCH   5  23
TORSDOF 7
