REMARK  Name = ZINC42582388
REMARK  3 active torsions:
REMARK  status: ('A' for Active; 'I' for Inactive)
REMARK    1  A    between atoms: C_4  and  N_8
REMARK    2  A    between atoms: C_12  and  C_15
REMARK    3  A    between atoms: C_15  and  N_17
REMARK                            x       y       z     vdW  Elec       q    Type
REMARK                         _______ _______ _______ _____ _____    ______ ____
ROOT
ATOM      1  N   UNL     1       3.621  -0.650  -0.037  0.00  0.00    -0.299 N 
ATOM      2  C   UNL     1       3.639  -2.032  -0.149  0.00  0.00    +0.123 A 
ATOM      3  C   UNL     1       2.436  -2.728  -0.251  0.00  0.00    +0.044 A 
ATOM      4  C   UNL     1       2.457  -4.092  -0.362  0.00  0.00    +0.015 A 
ATOM      5  C   UNL     1       3.700  -4.745  -0.370  0.00  0.00    +0.021 A 
ATOM      6  C   UNL     1       4.866  -3.983  -0.264  0.00  0.00    +0.123 A 
ATOM      7  N   UNL     1       4.801  -2.672  -0.164  0.00  0.00    -0.240 NA
ATOM      8  H   UNL     1       2.785  -0.167  -0.127  0.00  0.00    +0.154 HD
ENDROOT
BRANCH   1  12
ATOM      9  C   UNL     1       7.159   1.428   0.684  0.00  0.00    +0.016 A 
ATOM     10  C   UNL     1       6.142   2.027  -0.036  0.00  0.00    +0.018 A 
ATOM     11  C   UNL     1       4.967   1.341  -0.277  0.00  0.00    +0.039 A 
ATOM     12  C   UNL     1       4.809   0.046   0.205  0.00  0.00    +0.048 A 
ATOM     13  C   UNL     1       5.832  -0.552   0.927  0.00  0.00    +0.039 A 
ATOM     14  C   UNL     1       7.005   0.140   1.165  0.00  0.00    +0.020 A 
ATOM     15 BR   UNL     1       8.400  -0.675   2.148  0.00  0.00    -0.050 Br
ATOM     16 BR   UNL     1       3.576   2.162  -1.260  0.00  0.00    -0.048 Br
ENDBRANCH   1  12
BRANCH   5  17
ATOM     17  C   UNL     1       3.774  -6.212  -0.487  0.00  0.00    +0.078 C 
ATOM     18  S   UNL     1       2.636  -7.052  -1.451  0.00  0.00    -0.035 S 
BRANCH  17  19
ATOM     19  N   UNL     1       4.737  -6.892   0.165  0.00  0.00    -0.352 N 
ATOM     20  H   UNL     1       5.382  -6.416   0.712  0.00  0.00    +0.143 HD
ATOM     21  H   UNL     1       4.786  -7.858   0.088  0.00  0.00    +0.143 HD
ENDBRANCH  17  19
ENDBRANCH   5  17
TORSDOF 3
