REMARK  Name = ZINC39325978
REMARK  10 active torsions:
REMARK  status: ('A' for Active; 'I' for Inactive)
REMARK    1  A    between atoms: C_1  and  C_2
REMARK    2  A    between atoms: C_5  and  C_9
REMARK    3  A    between atoms: C_7  and  C_8
REMARK    4  A    between atoms: C_16  and  N_36
REMARK    5  A    between atoms: C_17  and  C_34
REMARK    6  A    between atoms: C_18  and  C_20
REMARK    7  A    between atoms: C_23  and  O_28
REMARK    8  A    between atoms: C_24  and  O_26
REMARK    9  A    between atoms: O_26  and  C_27
REMARK   10  A    between atoms: O_28  and  C_29
REMARK                            x       y       z     vdW  Elec       q    Type
REMARK                         _______ _______ _______ _____ _____    ______ ____
ROOT
ATOM      1  C   UNL     1      -0.065  -4.735   0.049  0.00  0.00    +0.074 A 
ATOM      2  C   UNL     1      -0.846  -5.337  -0.880  0.00  0.00    +0.054 A 
ATOM      3  C   UNL     1      -0.653  -6.728  -0.777  0.00  0.00    +0.245 A 
ATOM      4  N   UNL     1       0.207  -6.954   0.175  0.00  0.00    -0.135 NA
ATOM      5  N   UNL     1       0.605  -5.722   0.716  0.00  0.00    -0.273 N 
ATOM      6  H   UNL     1       1.241  -5.594   1.437  0.00  0.00    +0.189 HD
ATOM      7  O   UNL     1      -1.304  -7.607  -1.587  0.00  0.00    -0.421 OA
ATOM      8  C   UNL     1      -1.932  -7.107  -2.670  0.00  0.00    +0.201 C 
ATOM      9  C   UNL     1      -2.182  -5.796  -2.871  0.00  0.00    +0.098 C 
ATOM     10  C   UNL     1      -1.785  -4.724  -1.887  0.00  0.00    +0.102 C 
ENDROOT
BRANCH   1  15
ATOM     11  C   UNL     1       0.368   0.926   0.995  0.00  0.00    +0.044 C 
ATOM     12  C   UNL     1       0.255  -0.556   0.748  0.00  0.00    -0.047 A 
ATOM     13  C   UNL     1       0.272  -1.041  -0.548  0.00  0.00    +0.004 A 
ATOM     14  C   UNL     1       0.168  -2.397  -0.782  0.00  0.00    +0.010 A 
ATOM     15  C   UNL     1       0.047  -3.279   0.292  0.00  0.00    +0.000 A 
ATOM     16  C   UNL     1       0.032  -2.784   1.596  0.00  0.00    +0.013 A 
ATOM     17  C   UNL     1       0.141  -1.426   1.817  0.00  0.00    -0.047 A 
ATOM     18  C   UNL     1       0.130  -0.890   3.225  0.00  0.00    +0.044 C 
ENDBRANCH   1  15
BRANCH  10  19
ATOM     19  C   UNL     1      -3.010  -4.198  -1.185  0.00  0.00    -0.031 A 
ATOM     20  C   UNL     1      -3.812  -5.059  -0.458  0.00  0.00    +0.008 A 
ATOM     21  C   UNL     1      -4.937  -4.581   0.188  0.00  0.00    +0.050 A 
ATOM     22  C   UNL     1      -5.263  -3.237   0.107  0.00  0.00    +0.162 A 
ATOM     23  C   UNL     1      -4.457  -2.370  -0.624  0.00  0.00    +0.162 A 
ATOM     24  C   UNL     1      -3.328  -2.855  -1.265  0.00  0.00    +0.054 A 
BRANCH  23  25
ATOM     25  O   UNL     1      -4.773  -1.050  -0.706  0.00  0.00    -0.491 OA
ATOM     26  C   UNL     1      -3.899  -0.220  -1.474  0.00  0.00    +0.277 C 
ENDBRANCH  23  25
BRANCH  22  27
ATOM     27  O   UNL     1      -6.370  -2.765   0.742  0.00  0.00    -0.485 OA
BRANCH  27  28
ATOM     28  C   UNL     1      -7.083  -3.684   1.572  0.00  0.00    +0.174 C 
ATOM     29  C   UNL     1      -8.111  -4.469   0.731  0.00  0.00    +0.044 C 
ATOM     30  C   UNL     1      -9.332  -4.624   1.670  0.00  0.00    +0.004 C 
ATOM     31  C   UNL     1      -9.369  -3.264   2.410  0.00  0.00    +0.004 C 
ATOM     32  C   UNL     1      -7.883  -2.918   2.640  0.00  0.00    +0.044 C 
ENDBRANCH  27  28
ENDBRANCH  22  27
ENDBRANCH  10  19
BRANCH   8  33
ATOM     33  N   UNL     1      -2.345  -7.992  -3.634  0.00  0.00    -0.328 N 
ATOM     34  H   UNL     1      -2.182  -8.941  -3.523  0.00  0.00    +0.145 HD
ATOM     35  H   UNL     1      -2.800  -7.667  -4.427  0.00  0.00    +0.145 HD
ENDBRANCH   8  33
BRANCH   9  36
ATOM     36  C   UNL     1      -2.854  -5.405  -4.073  0.00  0.00    +0.101 C 
ATOM     37  N   UNL     1      -3.388  -5.095  -5.027  0.00  0.00    -0.191 NA
ENDBRANCH   9  36
TORSDOF 7
