REMARK  Name = ZINC20487316
REMARK  7 active torsions:
REMARK  status: ('A' for Active; 'I' for Inactive)
REMARK    1  A    between atoms: C_1  and  C_2
REMARK    2  A    between atoms: C_5  and  N_9
REMARK    3  A    between atoms: N_9  and  C_10
REMARK    4  A    between atoms: C_10  and  C_12
REMARK    5  A    between atoms: C_10  and  C_13
REMARK    6  A    between atoms: C_15  and  O_20
REMARK    7  A    between atoms: C_18  and  O_19
REMARK                            x       y       z     vdW  Elec       q    Type
REMARK                         _______ _______ _______ _____ _____    ______ ____
ROOT
ATOM      1  C   UNL     1       3.676   2.987  -1.204  0.00  0.00    +0.101 C 
ATOM      2  C   UNL     1       4.224   2.181  -2.384  0.00  0.00    +0.033 C 
ENDROOT
BRANCH   1   3
ATOM      3  C   UNL     1       4.600   4.142  -0.913  0.00  0.00    +0.017 A 
ATOM      4  C   UNL     1       5.575   4.018   0.058  0.00  0.00    +0.054 A 
ATOM      5  C   UNL     1       6.429   5.079   0.322  0.00  0.00    +0.117 A 
ATOM      6  C   UNL     1       6.296   6.267  -0.380  0.00  0.00    +0.049 A 
ATOM      7  C   UNL     1       5.318   6.393  -1.347  0.00  0.00    +0.049 A 
ATOM      8  C   UNL     1       4.467   5.330  -1.615  0.00  0.00    +0.122 A 
BRANCH   8   9
ATOM      9  O   UNL     1       3.504   5.454  -2.567  0.00  0.00    -0.506 OA
ATOM     10  H   UNL     1       3.399   6.397  -3.124  0.00  0.00    +0.292 HD
ENDBRANCH   8   9
BRANCH   5  11
ATOM     11  O   UNL     1       7.392   4.955   1.274  0.00  0.00    -0.507 OA
ATOM     12  H   UNL     1       8.069   5.796   1.484  0.00  0.00    +0.292 HD
ENDBRANCH   5  11
ENDBRANCH   1   3
BRANCH   1  13
ATOM     13  N   UNL     1       3.584   2.123  -0.020  0.00  0.00    -0.335 N 
ATOM     14  H   UNL     1       4.404   2.105   0.713  0.00  0.00    +0.147 HD
BRANCH  13  19
ATOM     15  C   UNL     1      -1.294  -0.773   0.011  0.00  0.00    +0.044 C 
ATOM     16  C   UNL     1       0.002  -0.004   0.002  0.00  0.00    -0.048 A 
ATOM     17  C   UNL     1      -0.017   1.379   0.010  0.00  0.00    +0.020 A 
ATOM     18  C   UNL     1       1.170   2.087   0.002  0.00  0.00    +0.040 A 
ATOM     19  C   UNL     1       2.382   1.409  -0.013  0.00  0.00    +0.056 A 
ATOM     20  C   UNL     1       2.397   0.020  -0.021  0.00  0.00    +0.040 A 
ATOM     21  C   UNL     1       1.207  -0.682  -0.013  0.00  0.00    +0.020 A 
ATOM     22 BR   UNL     1       4.044  -0.909  -0.042  0.00  0.00    -0.048 Br
ATOM     23 BR   UNL     1       1.143   3.978   0.012  0.00  0.00    -0.048 Br
ENDBRANCH  13  19
ENDBRANCH   1  13
TORSDOF 5
