REMARK  Name = ZINC19800303
REMARK  9 active torsions:
REMARK  status: ('A' for Active; 'I' for Inactive)
REMARK    1  A    between atoms: C_1  and  C_2
REMARK    2  A    between atoms: C_5  and  N_9
REMARK    3  A    between atoms: C_6  and  C_8
REMARK    4  A    between atoms: N_9  and  C_10
REMARK    5  A    between atoms: C_10  and  N_12
REMARK    6  A    between atoms: N_12  and  C_13
REMARK    7  A    between atoms: C_13  and  C_15
REMARK    8  A    between atoms: C_13  and  N_19
REMARK    9  A    between atoms: C_20  and  C_22
REMARK                            x       y       z     vdW  Elec       q    Type
REMARK                         _______ _______ _______ _____ _____    ______ ____
ROOT
ATOM      1  C   UNL     1       1.365   6.197  -0.365  0.00  0.00    +0.211 C 
ENDROOT
BRANCH   1   2
ATOM      2  C   UNL     1       0.986   6.955   0.909  0.00  0.00    +0.225 C 
ATOM      3 CL   UNL     1       0.843   5.791   2.279  0.00  0.00    -0.080 Cl
ATOM      4 CL   UNL     1       2.261   8.173   1.286  0.00  0.00    -0.080 Cl
ATOM      5 CL   UNL     1      -0.592   7.792   0.665  0.00  0.00    -0.080 Cl
ENDBRANCH   1   2
BRANCH   1   6
ATOM      6  N   UNL     1       0.329   5.207  -0.671  0.00  0.00    -0.287 N 
ATOM      7  C   UNL     1       0.678   3.955  -1.027  0.00  0.00    +0.281 C 
ATOM      8  O   UNL     1       1.853   3.647  -1.095  0.00  0.00    -0.267 OA
ATOM      9  H   UNL     1      -0.734   5.486  -0.610  0.00  0.00    +0.151 HD
BRANCH   7  10
ATOM     10  C   UNL     1      -0.359   2.965  -1.333  0.00  0.00    +0.191 A 
ATOM     11  C   UNL     1      -0.144   1.668  -1.705  0.00  0.00    +0.056 A 
ATOM     12  C   UNL     1      -1.408   1.089  -1.895  0.00  0.00    +0.058 A 
ATOM     13  C   UNL     1      -2.328   2.047  -1.640  0.00  0.00    +0.171 A 
ATOM     14  O   UNL     1      -1.691   3.175  -1.296  0.00  0.00    -0.444 OA
ATOM     15 BR   UNL     1      -4.204   1.830  -1.747  0.00  0.00    -0.008 Br
ENDBRANCH   7  10
ENDBRANCH   1   6
BRANCH   1  16
ATOM     16  N   UNL     1       1.481   7.143  -1.479  0.00  0.00    -0.305 N 
ATOM     17  H   UNL     1       0.714   7.918  -1.625  0.00  0.00    +0.150 HD
BRANCH  16  18
ATOM     18  C   UNL     1       2.527   7.063  -2.324  0.00  0.00    +0.136 C 
ATOM     19  S   UNL     1       3.721   5.857  -2.097  0.00  0.00    -0.019 S 
BRANCH  18  20
ATOM     20  N   UNL     1       2.634   7.932  -3.348  0.00  0.00    -0.297 N 
ATOM     21  H   UNL     1       1.823   8.649  -3.548  0.00  0.00    +0.154 HD
BRANCH  20  26
ATOM     22  C   UNL     1       7.263   7.896  -6.627  0.00  0.00    +0.044 C 
ATOM     23  C   UNL     1       6.033   7.906  -5.756  0.00  0.00    -0.050 A 
ATOM     24  C   UNL     1       6.161   7.826  -4.381  0.00  0.00    +0.005 A 
ATOM     25  C   UNL     1       5.036   7.834  -3.580  0.00  0.00    +0.024 A 
ATOM     26  C   UNL     1       3.776   7.924  -4.157  0.00  0.00    +0.036 A 
ATOM     27  C   UNL     1       3.651   7.999  -5.538  0.00  0.00    -0.029 A 
ATOM     28  C   UNL     1       4.780   7.995  -6.333  0.00  0.00    +0.008 A 
ATOM     29  C   UNL     1       2.285   8.090  -6.168  0.00  0.00    +0.045 C 
ENDBRANCH  20  26
ENDBRANCH  18  20
ENDBRANCH  16  18
ENDBRANCH   1  16
TORSDOF 7
