REMARK  Name = ZINC24760745
REMARK  10 active torsions:
REMARK  status: ('A' for Active; 'I' for Inactive)
REMARK    1  A    between atoms: C_1  and  C_2
REMARK    2  A    between atoms: C_2  and  N_3
REMARK    3  A    between atoms: N_3  and  C_4
REMARK    4  A    between atoms: N_3  and  S_6
REMARK    5  A    between atoms: C_4  and  C_5
REMARK    6  A    between atoms: S_6  and  C_9
REMARK    7  A    between atoms: C_12  and  O_34
REMARK    8  A    between atoms: C_13  and  N_15
REMARK    9  A    between atoms: C_16  and  C_18
REMARK   10  A    between atoms: C_18  and  N_19
REMARK                            x       y       z     vdW  Elec       q    Type
REMARK                         _______ _______ _______ _____ _____    ______ ____
ROOT
ATOM      1  N   UNL     1      -1.570  -4.266  -3.538  0.00  0.00    -0.281 N 
ATOM      2  C   UNL     1      -1.214  -3.411  -2.559  0.00  0.00    +0.235 C 
ATOM      3  O   UNL     1      -0.421  -3.758  -1.709  0.00  0.00    -0.274 OA
ATOM      4  H   UNL     1      -2.355  -3.986  -4.255  0.00  0.00    +0.155 HD
ENDROOT
BRANCH   1   9
ATOM      5  C   UNL     1       0.955  -6.925  -3.228  0.00  0.00    +0.107 A 
ATOM      6  C   UNL     1       0.308  -7.978  -3.847  0.00  0.00    +0.032 A 
ATOM      7  C   UNL     1      -0.962  -7.806  -4.365  0.00  0.00    +0.049 A 
ATOM      8  C   UNL     1      -1.590  -6.575  -4.266  0.00  0.00    +0.138 A 
ATOM      9  C   UNL     1      -0.939  -5.514  -3.642  0.00  0.00    +0.077 A 
ATOM     10  C   UNL     1       0.337  -5.692  -3.129  0.00  0.00    +0.055 A 
BRANCH   5  11
ATOM     11  S   UNL     1       2.574  -7.152  -2.570  0.00  0.00    +0.061 S 
ATOM     12  O   UNL     1       2.743  -6.167  -1.559  0.00  0.00    -0.153 OA
ATOM     13  O   UNL     1       2.716  -8.542  -2.311  0.00  0.00    -0.153 OA
BRANCH  11  14
ATOM     14  N   UNL     1       3.648  -6.782  -3.775  0.00  0.00    -0.177 NA
BRANCH  14  16
ATOM     15  C   UNL     1       5.471  -5.260  -3.190  0.00  0.00    +0.022 C 
ATOM     16  C   UNL     1       4.137  -5.410  -3.925  0.00  0.00    +0.106 C 
ENDBRANCH  14  16
BRANCH  14  17
ATOM     17  C   UNL     1       4.109  -7.829  -4.691  0.00  0.00    +0.106 C 
ATOM     18  C   UNL     1       3.248  -7.816  -5.955  0.00  0.00    +0.022 C 
ENDBRANCH  14  17
ENDBRANCH  11  14
ENDBRANCH   5  11
BRANCH   8  19
ATOM     19  O   UNL     1      -2.839  -6.404  -4.775  0.00  0.00    -0.505 OA
ATOM     20  H   UNL     1      -3.337  -5.427  -4.695  0.00  0.00    +0.292 HD
ENDBRANCH   8  19
ENDBRANCH   1   9
BRANCH   2  21
ATOM     21  C   UNL     1      -1.801  -2.024  -2.521  0.00  0.00    +0.214 C 
BRANCH  21  22
ATOM     22  N   UNL     1      -1.260  -1.296  -1.370  0.00  0.00    -0.215 N 
ATOM     23  C   UNL     1      -0.137  -0.545  -1.406  0.00  0.00    +0.251 C 
ATOM     24  O   UNL     1       0.588  -0.351  -2.358  0.00  0.00    -0.272 OA
ATOM     25  C   UNL     1       0.020  -0.000  -0.010  0.00  0.00    +0.138 C 
ATOM     26  C   UNL     1       0.009   1.534  -0.008  0.00  0.00    +0.045 C 
ATOM     27  C   UNL     1       1.517   1.870  -0.018  0.00  0.00    +0.038 C 
ATOM     28  C   UNL     1       2.197   0.668   0.604  0.00  0.00    -0.042 A 
ATOM     29  C   UNL     1       1.330  -0.413   0.603  0.00  0.00    -0.012 A 
ATOM     30  C   UNL     1       1.748  -1.627   1.123  0.00  0.00    +0.006 A 
ATOM     31  C   UNL     1       3.020  -1.762   1.643  0.00  0.00    +0.000 A 
ATOM     32  C   UNL     1       3.883  -0.683   1.645  0.00  0.00    +0.000 A 
ATOM     33  C   UNL     1       3.471   0.529   1.126  0.00  0.00    +0.004 A 
ATOM     34  N   UNL     1      -1.121  -0.543   0.728  0.00  0.00    -0.281 N 
ATOM     35  C   UNL     1      -1.816  -1.292  -0.152  0.00  0.00    +0.310 C 
ATOM     36  O   UNL     1      -2.833  -1.896   0.129  0.00  0.00    -0.252 OA
ATOM     37  H   UNL     1      -1.253  -0.300   1.793  0.00  0.00    +0.152 HD
ENDBRANCH  21  22
ENDBRANCH   2  21
TORSDOF 8
