REMARK  Name = ZINC35355930
REMARK  3 active torsions:
REMARK  status: ('A' for Active; 'I' for Inactive)
REMARK    1  A    between atoms: C_3  and  N_8
REMARK    2  A    between atoms: N_8  and  C_9
REMARK    3  A    between atoms: C_14  and  N_15
REMARK                            x       y       z     vdW  Elec       q    Type
REMARK                         _______ _______ _______ _____ _____    ______ ____
ROOT
ATOM      1  C   UNL     1       4.802   1.441   0.069  0.00  0.00    +0.054 A 
ATOM      2  C   UNL     1       4.825   0.055   0.056  0.00  0.00    +0.048 A 
ATOM      3  C   UNL     1       6.036  -0.618   0.145  0.00  0.00    +0.038 A 
ATOM      4  C   UNL     1       7.223   0.096   0.247  0.00  0.00    -0.024 A 
ATOM      5  C   UNL     1       7.202   1.478   0.261  0.00  0.00    +0.030 A 
ATOM      6  C   UNL     1       5.996   2.155   0.166  0.00  0.00    +0.046 A 
ATOM      7  C   UNL     1       8.534  -0.640   0.342  0.00  0.00    +0.046 C 
ATOM      8  C   UNL     1       8.335  -1.941   1.120  0.00  0.00    +0.101 C 
ATOM      9  C   UNL     1       7.143  -2.684   0.580  0.00  0.00    +0.218 C 
ATOM     10  O   UNL     1       7.156  -3.897   0.549  0.00  0.00    -0.275 OA
ATOM     11  N   UNL     1       6.063  -2.019   0.132  0.00  0.00    -0.285 N 
ATOM     12  H   UNL     1       5.298  -2.512  -0.203  0.00  0.00    +0.155 HD
ENDROOT
BRANCH   6  13
ATOM     13  N   UNL     1       5.976   3.557   0.174  0.00  0.00    -0.357 N 
ATOM     14  H   UNL     1       5.132   4.031   0.112  0.00  0.00    +0.142 HD
ATOM     15  H   UNL     1       6.807   4.053   0.241  0.00  0.00    +0.142 HD
ENDBRANCH   6  13
BRANCH   1  16
ATOM     16  N   UNL     1       3.582   2.123  -0.021  0.00  0.00    -0.313 N 
ATOM     17  H   UNL     1       3.554   3.085   0.099  0.00  0.00    +0.152 HD
BRANCH  16  20
ATOM     18  C   UNL     1       0.079   1.025   0.145  0.00  0.00    +0.003 A 
ATOM     19  C   UNL     1       1.241   1.724   0.408  0.00  0.00    +0.023 A 
ATOM     20  C   UNL     1       2.406   1.417  -0.284  0.00  0.00    +0.032 A 
ATOM     21  C   UNL     1       2.398   0.408  -1.239  0.00  0.00    +0.037 A 
ATOM     22  C   UNL     1       1.232  -0.287  -1.497  0.00  0.00    +0.015 A 
ATOM     23  C   UNL     1       0.074   0.021  -0.806  0.00  0.00    +0.014 A 
ATOM     24  I   UNL     1       1.219  -1.809  -2.936  0.00  0.00    -0.044 I 
ENDBRANCH  16  20
ENDBRANCH   1  16
TORSDOF 3
