REMARK  Name = ZINC38660219
REMARK  15 active torsions:
REMARK  status: ('A' for Active; 'I' for Inactive)
REMARK    1  A    between atoms: C_1  and  C_2
REMARK    2  A    between atoms: C_2  and  C_3
REMARK    3  A    between atoms: C_3  and  C_4
REMARK    4  A    between atoms: C_4  and  C_5
REMARK    5  A    between atoms: C_5  and  O_6
REMARK    6  A    between atoms: O_6  and  C_7
REMARK    7  A    between atoms: C_10  and  C_15
REMARK    8  A    between atoms: C_12  and  O_13
REMARK    9  A    between atoms: O_13  and  C_14
REMARK   10  A    between atoms: C_20  and  O_29
REMARK   11  A    between atoms: C_24  and  N_28
REMARK   12  A    between atoms: C_25  and  C_26
REMARK   13  A    between atoms: O_29  and  C_30
REMARK   14  A    between atoms: C_30  and  C_32
REMARK   15  A    between atoms: C_35  and  C_38
REMARK                            x       y       z     vdW  Elec       q    Type
REMARK                         _______ _______ _______ _____ _____    ______ ____
ROOT
ATOM      1  C   UNL     1      -7.803  -6.703   0.068  0.00  0.00    +0.098 C 
ATOM      2  C   UNL     1      -8.565  -6.296   1.301  0.00  0.00    +0.008 A 
ATOM      3  C   UNL     1      -8.291  -6.917   2.506  0.00  0.00    +0.012 A 
ATOM      4  C   UNL     1      -8.980  -6.557   3.647  0.00  0.00    +0.047 A 
ATOM      5  C   UNL     1      -9.952  -5.568   3.587  0.00  0.00    +0.135 A 
ATOM      6  C   UNL     1     -10.229  -4.944   2.382  0.00  0.00    +0.093 A 
ATOM      7  C   UNL     1      -9.535  -5.308   1.235  0.00  0.00    +0.138 A 
ATOM      8  O   UNL     1      -9.818  -4.688   0.063  0.00  0.00    -0.441 OA
ATOM      9  C   UNL     1      -9.464  -5.259  -1.100  0.00  0.00    +0.199 C 
ATOM     10  C   UNL     1      -8.516  -6.219  -1.164  0.00  0.00    +0.098 C 
ENDROOT
BRANCH   1  14
ATOM     11  C   UNL     1      -3.886  -4.990   0.198  0.00  0.00    +0.162 A 
ATOM     12  C   UNL     1      -5.004  -4.171   0.202  0.00  0.00    +0.050 A 
ATOM     13  C   UNL     1      -6.269  -4.728   0.160  0.00  0.00    +0.008 A 
ATOM     14  C   UNL     1      -6.422  -6.101   0.113  0.00  0.00    -0.031 A 
ATOM     15  C   UNL     1      -5.311  -6.924   0.109  0.00  0.00    +0.054 A 
ATOM     16  C   UNL     1      -4.040  -6.372   0.146  0.00  0.00    +0.162 A 
BRANCH  16  17
ATOM     17  O   UNL     1      -2.946  -7.180   0.136  0.00  0.00    -0.491 OA
ATOM     18  C   UNL     1      -3.180  -8.589   0.081  0.00  0.00    +0.277 C 
ENDBRANCH  16  17
BRANCH  11  19
ATOM     19  O   UNL     1      -2.642  -4.444   0.239  0.00  0.00    -0.488 OA
BRANCH  19  20
ATOM     20  C   UNL     1      -2.560  -3.019   0.292  0.00  0.00    +0.229 C 
BRANCH  20  21
ATOM     21  C   UNL     1      -1.091  -2.593   0.333  0.00  0.00    +0.041 C 
BRANCH  21  22
ATOM     22  C   UNL     1      -1.003  -1.067   0.389  0.00  0.00    +0.003 C 
BRANCH  22  24
ATOM     23  C   UNL     1       0.553   0.885   0.486  0.00  0.00    +0.004 C 
ATOM     24  C   UNL     1       0.466  -0.641   0.430  0.00  0.00    -0.003 C 
ENDBRANCH  22  24
ENDBRANCH  21  22
ENDBRANCH  20  21
ENDBRANCH  19  20
ENDBRANCH  11  19
ENDBRANCH   1  14
BRANCH   9  25
ATOM     25  N   UNL     1     -10.084  -4.856  -2.256  0.00  0.00    -0.328 N 
ATOM     26  H   UNL     1     -10.767  -4.168  -2.226  0.00  0.00    +0.145 HD
ATOM     27  H   UNL     1      -9.840  -5.259  -3.104  0.00  0.00    +0.145 HD
ENDBRANCH   9  25
BRANCH  10  28
ATOM     28  C   UNL     1      -8.184  -6.787  -2.436  0.00  0.00    +0.101 C 
ATOM     29  N   UNL     1      -7.921  -7.239  -3.444  0.00  0.00    -0.191 NA
ENDBRANCH  10  28
BRANCH   5  30
ATOM     30  O   UNL     1     -10.632  -5.213   4.709  0.00  0.00    -0.422 OA
BRANCH  30  31
ATOM     31  C   UNL     1      -9.959  -4.559   5.676  0.00  0.00    +0.344 C 
ATOM     32  O   UNL     1      -8.810  -4.212   5.488  0.00  0.00    -0.245 OA
BRANCH  31  33
ATOM     33  C   UNL     1     -10.618  -4.264   6.965  0.00  0.00    +0.059 A 
ATOM     34  C   UNL     1     -11.936  -4.666   7.187  0.00  0.00    +0.015 A 
ATOM     35  C   UNL     1     -12.545  -4.388   8.393  0.00  0.00    +0.004 A 
ATOM     36  C   UNL     1     -11.853  -3.712   9.381  0.00  0.00    -0.050 A 
ATOM     37  C   UNL     1     -10.546  -3.310   9.168  0.00  0.00    +0.004 A 
ATOM     38  C   UNL     1      -9.923  -3.586   7.969  0.00  0.00    +0.015 A 
ATOM     39  C   UNL     1     -12.525  -3.411  10.696  0.00  0.00    +0.044 C 
ENDBRANCH  31  33
ENDBRANCH  30  31
ENDBRANCH   5  30
TORSDOF 12
