REMARK  Name = ZINC04575635
REMARK  8 active torsions:
REMARK  status: ('A' for Active; 'I' for Inactive)
REMARK    1  A    between atoms: C_1  and  C_2
REMARK    2  A    between atoms: C_2  and  C_3
REMARK    3  A    between atoms: C_6  and  N_9
REMARK    4  A    between atoms: C_19  and  C_20
REMARK    5  A    between atoms: C_19  and  O_34
REMARK    6  A    between atoms: N_22  and  C_23
REMARK    7  A    between atoms: C_28  and  C_33
REMARK    8  A    between atoms: C_30  and  C_32
REMARK                            x       y       z     vdW  Elec       q    Type
REMARK                         _______ _______ _______ _____ _____    ______ ____
ROOT
ATOM      1  N   UNL     1      -2.456   3.823   0.044  0.00  0.00    -0.214 N 
ATOM      2  C   UNL     1      -2.483   5.163   0.158  0.00  0.00    +0.314 C 
ATOM      3  O   UNL     1      -1.427   5.759   0.247  0.00  0.00    -0.252 OA
ATOM      4  N   UNL     1      -3.619   5.873   0.171  0.00  0.00    -0.269 N 
ATOM      5  C   UNL     1      -4.881   5.286   0.082  0.00  0.00    +0.043 A 
ATOM      6  C   UNL     1      -6.030   6.067   0.106  0.00  0.00    +0.024 A 
ATOM      7  C   UNL     1      -7.271   5.467   0.015  0.00  0.00    +0.002 A 
ATOM      8  C   UNL     1      -7.376   4.093  -0.100  0.00  0.00    +0.001 A 
ATOM      9  C   UNL     1      -6.234   3.310  -0.125  0.00  0.00    +0.010 A 
ATOM     10  C   UNL     1      -4.997   3.905  -0.034  0.00  0.00    +0.033 A 
ATOM     11  C   UNL     1      -3.727   3.086  -0.058  0.00  0.00    +0.247 C 
ATOM     12  H   UNL     1      -3.561   6.838   0.251  0.00  0.00    +0.156 HD
ENDROOT
BRANCH   1  16
ATOM     13  C   UNL     1       1.176   1.782   0.000  0.00  0.00    -0.048 A 
ATOM     14  C   UNL     1       0.557   2.115  -1.191  0.00  0.00    +0.005 A 
ATOM     15  C   UNL     1      -0.645   2.796  -1.180  0.00  0.00    +0.024 A 
ATOM     16  C   UNL     1      -1.236   3.138   0.029  0.00  0.00    +0.041 A 
ATOM     17  C   UNL     1      -0.612   2.802   1.224  0.00  0.00    +0.024 A 
ATOM     18  C   UNL     1       0.592   2.125   1.206  0.00  0.00    +0.005 A 
BRANCH  13  20
ATOM     19  C   UNL     1       3.640   2.053  -0.037  0.00  0.00    +0.009 C 
ATOM     20  C   UNL     1       2.490   1.045  -0.016  0.00  0.00    +0.032 C 
ENDBRANCH  13  20
ENDBRANCH   1  16
BRANCH  11  21
ATOM     21  C   UNL     1      -3.787   2.102   1.082  0.00  0.00    +0.269 C 
ATOM     22  O   UNL     1      -3.875   0.914   0.854  0.00  0.00    -0.270 OA
ATOM     23  N   UNL     1      -3.743   2.543   2.355  0.00  0.00    -0.308 N 
ATOM     24  H   UNL     1      -3.672   3.493   2.537  0.00  0.00    +0.149 HD
BRANCH  23  25
ATOM     25  C   UNL     1      -3.801   1.586   3.463  0.00  0.00    +0.076 C 
ATOM     26  C   UNL     1      -5.262   1.262   3.781  0.00  0.00    +0.022 C 
ATOM     27  C   UNL     1      -5.323   0.264   4.938  0.00  0.00    +0.002 C 
ATOM     28  C   UNL     1      -4.656   0.873   6.173  0.00  0.00    +0.003 C 
ATOM     29  C   UNL     1      -3.195   1.197   5.856  0.00  0.00    -0.009 C 
ATOM     30  C   UNL     1      -3.134   2.196   4.698  0.00  0.00    +0.009 C 
ATOM     31  C   UNL     1      -3.867   3.479   5.093  0.00  0.00    +0.009 C 
ATOM     32  C   UNL     1      -2.527   1.806   7.090  0.00  0.00    +0.008 C 
ENDBRANCH  23  25
ENDBRANCH  11  21
BRANCH  11  33
ATOM     33  O   UNL     1      -3.707   2.341  -1.278  0.00  0.00    -0.360 OA
ATOM     34  H   UNL     1      -4.507   1.820  -1.433  0.00  0.00    +0.213 HD
ENDBRANCH  11  33
TORSDOF 5
