REMARK  Name = ZINC35075071
REMARK  9 active torsions:
REMARK  status: ('A' for Active; 'I' for Inactive)
REMARK    1  A    between atoms: C_1  and  C_2
REMARK    2  A    between atoms: C_2  and  C_4
REMARK    3  A    between atoms: C_2  and  C_10
REMARK    4  A    between atoms: C_4  and  C_5
REMARK    5  A    between atoms: C_5  and  C_6
REMARK    6  A    between atoms: N_8  and  N_9
REMARK    7  A    between atoms: C_16  and  C_35
REMARK    8  A    between atoms: C_27  and  C_34
REMARK    9  A    between atoms: C_30  and  O_33
REMARK                            x       y       z     vdW  Elec       q    Type
REMARK                         _______ _______ _______ _____ _____    ______ ____
ROOT
ATOM      1  C   UNL     1       0.854  -0.339   1.276  0.00  0.00    -0.002 C 
ATOM      2  C   UNL     1       0.101  -0.141   2.617  0.00  0.00    +0.004 C 
ATOM      3  C   UNL     1       0.299  -1.456   3.428  0.00  0.00    +0.004 C 
ATOM      4  C   UNL     1       1.522  -2.076   2.732  0.00  0.00    -0.001 C 
ATOM      5  C   UNL     1       1.164  -1.853   1.247  0.00  0.00    -0.026 C 
ATOM      6  C   UNL     1       2.310  -2.253   0.361  0.00  0.00    +0.007 C 
ATOM      7  C   UNL     1       2.913  -3.603   0.771  0.00  0.00    +0.005 C 
ATOM      8  C   UNL     1       2.072  -4.340   1.796  0.00  0.00    -0.001 C 
ATOM      9  C   UNL     1       1.851  -3.497   3.051  0.00  0.00    -0.004 C 
ATOM     10  C   UNL     1       0.805  -4.192   3.924  0.00  0.00    +0.004 C 
ATOM     11  C   UNL     1       1.414  -5.524   4.384  0.00  0.00    +0.004 C 
ATOM     12  C   UNL     1       1.747  -6.394   3.175  0.00  0.00    -0.002 C 
ATOM     13  C   UNL     1       2.692  -5.683   2.205  0.00  0.00    -0.026 C 
ATOM     14  C   UNL     1       4.050  -5.473   2.861  0.00  0.00    +0.010 C 
ATOM     15  C   UNL     1       4.662  -6.814   3.264  0.00  0.00    +0.032 C 
ATOM     16  C   UNL     1       3.738  -7.579   4.203  0.00  0.00    +0.115 C 
ATOM     17  C   UNL     1       2.336  -7.724   3.632  0.00  0.00    +0.035 C 
ATOM     18  C   UNL     1       2.849  -6.546   0.945  0.00  0.00    +0.012 C 
ATOM     19  C   UNL     1      -0.131  -2.552   0.835  0.00  0.00    +0.012 C 
ENDROOT
BRANCH   1  21
ATOM     20  C   UNL     1      -0.473   1.491   0.219  0.00  0.00    +0.008 C 
ATOM     21  C   UNL     1      -0.044   0.027   0.098  0.00  0.00    -0.010 C 
BRANCH  21  22
ATOM     22  C   UNL     1       0.723  -0.174  -1.210  0.00  0.00    +0.013 C 
BRANCH  22  23
ATOM     23  C   UNL     1      -0.188   0.161  -2.393  0.00  0.00    +0.097 C 
BRANCH  23  24
ATOM     24  C   UNL     1       0.568  -0.036  -3.681  0.00  0.00    +0.226 C 
ATOM     25  O   UNL     1       1.722  -0.409  -3.656  0.00  0.00    -0.275 OA
ATOM     26  N   UNL     1      -0.039   0.201  -4.861  0.00  0.00    -0.254 N 
ATOM     27  H   UNL     1      -0.962   0.498  -4.881  0.00  0.00    +0.169 HD
BRANCH  26  28
ATOM     28  N   UNL     1       0.646   0.021  -6.029  0.00  0.00    -0.254 NA
ATOM     29  H   UNL     1       0.066   0.236  -6.826  0.00  0.00    +0.140 HD
ATOM     30  H   UNL     1       1.493   0.571  -6.040  0.00  0.00    +0.140 HD
ENDBRANCH  26  28
ENDBRANCH  23  24
ENDBRANCH  22  23
ENDBRANCH  21  22
ENDBRANCH   1  21
BRANCH  16  31
ATOM     31  O   UNL     1       3.700  -6.946   5.482  0.00  0.00    -0.392 OA
ATOM     32  H   UNL     1       4.561  -6.893   5.920  0.00  0.00    +0.210 HD
ENDBRANCH  16  31
TORSDOF 6
