REMARK  Name = ZINC65203661
REMARK  7 active torsions:
REMARK  status: ('A' for Active; 'I' for Inactive)
REMARK    1  A    between atoms: C_8  and  S_10
REMARK    2  A    between atoms: S_10  and  C_11
REMARK    3  A    between atoms: C_11  and  C_12
REMARK    4  A    between atoms: N_14  and  N_15
REMARK    5  A    between atoms: N_18  and  C_19
REMARK    6  A    between atoms: C_19  and  C_20
REMARK    7  A    between atoms: C_20  and  C_21
REMARK                            x       y       z     vdW  Elec       q    Type
REMARK                         _______ _______ _______ _____ _____    ______ ____
ROOT
ATOM      1  C   UNL     1       5.389  -5.692  -0.080  0.00  0.00    +0.239 C 
ATOM      2  O   UNL     1       4.610  -6.621  -0.077  0.00  0.00    -0.273 OA
ATOM      3  N   UNL     1       6.717  -5.925  -0.094  0.00  0.00    -0.233 N 
ATOM      4  H   UNL     1       7.340  -5.182  -0.096  0.00  0.00    +0.173 HD
ENDROOT
BRANCH   3   5
ATOM      5  N   UNL     1       7.196  -7.242  -0.105  0.00  0.00    -0.218 N 
ATOM      6  C   UNL     1       8.524  -7.475  -0.119  0.00  0.00    +0.316 C 
ATOM      7  O   UNL     1       8.940  -8.617  -0.129  0.00  0.00    -0.251 OA
ATOM      8  N   UNL     1       9.389  -6.442  -0.122  0.00  0.00    -0.298 N 
ATOM      9  H   UNL     1       6.573  -7.985  -0.103  0.00  0.00    +0.174 HD
ATOM     10  H   UNL     1       9.057  -5.531  -0.114  0.00  0.00    +0.150 HD
BRANCH   8  11
ATOM     11  C   UNL     1      10.832  -6.696  -0.137  0.00  0.00    +0.111 C 
BRANCH  11  12
ATOM     12  C   UNL     1      11.584  -5.364  -0.138  0.00  0.00    +0.061 C 
BRANCH  12  13
ATOM     13  C   UNL     1      13.069  -5.625  -0.154  0.00  0.00    -0.009 A 
ATOM     14  C   UNL     1      13.900  -5.762  -1.216  0.00  0.00    +0.011 A 
ATOM     15  C   UNL     1      15.243  -5.999  -0.989  0.00  0.00    +0.008 A 
ATOM     16  C   UNL     1      15.688  -6.088   0.288  0.00  0.00    +0.045 A 
ATOM     17  S   UNL     1      14.189  -5.826   1.221  0.00  0.00    -0.102 S 
ENDBRANCH  12  13
ENDBRANCH  11  12
ENDBRANCH   8  11
ENDBRANCH   3   5
BRANCH   1  18
ATOM     18  C   UNL     1       4.873  -4.276  -0.067  0.00  0.00    +0.173 C 
BRANCH  18  19
ATOM     19  S   UNL     1       3.059  -4.293  -0.050  0.00  0.00    -0.089 S 
BRANCH  19  27
ATOM     20  C   UNL     1      -0.017   1.366   0.010  0.00  0.00    +0.002 A 
ATOM     21  C   UNL     1       1.156   2.107   0.002  0.00  0.00    +0.001 A 
ATOM     22  C   UNL     1       2.373   1.449  -0.013  0.00  0.00    +0.017 A 
ATOM     23  C   UNL     1       2.401   0.077  -0.021  0.00  0.00    +0.040 A 
ATOM     24  C   UNL     1       1.227  -0.710  -0.013  0.00  0.00    +0.079 A 
ATOM     25  C   UNL     1       0.002  -0.004   0.002  0.00  0.00    +0.029 A 
ATOM     26  N   UNL     1       1.419  -2.047  -0.023  0.00  0.00    -0.233 NA
ATOM     27  C   UNL     1       2.617  -2.588  -0.037  0.00  0.00    +0.136 A 
ATOM     28  S   UNL     1       3.683  -1.153  -0.039  0.00  0.00    -0.061 S 
ENDBRANCH  19  27
ENDBRANCH  18  19
ENDBRANCH   1  18
TORSDOF 7
