REMARK  Name = ZINC24345207
REMARK  13 active torsions:
REMARK  status: ('A' for Active; 'I' for Inactive)
REMARK    1  A    between atoms: C_1  and  C_2
REMARK    2  A    between atoms: C_2  and  C_3
REMARK    3  A    between atoms: C_2  and  C_4
REMARK    4  A    between atoms: C_4  and  C_5
REMARK    5  A    between atoms: C_4  and  C_6
REMARK    6  A    between atoms: C_4  and  N_8
REMARK    7  A    between atoms: C_9  and  C_11
REMARK    8  A    between atoms: C_11  and  N_12
REMARK    9  A    between atoms: N_12  and  C_13
REMARK   10  A    between atoms: C_18  and  C_19
REMARK   11  A    between atoms: C_19  and  N_20
REMARK   12  A    between atoms: N_20  and  C_21
REMARK   13  A    between atoms: N_20  and  C_22
REMARK                            x       y       z     vdW  Elec       q    Type
REMARK                         _______ _______ _______ _____ _____    ______ ____
ROOT
ATOM      1  C   UNL     1       1.435  -4.014  -2.461  0.00  0.00    +0.029 A 
ATOM      2  C   UNL     1       0.934  -4.930  -1.545  0.00  0.00    +0.023 A 
ATOM      3  C   UNL     1       1.074  -6.284  -1.778  0.00  0.00    +0.002 A 
ATOM      4  C   UNL     1       1.721  -6.728  -2.916  0.00  0.00    +0.000 A 
ATOM      5  C   UNL     1       2.226  -5.819  -3.828  0.00  0.00    +0.003 A 
ATOM      6  C   UNL     1       2.085  -4.464  -3.604  0.00  0.00    -0.043 A 
ENDROOT
BRANCH   1   7
ATOM      7  N   UNL     1       1.291  -2.644  -2.232  0.00  0.00    -0.335 N 
ATOM      8  H   UNL     1       1.693  -1.919  -2.956  0.00  0.00    +0.147 HD
BRANCH   7   9
ATOM      9  C   UNL     1       0.606  -2.171  -1.026  0.00  0.00    +0.197 C 
BRANCH   9  11
ATOM     10  N   UNL     1       0.002  -0.004   0.002  0.00  0.00    -0.296 N 
ATOM     11  C   UNL     1       0.585  -0.664  -1.018  0.00  0.00    +0.231 C 
ATOM     12  O   UNL     1       1.093  -0.046  -1.929  0.00  0.00    -0.274 OA
ATOM     13  H   UNL     1      -0.459  -0.565   0.828  0.00  0.00    +0.150 HD
BRANCH  10  14
ATOM     14  C   UNL     1      -0.018   1.461   0.010  0.00  0.00    +0.121 C 
ATOM     15  C   UNL     1       1.418   1.990  -0.001  0.00  0.00    +0.048 C 
BRANCH  14  17
ATOM     16  C   UNL     1       0.073   1.554   2.505  0.00  0.00    +0.010 C 
ATOM     17  C   UNL     1      -0.734   1.954   1.269  0.00  0.00    +0.020 C 
ATOM     18  C   UNL     1      -0.865   3.478   1.217  0.00  0.00    +0.010 C 
ENDBRANCH  14  17
BRANCH  14  19
ATOM     19  C   UNL     1      -0.730   1.948  -1.183  0.00  0.00    +0.088 C 
ATOM     20  N   UNL     1      -1.279   2.325  -2.103  0.00  0.00    -0.194 NA
ENDBRANCH  14  19
ENDBRANCH  10  14
ENDBRANCH   9  11
ENDBRANCH   7   9
ENDBRANCH   1   7
BRANCH   6  21
ATOM     21  C   UNL     1       2.635  -3.474  -4.598  0.00  0.00    -0.041 C 
BRANCH  21  22
ATOM     22  N   UNL     1       3.922  -2.957  -4.114  0.00  0.00    +0.382 N 
ATOM     23  C   UNL     1       4.937  -4.019  -4.080  0.00  0.00    -0.095 C 
ATOM     24  H   UNL     1       3.776  -2.597  -3.085  0.00  0.00    -0.081 HD
BRANCH  22  25
ATOM     25  C   UNL     1       4.375  -1.822  -4.929  0.00  0.00    -0.069 C 
ATOM     26  C   UNL     1       4.662  -2.301  -6.354  0.00  0.00    -0.015 C 
ATOM     27  C   UNL     1       5.133  -1.119  -7.204  0.00  0.00    -0.002 C 
ATOM     28  C   UNL     1       6.408  -0.531  -6.597  0.00  0.00    -0.000 C 
ATOM     29  C   UNL     1       6.121  -0.052  -5.172  0.00  0.00    -0.002 C 
ATOM     30  C   UNL     1       5.650  -1.234  -4.322  0.00  0.00    -0.015 C 
ENDBRANCH  22  25
ENDBRANCH  21  22
ENDBRANCH   6  21
TORSDOF 9
