REMARK  Name = ZINC39785774
REMARK  11 active torsions:
REMARK  status: ('A' for Active; 'I' for Inactive)
REMARK    1  A    between atoms: C_1  and  C_2
REMARK    2  A    between atoms: C_2  and  C_4
REMARK    3  A    between atoms: C_2  and  O_15
REMARK    4  A    between atoms: C_4  and  C_6
REMARK    5  A    between atoms: O_15  and  C_16
REMARK    6  A    between atoms: C_16  and  C_18
REMARK    7  A    between atoms: C_18  and  C_19
REMARK    8  A    between atoms: C_19  and  C_20
REMARK    9  A    between atoms: N_23  and  C_31
REMARK   10  A    between atoms: C_34  and  O_37
REMARK   11  A    between atoms: O_37  and  C_38
REMARK                            x       y       z     vdW  Elec       q    Type
REMARK                         _______ _______ _______ _____ _____    ______ ____
ROOT
ATOM      1  C   UNL     1      -3.585  -2.825   2.564  0.00  0.00    +0.072 C 
ENDROOT
BRANCH   1   2
ATOM      2  C   UNL     1      -5.059  -2.585   2.764  0.00  0.00    +0.107 A 
ATOM      3  C   UNL     1      -5.668  -2.835   4.074  0.00  0.00    +0.278 A 
ATOM      4  O   UNL     1      -4.990  -3.237   5.003  0.00  0.00    -0.265 OA
ATOM      5  N   UNL     1      -6.991  -2.615   4.239  0.00  0.00    -0.274 N 
ATOM      6  C   UNL     1      -7.732  -2.159   3.166  0.00  0.00    +0.075 A 
ATOM      7  C   UNL     1      -9.096  -1.922   3.303  0.00  0.00    +0.028 A 
ATOM      8  C   UNL     1      -9.824  -1.467   2.225  0.00  0.00    +0.002 A 
ATOM      9  C   UNL     1      -9.207  -1.242   1.001  0.00  0.00    +0.002 A 
ATOM     10  C   UNL     1      -7.871  -1.468   0.844  0.00  0.00    +0.030 A 
ATOM     11  C   UNL     1      -7.106  -1.932   1.925  0.00  0.00    +0.088 A 
ATOM     12  N   UNL     1      -5.786  -2.150   1.775  0.00  0.00    -0.245 NA
BRANCH   5  13
ATOM     13  C   UNL     1      -7.601  -2.845   5.477  0.00  0.00    +0.050 A 
ATOM     14  C   UNL     1      -8.131  -4.096   5.769  0.00  0.00    +0.030 A 
ATOM     15  C   UNL     1      -8.733  -4.323   6.990  0.00  0.00    +0.047 A 
ATOM     16  C   UNL     1      -8.809  -3.301   7.927  0.00  0.00    +0.120 A 
ATOM     17  C   UNL     1      -8.280  -2.052   7.636  0.00  0.00    +0.047 A 
ATOM     18  C   UNL     1      -7.673  -1.825   6.418  0.00  0.00    +0.030 A 
BRANCH  16  19
ATOM     19  O   UNL     1      -9.403  -3.525   9.129  0.00  0.00    -0.495 OA
ATOM     20  C   UNL     1      -9.446  -2.429  10.045  0.00  0.00    +0.277 C 
ENDBRANCH  16  19
ENDBRANCH   5  13
ENDBRANCH   1   2
BRANCH   1  21
ATOM     21  C   UNL     1      -3.204  -2.484   1.122  0.00  0.00    +0.127 C 
BRANCH  21  22
ATOM     22  C   UNL     1      -1.730  -2.724   0.922  0.00  0.00    +0.308 C 
ATOM     23  O   UNL     1      -1.053  -3.128   1.838  0.00  0.00    -0.251 OA
BRANCH  22  24
ATOM     24  O   UNL     1      -1.168  -2.490  -0.275  0.00  0.00    -0.454 OA
BRANCH  24  26
ATOM     25  C   UNL     1       1.010  -1.470  -0.040  0.00  0.00    +0.061 C 
ATOM     26  C   UNL     1       0.234  -2.740  -0.393  0.00  0.00    +0.244 C 
BRANCH  26  27
ATOM     27  C   UNL     1       0.554  -3.147  -1.808  0.00  0.00    +0.201 C 
ATOM     28  O   UNL     1      -0.217  -2.878  -2.707  0.00  0.00    -0.288 OA
BRANCH  27  29
ATOM     29  C   UNL     1       1.749  -3.842  -2.090  0.00  0.00    +0.027 C 
ATOM     30  C   UNL     1       2.192  -4.280  -3.325  0.00  0.00    +0.006 A 
ATOM     31  C   UNL     1       1.648  -4.193  -4.628  0.00  0.00    +0.010 A 
ATOM     32  C   UNL     1       2.312  -4.722  -5.680  0.00  0.00    +0.001 A 
ATOM     33  C   UNL     1       3.549  -5.371  -5.541  0.00  0.00    +0.002 A 
ATOM     34  C   UNL     1       4.154  -5.508  -4.342  0.00  0.00    +0.026 A 
ATOM     35  C   UNL     1       3.498  -4.960  -3.143  0.00  0.00    +0.043 A 
ATOM     36  N   UNL     1       3.848  -4.949  -1.889  0.00  0.00    -0.380 N 
ATOM     37  C   UNL     1       2.819  -4.258  -1.104  0.00  0.00    +0.152 C 
ATOM     38  H   UNL     1       4.662  -5.334  -1.530  0.00  0.00    +0.160 HD
ENDBRANCH  27  29
ENDBRANCH  26  27
ENDBRANCH  24  26
ENDBRANCH  22  24
ENDBRANCH  21  22
ENDBRANCH   1  21
TORSDOF 9
