REMARK  Name = ZINC13464727
REMARK  10 active torsions:
REMARK  status: ('A' for Active; 'I' for Inactive)
REMARK    1  A    between atoms: C_1  and  C_2
REMARK    2  A    between atoms: C_5  and  C_8
REMARK    3  A    between atoms: C_8  and  C_10
REMARK    4  A    between atoms: C_8  and  N_20
REMARK    5  A    between atoms: N_12  and  C_13
REMARK    6  A    between atoms: C_13  and  C_14
REMARK    7  A    between atoms: N_20  and  C_21
REMARK    8  A    between atoms: C_21  and  C_22
REMARK    9  A    between atoms: C_29  and  C_31
REMARK   10  A    between atoms: C_31  and  N_32
REMARK                            x       y       z     vdW  Elec       q    Type
REMARK                         _______ _______ _______ _____ _____    ______ ____
ROOT
ATOM      1  N   UNL     1       3.826  -3.248  -4.872  0.00  0.00    -0.280 N 
ATOM      2  C   UNL     1       4.980  -3.852  -5.216  0.00  0.00    +0.238 C 
ATOM      3  O   UNL     1       5.958  -3.740  -4.508  0.00  0.00    -0.274 OA
ENDROOT
BRANCH   1   4
ATOM      4  C   UNL     1       3.748  -2.467  -3.635  0.00  0.00    +0.193 C 
BRANCH   4   9
ATOM      5  C   UNL     1       8.308   1.067  -3.297  0.00  0.00    +0.044 C 
ATOM      6  C   UNL     1       7.119   0.145  -3.385  0.00  0.00    -0.050 A 
ATOM      7  C   UNL     1       6.733  -0.594  -2.282  0.00  0.00    +0.004 A 
ATOM      8  C   UNL     1       5.642  -1.439  -2.362  0.00  0.00    +0.006 A 
ATOM      9  C   UNL     1       4.937  -1.546  -3.546  0.00  0.00    -0.018 A 
ATOM     10  C   UNL     1       5.326  -0.811  -4.651  0.00  0.00    +0.006 A 
ATOM     11  C   UNL     1       6.414   0.038  -4.569  0.00  0.00    +0.004 A 
ENDBRANCH   4   9
BRANCH   4  12
ATOM     12  C   UNL     1       2.480  -1.653  -3.633  0.00  0.00    +0.238 C 
ATOM     13  O   UNL     1       2.009  -1.262  -4.681  0.00  0.00    -0.273 OA
ATOM     14  N   UNL     1       1.869  -1.358  -2.469  0.00  0.00    -0.311 N 
ATOM     15  H   UNL     1       2.246  -1.670  -1.631  0.00  0.00    +0.149 HD
BRANCH  14  16
ATOM     16  C   UNL     1       0.637  -0.566  -2.467  0.00  0.00    +0.135 C 
BRANCH  16  17
ATOM     17  C   UNL     1       0.154  -0.377  -1.028  0.00  0.00    +0.135 C 
ATOM     18  C   UNL     1      -1.207   0.347  -1.023  0.00  0.00    +0.035 C 
ATOM     19  C   UNL     1      -0.955   1.623  -0.183  0.00  0.00    +0.031 C 
ATOM     20  C   UNL     1       0.305   1.233   0.630  0.00  0.00    +0.160 C 
ATOM     21  O   UNL     1       1.080   0.450  -0.304  0.00  0.00    -0.375 OA
ENDBRANCH  16  17
ENDBRANCH  14  16
ENDBRANCH   4  12
ENDBRANCH   1   4
BRANCH   1  22
ATOM     22  C   UNL     1       2.649  -3.372  -5.735  0.00  0.00    +0.144 C 
BRANCH  22  23
ATOM     23  C   UNL     1       1.595  -4.190  -5.034  0.00  0.00    -0.030 A 
ATOM     24  C   UNL     1       1.464  -5.537  -5.319  0.00  0.00    +0.008 A 
ATOM     25  C   UNL     1       0.502  -6.289  -4.673  0.00  0.00    +0.038 A 
ATOM     26  C   UNL     1      -0.338  -5.692  -3.748  0.00  0.00    +0.123 A 
ATOM     27  C   UNL     1      -0.209  -4.343  -3.467  0.00  0.00    +0.038 A 
ATOM     28  C   UNL     1       0.758  -3.593  -4.110  0.00  0.00    +0.008 A 
ATOM     29  F   UNL     1      -1.282  -6.426  -3.119  0.00  0.00    -0.205 F 
ENDBRANCH  22  23
ENDBRANCH   1  22
BRANCH   2  30
ATOM     30  C   UNL     1       5.056  -4.667  -6.482  0.00  0.00    +0.241 C 
BRANCH  30  31
ATOM     31  N   UNL     1       6.452  -5.026  -6.748  0.00  0.00    -0.235 N 
ATOM     32  C   UNL     1       7.359  -4.306  -7.489  0.00  0.00    +0.090 A 
ATOM     33  C   UNL     1       7.301  -3.104  -8.186  0.00  0.00    +0.029 A 
ATOM     34  C   UNL     1       8.408  -2.645  -8.842  0.00  0.00    +0.002 A 
ATOM     35  C   UNL     1       9.594  -3.368  -8.819  0.00  0.00    +0.002 A 
ATOM     36  C   UNL     1       9.679  -4.546  -8.136  0.00  0.00    +0.032 A 
ATOM     37  C   UNL     1       8.556  -5.042  -7.460  0.00  0.00    +0.113 A 
ATOM     38  N   UNL     1       8.336  -6.153  -6.730  0.00  0.00    -0.129 NA
ATOM     39  N   UNL     1       7.123  -6.174  -6.302  0.00  0.00    -0.064 NA
ENDBRANCH  30  31
ENDBRANCH   2  30
TORSDOF 9
