REMARK  Name = ZINC00845051
REMARK  6 active torsions:
REMARK  status: ('A' for Active; 'I' for Inactive)
REMARK    1  A    between atoms: C_4  and  C_7
REMARK    2  A    between atoms: C_7  and  C_8
REMARK    3  A    between atoms: C_7  and  N_63
REMARK    4  A    between atoms: C_19  and  C_21
REMARK    5  A    between atoms: C_27  and  C_34
REMARK    6  A    between atoms: C_29  and  C_30
REMARK                            x       y       z     vdW  Elec       q    Type
REMARK                         _______ _______ _______ _____ _____    ______ ____
ROOT
ATOM      1  C   UNL     1      -3.800  11.261  -1.103  0.00  0.00    -0.058 C 
ATOM      2  C   UNL     1      -3.164  10.049  -0.415  0.00  0.00    +0.089 C 
ATOM      3  N   UNL     1      -1.811   9.859  -0.959  0.00  0.00    -0.301 N 
ATOM      4  C   UNL     1      -0.900  11.014  -0.979  0.00  0.00    +0.089 C 
ATOM      5  C   UNL     1      -1.627  12.189  -1.650  0.00  0.00    -0.058 C 
ATOM      6  C   UNL     1      -1.414   8.657  -1.422  0.00  0.00    +0.252 C 
ATOM      7  O   UNL     1      -2.203   7.731  -1.466  0.00  0.00    -0.270 OA
ATOM      8  N   UNL     1      -2.902  12.425  -0.939  0.00  0.00    +0.389 N 
ATOM      9  H   UNL     1      -2.706  12.556   0.060  0.00  0.00    -0.080 HD
ENDROOT
BRANCH   6  10
ATOM     10  C   UNL     1      -0.034   8.465  -1.873  0.00  0.00    +0.101 A 
ATOM     11  C   UNL     1       1.111   9.107  -1.365  0.00  0.00    +0.150 A 
ATOM     12  N   UNL     1       2.158   8.678  -2.018  0.00  0.00    -0.172 NA
ATOM     13  N   UNL     1       1.760   7.742  -2.980  0.00  0.00    -0.209 N 
ATOM     14  C   UNL     1       0.402   7.602  -2.899  0.00  0.00    +0.169 A 
ATOM     15  N   UNL     1      -0.250   6.772  -3.710  0.00  0.00    -0.226 NA
ATOM     16  C   UNL     1       0.405   6.049  -4.610  0.00  0.00    +0.082 A 
ATOM     17  C   UNL     1       1.810   6.170  -4.721  0.00  0.00    +0.061 A 
ATOM     18  C   UNL     1       2.467   7.019  -3.899  0.00  0.00    +0.149 A 
BRANCH  16  19
ATOM     19  C   UNL     1      -0.329   5.130  -5.495  0.00  0.00    +0.038 A 
ATOM     20  C   UNL     1      -1.687   4.869  -5.548  0.00  0.00    +0.017 A 
ATOM     21  C   UNL     1      -2.114   3.958  -6.487  0.00  0.00    +0.008 A 
ATOM     22  C   UNL     1      -1.200   3.362  -7.293  0.00  0.00    +0.046 A 
ATOM     23  S   UNL     1       0.299   4.064  -6.780  0.00  0.00    -0.095 S 
ENDBRANCH  16  19
BRANCH  18  24
ATOM     24  C   UNL     1       3.963   7.166  -3.995  0.00  0.00    +0.434 C 
ATOM     25  F   UNL     1       4.437   6.415  -5.076  0.00  0.00    -0.164 F 
ATOM     26  F   UNL     1       4.288   8.513  -4.186  0.00  0.00    -0.164 F 
ATOM     27  F   UNL     1       4.554   6.706  -2.813  0.00  0.00    -0.164 F 
ENDBRANCH  18  24
ENDBRANCH   6  10
BRANCH   8  28
ATOM     28  C   UNL     1      -3.554  13.643  -1.464  0.00  0.00    -0.007 C 
BRANCH  28  32
ATOM     29  C   UNL     1      -7.053  14.441   0.854  0.00  0.00    +0.000 A 
ATOM     30  C   UNL     1      -7.069  14.644  -0.513  0.00  0.00    +0.000 A 
ATOM     31  C   UNL     1      -5.936  14.386  -1.263  0.00  0.00    +0.002 A 
ATOM     32  C   UNL     1      -4.789  13.925  -0.646  0.00  0.00    -0.057 A 
ATOM     33  C   UNL     1      -4.775  13.716   0.720  0.00  0.00    +0.002 A 
ATOM     34  C   UNL     1      -5.905  13.979   1.471  0.00  0.00    +0.000 A 
ENDBRANCH  28  32
BRANCH  28  35
ATOM     35  C   UNL     1      -2.598  14.801  -1.344  0.00  0.00    -0.057 A 
ATOM     36  C   UNL     1      -1.899  15.002  -0.169  0.00  0.00    +0.002 A 
ATOM     37  C   UNL     1      -1.017  16.061  -0.061  0.00  0.00    +0.000 A 
ATOM     38  C   UNL     1      -0.843  16.926  -1.125  0.00  0.00    +0.000 A 
ATOM     39  C   UNL     1      -1.546  16.729  -2.299  0.00  0.00    +0.000 A 
ATOM     40  C   UNL     1      -2.424  15.666  -2.408  0.00  0.00    +0.002 A 
ENDBRANCH  28  35
ENDBRANCH   8  28
TORSDOF 6
