REMARK  Name = ZINC64002380
REMARK  6 active torsions:
REMARK  status: ('A' for Active; 'I' for Inactive)
REMARK    1  A    between atoms: C_1  and  O_2
REMARK    2  A    between atoms: O_2  and  C_3
REMARK    3  A    between atoms: C_15  and  C_17
REMARK    4  A    between atoms: C_25  and  C_27
REMARK    5  A    between atoms: C_27  and  C_28
REMARK    6  A    between atoms: C_28  and  C_29
REMARK                            x       y       z     vdW  Elec       q    Type
REMARK                         _______ _______ _______ _____ _____    ______ ____
ROOT
ATOM      1  C   UNL     1       0.776  -0.604  -1.040  0.00  0.00    +0.116 C 
ATOM      2  C   UNL     1       1.357   0.086  -2.034  0.00  0.00    +0.109 C 
ATOM      3  C   UNL     1       1.897  -0.613  -3.145  0.00  0.00    +0.243 C 
ATOM      4  O   UNL     1       2.124  -0.015  -4.181  0.00  0.00    -0.271 OA
ATOM      5  N   UNL     1       2.155  -1.912  -3.064  0.00  0.00    -0.292 N 
ATOM      6  C   UNL     1       2.862  -2.672  -4.101  0.00  0.00    +0.127 C 
ATOM      7  C   UNL     1       4.318  -2.188  -4.164  0.00  0.00    +0.126 C 
ATOM      8  N   UNL     1       4.833  -2.281  -2.747  0.00  0.00    -0.300 N 
ATOM      9  C   UNL     1       4.269  -3.254  -1.849  0.00  0.00    +0.109 C 
ATOM     10  C   UNL     1       3.083  -2.731  -1.054  0.00  0.00    +0.042 C 
ATOM     11  C   UNL     1       1.804  -2.727  -1.870  0.00  0.00    +0.097 C 
ATOM     12  C   UNL     1       0.650  -2.100  -1.115  0.00  0.00    +0.161 C 
ATOM     13  C   UNL     1       5.814  -1.458  -2.326  0.00  0.00    +0.216 C 
ATOM     14  O   UNL     1       6.224  -1.536  -1.188  0.00  0.00    -0.276 OA
ENDROOT
BRANCH  12  15
ATOM     15  C   UNL     1       0.614  -2.661   0.283  0.00  0.00    +0.228 C 
ATOM     16  O   UNL     1       1.162  -2.069   1.188  0.00  0.00    -0.275 OA
ATOM     17  N   UNL     1      -0.027  -3.821   0.527  0.00  0.00    -0.299 N 
ATOM     18  C   UNL     1      -0.580  -4.590  -0.589  0.00  0.00    +0.118 C 
ATOM     19  C   UNL     1       0.170  -5.922  -0.713  0.00  0.00    +0.088 C 
ATOM     20  S   UNL     1       0.041  -6.811   0.867  0.00  0.00    -0.158 S 
ATOM     21  C   UNL     1       0.638  -5.593   2.078  0.00  0.00    +0.088 C 
ATOM     22  C   UNL     1      -0.157  -4.300   1.904  0.00  0.00    +0.118 C 
ENDBRANCH  12  15
BRANCH   1  24
ATOM     23  C   UNL     1       0.454   1.473   0.053  0.00  0.00    +0.276 C 
ATOM     24  O   UNL     1       0.305   0.052   0.040  0.00  0.00    -0.498 OA
ENDBRANCH   1  24
BRANCH  13  25
ATOM     25  C   UNL     1       6.401  -0.442  -3.271  0.00  0.00    +0.100 C 
BRANCH  25  26
ATOM     26  C   UNL     1       7.488   0.357  -2.549  0.00  0.00    +0.042 C 
BRANCH  26  27
ATOM     27  C   UNL     1       8.076   1.374  -3.494  0.00  0.00    -0.041 C 
ATOM     28  C   UNL     1       7.717   2.672  -3.616  0.00  0.00    -0.001 A 
ATOM     29  C   UNL     1       6.710   3.494  -2.934  0.00  0.00    +0.010 A 
ATOM     30  C   UNL     1       6.580   4.795  -3.282  0.00  0.00    +0.001 A 
ATOM     31  C   UNL     1       7.381   5.376  -4.276  0.00  0.00    +0.002 A 
ATOM     32  C   UNL     1       8.326   4.685  -4.947  0.00  0.00    +0.026 A 
ATOM     33  C   UNL     1       8.550   3.309  -4.661  0.00  0.00    +0.043 A 
ATOM     34  N   UNL     1       9.390   2.439  -5.165  0.00  0.00    -0.380 N 
ATOM     35  C   UNL     1       9.190   1.151  -4.491  0.00  0.00    +0.144 C 
ATOM     36  H   UNL     1      10.039   2.617  -5.864  0.00  0.00    +0.160 HD
ENDBRANCH  26  27
ENDBRANCH  25  26
ENDBRANCH  13  25
TORSDOF 5
