REMARK  Name = ZINC36491065
REMARK  9 active torsions:
REMARK  status: ('A' for Active; 'I' for Inactive)
REMARK    1  A    between atoms: C_1  and  C_2
REMARK    2  A    between atoms: C_2  and  C_4
REMARK    3  A    between atoms: C_4  and  O_41
REMARK    4  A    between atoms: C_9  and  C_40
REMARK    5  A    between atoms: N_21  and  O_22
REMARK    6  A    between atoms: O_22  and  C_23
REMARK    7  A    between atoms: C_23  and  C_24
REMARK    8  A    between atoms: N_26  and  C_27
REMARK    9  A    between atoms: C_38  and  C_39
REMARK                            x       y       z     vdW  Elec       q    Type
REMARK                         _______ _______ _______ _____ _____    ______ ____
ROOT
ATOM      1  C   UNL     1       0.345  -0.648  -0.833  0.00  0.00    +0.129 C 
ATOM      2  C   UNL     1       1.807  -0.991  -1.212  0.00  0.00    +0.043 C 
ATOM      3  C   UNL     1       1.900  -2.541  -1.242  0.00  0.00    +0.008 C 
ATOM      4  C   UNL     1       0.753  -2.971  -0.321  0.00  0.00    +0.002 C 
ATOM      5  C   UNL     1      -0.374  -1.990  -0.743  0.00  0.00    +0.007 C 
ATOM      6  C   UNL     1      -1.475  -2.098   0.295  0.00  0.00    +0.010 C 
ATOM      7  C   UNL     1      -2.042  -3.525   0.210  0.00  0.00    +0.005 C 
ATOM      8  C   UNL     1      -0.957  -4.575   0.430  0.00  0.00    +0.002 C 
ATOM      9  C   UNL     1       0.237  -4.384  -0.522  0.00  0.00    -0.003 C 
ATOM     10  C   UNL     1       1.340  -5.394  -0.206  0.00  0.00    +0.008 C 
ATOM     11  C   UNL     1       0.826  -6.820  -0.434  0.00  0.00    +0.031 C 
ATOM     12  C   UNL     1      -0.430  -6.995   0.404  0.00  0.00    -0.062 C 
ATOM     13  C   UNL     1      -0.500  -8.019   1.243  0.00  0.00    +0.026 C 
ATOM     14  C   UNL     1      -1.700  -8.168   2.090  0.00  0.00    +0.080 C 
ATOM     15  N   UNL     1      -2.073  -9.318   2.555  0.00  0.00    -0.089 NA
ATOM     16  C   UNL     1      -2.470  -6.894   2.382  0.00  0.00    +0.059 C 
ATOM     17  C   UNL     1      -2.765  -6.217   1.044  0.00  0.00    +0.017 C 
ATOM     18  C   UNL     1      -1.541  -5.970   0.207  0.00  0.00    -0.007 C 
ATOM     19  C   UNL     1      -1.979  -6.025  -1.258  0.00  0.00    +0.016 C 
ATOM     20  C   UNL     1      -0.915  -2.382  -2.119  0.00  0.00    +0.015 C 
ENDROOT
BRANCH   1  22
ATOM     21  C   UNL     1       0.301   1.564   0.552  0.00  0.00    +0.089 C 
ATOM     22  C   UNL     1       0.302   0.058   0.498  0.00  0.00    +0.162 C 
ATOM     23  O   UNL     1       0.269  -0.583   1.520  0.00  0.00    -0.295 OA
ENDBRANCH   1  22
BRANCH   1  24
ATOM     24  O   UNL     1      -0.253   0.167  -1.844  0.00  0.00    -0.381 OA
ATOM     25  H   UNL     1       0.175   1.026  -1.961  0.00  0.00    +0.211 HD
ENDBRANCH   1  24
BRANCH  15  26
ATOM     26  O   UNL     1      -1.322 -10.481   2.256  0.00  0.00    -0.384 OA
BRANCH  26  27
ATOM     27  C   UNL     1      -1.848 -11.677   2.834  0.00  0.00    +0.358 C 
BRANCH  27  28
ATOM     28  C   UNL     1      -0.975 -12.845   2.453  0.00  0.00    +0.254 C 
ATOM     29  O   UNL     1       0.001 -12.670   1.754  0.00  0.00    -0.272 OA
ATOM     30  N   UNL     1      -1.279 -14.084   2.888  0.00  0.00    -0.301 N 
ATOM     31  H   UNL     1      -2.060 -14.224   3.446  0.00  0.00    +0.150 HD
BRANCH  30  32
ATOM     32  C   UNL     1      -0.431 -15.219   2.517  0.00  0.00    +0.159 C 
ATOM     33  C   UNL     1      -1.180 -16.528   2.777  0.00  0.00    +0.032 C 
ATOM     34  C   UNL     1      -2.064 -16.406   4.005  0.00  0.00    +0.004 C 
ATOM     35  C   UNL     1      -1.292 -16.245   5.302  0.00  0.00    +0.019 C 
ATOM     36  C   UNL     1      -0.559 -14.903   5.338  0.00  0.00    +0.104 C 
ATOM     37  N   UNL     1       0.749 -15.064   4.682  0.00  0.00    -0.314 N 
ATOM     38  C   UNL     1       0.830 -15.207   3.355  0.00  0.00    +0.233 C 
ATOM     39  O   UNL     1       1.912 -15.334   2.822  0.00  0.00    -0.274 OA
ATOM     40  H   UNL     1       1.559 -15.063   5.216  0.00  0.00    +0.149 HD
ENDBRANCH  30  32
ENDBRANCH  27  28
ENDBRANCH  26  27
ENDBRANCH  15  26
TORSDOF 6
