REMARK  Name = ZINC08939674
REMARK  7 active torsions:
REMARK  status: ('A' for Active; 'I' for Inactive)
REMARK    1  A    between atoms: C_1  and  C_2
REMARK    2  A    between atoms: C_5  and  C_7
REMARK    3  A    between atoms: C_7  and  C_8
REMARK    4  A    between atoms: C_15  and  C_16
REMARK    5  A    between atoms: C_15  and  N_66
REMARK    6  A    between atoms: N_18  and  C_19
REMARK    7  A    between atoms: N_18  and  C_25
REMARK                            x       y       z     vdW  Elec       q    Type
REMARK                         _______ _______ _______ _____ _____    ______ ____
ROOT
ATOM      1  C   UNL     1       1.488   3.526  -0.571  0.00  0.00    +0.019 C 
ENDROOT
BRANCH   1   9
ATOM      2  C   UNL     1      -0.534  -0.839   1.939  0.00  0.00    +0.222 C 
ATOM      3  O   UNL     1      -1.520  -1.360   1.462  0.00  0.00    -0.275 OA
ATOM      4  N   UNL     1       0.283  -0.102   1.160  0.00  0.00    -0.305 N 
ATOM      5  C   UNL     1      -0.002   0.082  -0.271  0.00  0.00    +0.089 C 
ATOM      6  C   UNL     1       0.046   1.581  -0.587  0.00  0.00    -0.059 C 
ATOM      7  C   UNL     1       1.474   2.019   1.324  0.00  0.00    -0.059 C 
ATOM      8  C   UNL     1       1.484   0.538   1.719  0.00  0.00    +0.089 C 
ATOM      9  N   UNL     1       1.352   2.117  -0.147  0.00  0.00    +0.387 N 
ATOM     10  H   UNL     1       2.102   1.565  -0.580  0.00  0.00    -0.081 HD
BRANCH   2  11
ATOM     11  C   UNL     1      -0.222  -1.016   3.403  0.00  0.00    +0.158 C 
BRANCH  11  16
ATOM     12  C   UNL     1      -2.349  -5.285   4.910  0.00  0.00    +0.066 C 
ATOM     13  C   UNL     1      -2.326  -3.785   4.765  0.00  0.00    +0.046 A 
ATOM     14  C   UNL     1      -3.345  -3.025   5.240  0.00  0.00    +0.070 A 
ATOM     15  S   UNL     1      -2.772  -1.392   4.791  0.00  0.00    -0.080 S 
ATOM     16  C   UNL     1      -1.282  -1.875   4.042  0.00  0.00    +0.087 A 
ATOM     17  N   UNL     1      -1.318  -3.181   4.170  0.00  0.00    -0.249 NA
ENDBRANCH  11  16
ENDBRANCH   2  11
ENDBRANCH   1   9
BRANCH   1  18
ATOM     18  C   UNL     1       2.780   4.080  -0.027  0.00  0.00    +0.200 C 
ATOM     19  O   UNL     1       3.696   3.331   0.240  0.00  0.00    -0.278 OA
ATOM     20  N   UNL     1       2.917   5.407   0.163  0.00  0.00    -0.295 N 
BRANCH  20  21
ATOM     21  C   UNL     1       1.775   6.300  -0.051  0.00  0.00    +0.099 C 
ATOM     22  C   UNL     1       1.219   6.101  -1.470  0.00  0.00    +0.046 C 
ATOM     23  C   UNL     1      -0.161   6.789  -1.598  0.00  0.00    +0.168 C 
ATOM     24  S   UNL     1      -0.803   6.729   0.125  0.00  0.00    -0.029 S 
ATOM     25  O   UNL     1      -0.965   8.057   0.605  0.00  0.00    -0.174 OA
ATOM     26  O   UNL     1      -1.901   5.828   0.178  0.00  0.00    -0.174 OA
ATOM     27  C   UNL     1       0.646   5.960   0.964  0.00  0.00    +0.188 C 
ENDBRANCH  20  21
BRANCH  20  28
ATOM     28  C   UNL     1       4.208   5.957   0.583  0.00  0.00    +0.076 C 
ATOM     29  C   UNL     1       5.271   5.622  -0.466  0.00  0.00    +0.022 C 
ATOM     30  C   UNL     1       6.619   6.196  -0.028  0.00  0.00    +0.002 C 
ATOM     31  C   UNL     1       7.020   5.587   1.317  0.00  0.00    +0.000 C 
ATOM     32  C   UNL     1       5.958   5.923   2.366  0.00  0.00    +0.002 C 
ATOM     33  C   UNL     1       4.609   5.348   1.928  0.00  0.00    +0.022 C 
ENDBRANCH  20  28
ENDBRANCH   1  18
TORSDOF 6
