REMARK  Name = ZINC12100215
REMARK  12 active torsions:
REMARK  status: ('A' for Active; 'I' for Inactive)
REMARK    1  A    between atoms: C_1  and  C_2
REMARK    2  A    between atoms: C_2  and  C_3
REMARK    3  A    between atoms: C_2  and  C_4
REMARK    4  A    between atoms: C_4  and  C_5
REMARK    5  A    between atoms: C_5  and  C_7
REMARK    6  A    between atoms: C_5  and  N_31
REMARK    7  A    between atoms: C_17  and  C_19
REMARK    8  A    between atoms: C_22  and  C_25
REMARK    9  A    between atoms: C_32  and  C_34
REMARK   10  A    between atoms: C_34  and  N_72
REMARK   11  A    between atoms: C_35  and  N_72
REMARK   12  A    between atoms: C_36  and  N_72
REMARK                            x       y       z     vdW  Elec       q    Type
REMARK                         _______ _______ _______ _____ _____    ______ ____
ROOT
ATOM      1  C   UNL     1       1.004  -0.323  -1.563  0.00  0.00    +0.154 A 
ATOM      2  N   UNL     1       0.760  -0.270  -2.845  0.00  0.00    -0.132 NA
ATOM      3  N   UNL     1       1.765  -0.738  -3.497  0.00  0.00    -0.134 NA
ATOM      4  C   UNL     1       2.697  -1.102  -2.661  0.00  0.00    +0.135 A 
ATOM      5  N   UNL     1       2.234  -0.871  -1.411  0.00  0.00    -0.312 N 
ATOM      6  C   UNL     1       2.883  -1.188  -0.139  0.00  0.00    +0.144 C 
ATOM      7  C   UNL     1       4.405  -1.149  -0.305  0.00  0.00    +0.129 C 
ATOM      8  N   UNL     1       4.859  -2.437  -0.853  0.00  0.00    -0.295 N 
ATOM      9  C   UNL     1       4.329  -2.890  -2.140  0.00  0.00    +0.116 C 
ATOM     10  C   UNL     1       4.051  -1.660  -3.009  0.00  0.00    +0.095 C 
ATOM     11  C   UNL     1       5.750  -3.189  -0.178  0.00  0.00    +0.247 C 
ATOM     12  O   UNL     1       6.267  -2.758   0.835  0.00  0.00    -0.270 OA
ENDROOT
BRANCH  11  13
ATOM     13  C   UNL     1       6.100  -4.538  -0.668  0.00  0.00    +0.037 A 
ATOM     14  C   UNL     1       5.152  -5.298  -1.358  0.00  0.00    +0.013 A 
ATOM     15  C   UNL     1       5.480  -6.553  -1.820  0.00  0.00    +0.009 A 
ATOM     16  C   UNL     1       6.755  -7.070  -1.589  0.00  0.00    -0.018 A 
ATOM     17  C   UNL     1       7.700  -6.314  -0.895  0.00  0.00    +0.009 A 
ATOM     18  C   UNL     1       7.376  -5.057  -0.438  0.00  0.00    +0.013 A 
BRANCH  16  19
ATOM     19  C   UNL     1       7.106  -8.424  -2.082  0.00  0.00    -0.018 A 
ATOM     20  C   UNL     1       8.381  -8.941  -1.858  0.00  0.00    +0.008 A 
ATOM     21  C   UNL     1       8.700 -10.203  -2.316  0.00  0.00    +0.001 A 
ATOM     22  C   UNL     1       7.761 -10.951  -3.004  0.00  0.00    +0.000 A 
ATOM     23  C   UNL     1       6.496 -10.440  -3.233  0.00  0.00    +0.001 A 
ATOM     24  C   UNL     1       6.164  -9.181  -2.776  0.00  0.00    +0.008 A 
ENDBRANCH  16  19
ENDBRANCH  11  13
BRANCH   1  25
ATOM     25  C   UNL     1       0.090   0.143  -0.459  0.00  0.00    +0.141 C 
BRANCH  25  26
ATOM     26  N   UNL     1      -1.273  -0.321  -0.725  0.00  0.00    -0.307 N 
ATOM     27  C   UNL     1      -2.140  -0.483   0.295  0.00  0.00    +0.197 C 
ATOM     28  O   UNL     1      -1.792  -0.244   1.431  0.00  0.00    -0.278 OA
ATOM     29  H   UNL     1      -1.552  -0.513  -1.634  0.00  0.00    +0.149 HD
BRANCH  27  30
ATOM     30  C   UNL     1      -3.543  -0.961   0.022  0.00  0.00    +0.018 C 
BRANCH  30  33
ATOM     31  C   UNL     1      -4.477   0.273   1.883  0.00  0.00    -0.096 C 
ATOM     32  C   UNL     1      -5.570  -1.738   1.095  0.00  0.00    -0.096 C 
ATOM     33  N   UNL     1      -4.268  -1.071   1.305  0.00  0.00    +0.382 N 
ATOM     34  H   UNL     1      -3.707  -1.631   1.958  0.00  0.00    -0.082 HD
ENDBRANCH  30  33
ENDBRANCH  27  30
ENDBRANCH  25  26
BRANCH  25  35
ATOM     35  C   UNL     1       0.105   1.672  -0.397  0.00  0.00    +0.033 C 
BRANCH  35  37
ATOM     36  C   UNL     1      -0.054   1.677   2.096  0.00  0.00    +0.007 C 
ATOM     37  C   UNL     1      -0.723   2.142   0.801  0.00  0.00    -0.015 C 
ATOM     38  C   UNL     1      -0.812   3.669   0.792  0.00  0.00    +0.007 C 
ENDBRANCH  35  37
ENDBRANCH  25  35
ENDBRANCH   1  25
TORSDOF 8
