REMARK  Name = ZINC15778190
REMARK  12 active torsions:
REMARK  status: ('A' for Active; 'I' for Inactive)
REMARK    1  A    between atoms: C_1  and  O_2
REMARK    2  A    between atoms: O_2  and  C_3
REMARK    3  A    between atoms: C_6  and  N_9
REMARK    4  A    between atoms: N_9  and  C_10
REMARK    5  A    between atoms: C_13  and  O_37
REMARK    6  A    between atoms: N_19  and  C_20
REMARK    7  A    between atoms: C_23  and  O_26
REMARK    8  A    between atoms: O_26  and  C_27
REMARK    9  A    between atoms: N_28  and  C_29
REMARK   10  A    between atoms: C_32  and  O_35
REMARK   11  A    between atoms: O_35  and  C_36
REMARK   12  A    between atoms: O_37  and  C_38
REMARK                            x       y       z     vdW  Elec       q    Type
REMARK                         _______ _______ _______ _____ _____    ______ ____
ROOT
ATOM      1  C   UNL     1       4.588   5.866   0.191  0.00  0.00    +0.120 A 
ATOM      2  C   UNL     1       3.675   6.883   0.539  0.00  0.00    +0.043 A 
ATOM      3  C   UNL     1       4.028   8.239   0.462  0.00  0.00    +0.059 A 
ATOM      4  C   UNL     1       3.105   9.200   0.811  0.00  0.00    +0.121 A 
ATOM      5  C   UNL     1       1.827   8.836   1.241  0.00  0.00    +0.048 A 
ATOM      6  C   UNL     1       1.461   7.526   1.324  0.00  0.00    +0.032 A 
ATOM      7  C   UNL     1       2.375   6.520   0.976  0.00  0.00    +0.078 A 
ATOM      8  N   UNL     1       2.038   5.224   1.049  0.00  0.00    -0.213 NA
ATOM      9  C   UNL     1       2.905   4.272   0.719  0.00  0.00    +0.215 A 
ATOM     10  N   UNL     1       2.531   3.000   0.805  0.00  0.00    -0.325 N 
ATOM     11  N   UNL     1       4.183   4.569   0.293  0.00  0.00    -0.267 N 
ATOM     12  H   UNL     1       3.223   2.202   0.499  0.00  0.00    +0.169 HD
ENDROOT
BRANCH  10  13
ATOM     13  C   UNL     1       1.287   2.684   1.275  0.00  0.00    +0.042 A 
ATOM     14  C   UNL     1       1.074   2.531   2.648  0.00  0.00    +0.029 A 
ATOM     15  C   UNL     1      -0.183   2.211   3.117  0.00  0.00    +0.047 A 
ATOM     16  C   UNL     1      -1.235   2.041   2.228  0.00  0.00    +0.120 A 
ATOM     17  C   UNL     1      -1.029   2.191   0.864  0.00  0.00    +0.047 A 
ATOM     18  C   UNL     1       0.224   2.511   0.385  0.00  0.00    +0.029 A 
BRANCH  16  19
ATOM     19  O   UNL     1      -2.473   1.725   2.696  0.00  0.00    -0.495 OA
ATOM     20  C   UNL     1      -3.511   1.564   1.727  0.00  0.00    +0.277 C 
ENDBRANCH  16  19
ENDBRANCH  10  13
BRANCH  11  21
ATOM     21  C   UNL     1       5.066   3.533  -0.039  0.00  0.00    +0.051 A 
ATOM     22  C   UNL     1       5.909   3.664  -1.135  0.00  0.00    +0.030 A 
ATOM     23  C   UNL     1       6.783   2.645  -1.459  0.00  0.00    +0.047 A 
ATOM     24  C   UNL     1       6.811   1.487  -0.696  0.00  0.00    +0.120 A 
ATOM     25  C   UNL     1       5.965   1.353   0.395  0.00  0.00    +0.047 A 
ATOM     26  C   UNL     1       5.094   2.373   0.724  0.00  0.00    +0.030 A 
BRANCH  24  27
ATOM     27  O   UNL     1       7.668   0.482  -1.018  0.00  0.00    -0.495 OA
ATOM     28  C   UNL     1       8.511   0.687  -2.154  0.00  0.00    +0.277 C 
ENDBRANCH  24  27
ENDBRANCH  11  21
BRANCH   1  29
ATOM     29  N   UNL     1       5.846   6.172  -0.233  0.00  0.00    -0.300 N 
ATOM     30  H   UNL     1       6.714   5.657   0.204  0.00  0.00    +0.154 HD
BRANCH  29  34
ATOM     31  C   UNL     1       6.405   9.063  -3.184  0.00  0.00    +0.120 A 
ATOM     32  C   UNL     1       7.428   8.775  -2.292  0.00  0.00    +0.047 A 
ATOM     33  C   UNL     1       7.244   7.818  -1.314  0.00  0.00    +0.027 A 
ATOM     34  C   UNL     1       6.034   7.143  -1.223  0.00  0.00    +0.033 A 
ATOM     35  C   UNL     1       5.011   7.428  -2.120  0.00  0.00    +0.027 A 
ATOM     36  C   UNL     1       5.196   8.389  -3.094  0.00  0.00    +0.047 A 
BRANCH  31  38
ATOM     37  C   UNL     1       5.492  10.250  -5.031  0.00  0.00    +0.277 C 
ATOM     38  O   UNL     1       6.587  10.005  -4.147  0.00  0.00    -0.495 OA
ENDBRANCH  31  38
ENDBRANCH  29  34
ENDBRANCH   1  29
BRANCH   4  39
ATOM     39  O   UNL     1       3.442  10.515   0.738  0.00  0.00    -0.495 OA
ATOM     40  C   UNL     1       2.441  11.464   1.113  0.00  0.00    +0.277 C 
ENDBRANCH   4  39
TORSDOF 8
