REMARK  Name = ZINC66975940
REMARK  6 active torsions:
REMARK  status: ('A' for Active; 'I' for Inactive)
REMARK    1  A    between atoms: C_1  and  C_2
REMARK    2  A    between atoms: C_7  and  N_12
REMARK    3  A    between atoms: C_9  and  C_11
REMARK    4  A    between atoms: C_18  and  N_21
REMARK    5  A    between atoms: C_22  and  C_24
REMARK    6  A    between atoms: C_24  and  C_25
REMARK                            x       y       z     vdW  Elec       q    Type
REMARK                         _______ _______ _______ _____ _____    ______ ____
ROOT
ATOM      1  N   UNL     1       0.734  -0.503   3.687  0.00  0.00    -0.296 N 
ATOM      2  C   UNL     1       0.634   0.166   4.853  0.00  0.00    +0.302 C 
ATOM      3  O   UNL     1       0.031   1.221   4.898  0.00  0.00    -0.253 OA
ATOM      4  N   UNL     1       1.202  -0.333   5.968  0.00  0.00    -0.286 N 
ATOM      5  C   UNL     1       2.031  -1.545   5.907  0.00  0.00    +0.111 C 
ATOM      6  C   UNL     1       1.497  -2.559   6.924  0.00  0.00    +0.041 C 
ATOM      7  C   UNL     1       1.438  -1.907   8.307  0.00  0.00    +0.076 C 
ATOM      8  C   UNL     1       0.482  -0.712   8.269  0.00  0.00    +0.041 C 
ATOM      9  C   UNL     1       1.009   0.326   7.267  0.00  0.00    +0.111 C 
ATOM     10  H   UNL     1       1.276  -1.306   3.634  0.00  0.00    +0.151 HD
ENDROOT
BRANCH   1  16
ATOM     11  C   UNL     1      -0.024   1.523   0.011  0.00  0.00    +0.008 C 
ATOM     12  C   UNL     1      -0.003  -0.006   0.003  0.00  0.00    -0.009 C 
ATOM     13  C   UNL     1      -1.438  -0.537   0.015  0.00  0.00    +0.003 C 
ATOM     14  C   UNL     1      -2.153  -0.043   1.274  0.00  0.00    +0.002 C 
ATOM     15  C   UNL     1      -1.411  -0.549   2.514  0.00  0.00    +0.022 C 
ATOM     16  C   UNL     1       0.024  -0.019   2.501  0.00  0.00    +0.078 C 
ATOM     17  C   UNL     1       0.739  -0.512   1.242  0.00  0.00    +0.009 C 
ATOM     18  C   UNL     1       2.174   0.018   1.229  0.00  0.00    +0.009 C 
ENDBRANCH   1  16
BRANCH   7  19
ATOM     19  N   UNL     1       0.959  -2.884   9.288  0.00  0.00    -0.312 N 
ATOM     20  C   UNL     1       1.283  -2.747  10.589  0.00  0.00    +0.214 C 
ATOM     21  O   UNL     1       1.970  -1.814  10.948  0.00  0.00    -0.276 OA
ATOM     22  H   UNL     1       0.410  -3.630   9.000  0.00  0.00    +0.149 HD
BRANCH  20  23
ATOM     23  C   UNL     1       0.790  -3.752  11.598  0.00  0.00    +0.099 C 
BRANCH  23  24
ATOM     24  C   UNL     1       1.295  -3.367  12.990  0.00  0.00    -0.002 C 
ATOM     25  C   UNL     1       0.579  -2.089  13.492  0.00  0.00    +0.004 C 
ATOM     26  C   UNL     1       0.721  -2.200  15.030  0.00  0.00    +0.000 C 
ATOM     27  C   UNL     1       0.545  -3.705  15.319  0.00  0.00    +0.000 C 
ATOM     28  C   UNL     1       0.910  -4.447  14.021  0.00  0.00    +0.004 C 
ENDBRANCH  23  24
ENDBRANCH  20  23
ENDBRANCH   7  19
TORSDOF 4
