REMARK  Name = ZINC03843806
REMARK  4 active torsions:
REMARK  status: ('A' for Active; 'I' for Inactive)
REMARK    1  A    between atoms: C_1  and  C_2
REMARK    2  A    between atoms: C_6  and  O_24
REMARK    3  A    between atoms: C_13  and  O_23
REMARK    4  A    between atoms: C_17  and  C_22
REMARK                            x       y       z     vdW  Elec       q    Type
REMARK                         _______ _______ _______ _____ _____    ______ ____
ROOT
ATOM      1  C   UNL     1       0.316  -4.835   2.474  0.00  0.00    +0.014 C 
ATOM      2  C   UNL     1       0.851  -4.896   1.043  0.00  0.00    -0.003 C 
ATOM      3  C   UNL     1       0.514  -6.307   0.510  0.00  0.00    +0.009 C 
ATOM      4  C   UNL     1      -0.998  -6.218   0.182  0.00  0.00    +0.003 C 
ATOM      5  C   UNL     1      -1.353  -4.706   0.155  0.00  0.00    +0.035 C 
ATOM      6  C   UNL     1       0.028  -4.027   0.070  0.00  0.00    +0.075 C 
ATOM      7  C   UNL     1       0.042  -2.558   0.456  0.00  0.00    +0.029 C 
ATOM      8  C   UNL     1      -0.056  -1.734  -0.832  0.00  0.00    +0.033 C 
ATOM      9  C   UNL     1       0.233  -0.286  -0.586  0.00  0.00    -0.027 C 
ATOM     10  C   UNL     1       1.003   0.130   0.371  0.00  0.00    -0.065 C 
ATOM     11  C   UNL     1       1.283   1.619   0.493  0.00  0.00    +0.062 C 
ATOM     12  C   UNL     1       2.803   1.807   0.520  0.00  0.00    +0.119 C 
ATOM     13  C   UNL     1       3.415   0.972   1.642  0.00  0.00    +0.032 C 
ATOM     14  C   UNL     1       3.139  -0.513   1.430  0.00  0.00    +0.014 C 
ATOM     15  C   UNL     1       1.635  -0.782   1.376  0.00  0.00    -0.008 C 
ATOM     16  C   UNL     1       1.338  -2.247   1.190  0.00  0.00    +0.005 C 
ATOM     17  C   UNL     1       2.495  -3.060   0.626  0.00  0.00    +0.005 C 
ATOM     18  C   UNL     1       2.316  -4.544   0.994  0.00  0.00    +0.010 C 
ATOM     19  C   UNL     1       1.051  -0.407   2.751  0.00  0.00    +0.016 C 
ENDROOT
BRANCH  12  20
ATOM     20  O   UNL     1       3.354   1.403  -0.735  0.00  0.00    -0.391 OA
ATOM     21  H   UNL     1       3.018   1.903  -1.492  0.00  0.00    +0.210 HD
ENDBRANCH  12  20
BRANCH   6  22
ATOM     22  O   UNL     1       0.527  -4.194  -1.267  0.00  0.00    -0.388 OA
ATOM     23  H   UNL     1       0.054  -3.675  -1.931  0.00  0.00    +0.210 HD
ENDBRANCH   6  22
TORSDOF 2
