REMARK  Name = ZINC63428118
REMARK  3 active torsions:
REMARK  status: ('A' for Active; 'I' for Inactive)
REMARK    1  A    between atoms: C_3  and  C_6
REMARK    2  A    between atoms: C_8  and  C_11
REMARK    3  A    between atoms: N_17  and  C_18
REMARK                            x       y       z     vdW  Elec       q    Type
REMARK                         _______ _______ _______ _____ _____    ______ ____
ROOT
ATOM      1  C   UNL     1       6.622  -1.347  -0.080  0.00  0.00    +0.048 C 
ATOM      2  C   UNL     1       6.156  -2.620   0.015  0.00  0.00    +0.081 C 
ATOM      3  C   UNL     1       4.764  -3.120   0.040  0.00  0.00    +0.276 C 
ATOM      4  O   UNL     1       3.807  -2.365  -0.029  0.00  0.00    -0.267 OA
ATOM      5  N   UNL     1       4.613  -4.423   0.140  0.00  0.00    -0.154 NA
ATOM      6  C   UNL     1       5.641  -5.253   0.215  0.00  0.00    +0.152 C 
ATOM      7  N   UNL     1       5.626  -6.620   0.322  0.00  0.00    -0.322 N 
ATOM      8  S   UNL     1       7.053  -4.162   0.136  0.00  0.00    -0.052 S 
ATOM      9  H   UNL     1       6.460  -7.112   0.368  0.00  0.00    +0.148 HD
ENDROOT
BRANCH   1  12
ATOM     10  C   UNL     1       3.624   0.534  -0.901  0.00  0.00    +0.144 A 
ATOM     11  N   UNL     1       4.423  -0.491  -0.650  0.00  0.00    -0.236 NA
ATOM     12  C   UNL     1       5.696  -0.247  -0.366  0.00  0.00    +0.073 A 
ATOM     13  C   UNL     1       6.132   1.066  -0.346  0.00  0.00    +0.075 A 
ATOM     14  S   UNL     1       4.735   1.920  -0.734  0.00  0.00    -0.072 S 
BRANCH  10  17
ATOM     15  C   UNL     1       0.128   1.164  -1.766  0.00  0.00    +0.042 A 
ATOM     16  C   UNL     1       1.427   1.630  -1.491  0.00  0.00    +0.052 A 
ATOM     17  C   UNL     1       2.192   0.531  -1.237  0.00  0.00    +0.160 A 
ATOM     18  O   UNL     1       1.408  -0.559  -1.349  0.00  0.00    -0.461 OA
ATOM     19  C   UNL     1       0.160  -0.180  -1.668  0.00  0.00    +0.196 A 
ENDBRANCH  10  17
ENDBRANCH   1  12
BRANCH   7  20
ATOM     20  C   UNL     1       4.349  -7.337   0.365  0.00  0.00    +0.072 C 
ATOM     21  C   UNL     1       3.848  -7.435   1.821  0.00  0.00    +0.022 C 
ATOM     22  C   UNL     1       3.199  -8.839   1.905  0.00  0.00    +0.002 C 
ATOM     23  C   UNL     1       4.145  -9.705   1.037  0.00  0.00    +0.002 C 
ATOM     24  C   UNL     1       4.538  -8.780  -0.133  0.00  0.00    +0.022 C 
ENDBRANCH   7  20
TORSDOF 3
