REMARK  Name = ZINC39855514
REMARK  6 active torsions:
REMARK  status: ('A' for Active; 'I' for Inactive)
REMARK    1  A    between atoms: C_1  and  C_2
REMARK    2  A    between atoms: C_6  and  C_7
REMARK    3  A    between atoms: N_9  and  C_10
REMARK    4  A    between atoms: C_18  and  C_23
REMARK    5  A    between atoms: C_18  and  C_24
REMARK    6  A    between atoms: C_20  and  O_22
REMARK                            x       y       z     vdW  Elec       q    Type
REMARK                         _______ _______ _______ _____ _____    ______ ____
ROOT
ATOM      1  C   UNL     1      -0.901   0.523   0.284  0.00  0.00    +0.048 C 
ATOM      2  C   UNL     1      -0.542  -0.877  -0.142  0.00  0.00    +0.006 A 
ATOM      3  C   UNL     1      -0.409  -1.343  -1.451  0.00  0.00    +0.025 A 
ATOM      4  C   UNL     1      -0.078  -2.656  -1.383  0.00  0.00    +0.112 A 
ATOM      5  O   UNL     1      -0.006  -3.011  -0.098  0.00  0.00    -0.454 OA
ATOM      6  C   UNL     1      -0.278  -1.940   0.678  0.00  0.00    +0.193 A 
ATOM      7  C   UNL     1       0.161  -3.526  -2.594  0.00  0.00    +0.081 C 
ATOM      8  C   UNL     1       0.381  -2.616  -3.809  0.00  0.00    -0.025 C 
ATOM      9  C   UNL     1      -0.744  -1.580  -3.883  0.00  0.00    +0.043 C 
ATOM     10  C   UNL     1      -0.589  -0.575  -2.735  0.00  0.00    +0.149 C 
ATOM     11  C   UNL     1       0.381  -3.461  -5.084  0.00  0.00    +0.011 C 
ATOM     12  C   UNL     1       1.725  -1.899  -3.672  0.00  0.00    +0.011 C 
ENDROOT
BRANCH   6  13
ATOM     13  C   UNL     1      -0.292  -1.920   2.144  0.00  0.00    +0.284 C 
ATOM     14  O   UNL     1      -0.556  -0.890   2.737  0.00  0.00    -0.266 OA
ATOM     15  N   UNL     1      -0.012  -3.042   2.836  0.00  0.00    -0.278 N 
ATOM     16  H   UNL     1       0.243  -3.851   2.365  0.00  0.00    +0.155 HD
BRANCH  15  17
ATOM     17  C   UNL     1      -0.090  -3.041   4.232  0.00  0.00    +0.048 A 
ATOM     18  C   UNL     1       0.257  -1.902   4.948  0.00  0.00    +0.024 A 
ATOM     19  C   UNL     1       0.178  -1.903   6.327  0.00  0.00    +0.002 A 
ATOM     20  C   UNL     1      -0.244  -3.037   6.996  0.00  0.00    +0.001 A 
ATOM     21  C   UNL     1      -0.590  -4.173   6.287  0.00  0.00    +0.017 A 
ATOM     22  C   UNL     1      -0.519  -4.177   4.907  0.00  0.00    +0.039 A 
ATOM     23 BR   UNL     1      -1.000  -5.728   3.939  0.00  0.00    -0.048 Br
ENDBRANCH  15  17
ENDBRANCH   6  13
BRANCH  10  24
ATOM     24  O   UNL     1      -1.759   0.241  -2.648  0.00  0.00    -0.387 OA
ATOM     25  H   UNL     1      -1.681   0.975  -2.022  0.00  0.00    +0.210 HD
ENDBRANCH  10  24
TORSDOF 3
