REMARK  Name = ZINC39597678
REMARK  5 active torsions:
REMARK  status: ('A' for Active; 'I' for Inactive)
REMARK    1  A    between atoms: C_4  and  C_7
REMARK    2  A    between atoms: C_11  and  C_20
REMARK    3  A    between atoms: N_22  and  C_23
REMARK    4  A    between atoms: C_23  and  C_24
REMARK    5  A    between atoms: C_24  and  C_25
REMARK                            x       y       z     vdW  Elec       q    Type
REMARK                         _______ _______ _______ _____ _____    ______ ____
ROOT
ATOM      1  C   UNL     1       3.693  -0.684  -0.038  0.00  0.00    +0.247 C 
ATOM      2  O   UNL     1       4.732  -0.063  -0.153  0.00  0.00    -0.270 OA
ATOM      3  N   UNL     1       3.719  -2.028   0.057  0.00  0.00    -0.296 N 
ATOM      4  C   UNL     1       2.566  -2.960   0.074  0.00  0.00    +0.121 C 
ATOM      5  C   UNL     1       3.027  -4.167  -0.773  0.00  0.00    +0.100 C 
ATOM      6  C   UNL     1       4.563  -4.130  -0.706  0.00  0.00    -0.004 C 
ATOM      7  C   UNL     1       4.906  -2.910   0.161  0.00  0.00    +0.115 C 
ATOM      8  C   UNL     1       5.149  -3.957  -2.104  0.00  0.00    -0.010 C 
ATOM      9  C   UNL     1       6.678  -3.980  -2.018  0.00  0.00    -0.082 C 
ATOM     10  N   UNL     1       7.118  -5.253  -1.435  0.00  0.00    +0.379 N 
ATOM     11  C   UNL     1       6.627  -5.369  -0.056  0.00  0.00    -0.082 C 
ATOM     12  C   UNL     1       5.096  -5.405  -0.059  0.00  0.00    -0.010 C 
ATOM     13  H   UNL     1       6.755  -6.017  -1.985  0.00  0.00    -0.086 HD
ATOM     14  H   UNL     1       8.126  -5.291  -1.435  0.00  0.00    -0.086 HD
ENDROOT
BRANCH   1  18
ATOM     15  C   UNL     1      -0.017   1.382   0.065  0.00  0.00    +0.000 A 
ATOM     16  C   UNL     1       1.078   1.962  -0.552  0.00  0.00    +0.001 A 
ATOM     17  C   UNL     1       2.285   1.296  -0.589  0.00  0.00    +0.013 A 
ATOM     18  C   UNL     1       2.402   0.035  -0.002  0.00  0.00    +0.037 A 
ATOM     19  C   UNL     1       1.294  -0.544   0.619  0.00  0.00    +0.013 A 
ATOM     20  C   UNL     1       0.092   0.133   0.649  0.00  0.00    +0.001 A 
ENDBRANCH   1  18
BRANCH   5  21
ATOM     21  C   UNL     1       2.505  -5.452  -0.183  0.00  0.00    +0.218 C 
ATOM     22  O   UNL     1       2.237  -5.511   0.998  0.00  0.00    -0.275 OA
ATOM     23  N   UNL     1       2.337  -6.534  -0.968  0.00  0.00    -0.315 N 
ATOM     24  H   UNL     1       2.551  -6.486  -1.913  0.00  0.00    +0.149 HD
BRANCH  23  25
ATOM     25  C   UNL     1       1.829  -7.783  -0.394  0.00  0.00    +0.109 C 
BRANCH  25  26
ATOM     26  C   UNL     1       1.733  -8.846  -1.491  0.00  0.00    +0.056 C 
BRANCH  26  27
ATOM     27  C   UNL     1       1.210 -10.130  -0.901  0.00  0.00    -0.021 A 
ATOM     28  C   UNL     1      -0.196 -10.489  -0.700  0.00  0.00    +0.003 A 
ATOM     29  C   UNL     1      -1.407  -9.844  -0.954  0.00  0.00    +0.010 A 
ATOM     30  C   UNL     1      -2.584 -10.464  -0.643  0.00  0.00    +0.001 A 
ATOM     31  C   UNL     1      -2.585 -11.731  -0.076  0.00  0.00    +0.002 A 
ATOM     32  C   UNL     1      -1.401 -12.386   0.183  0.00  0.00    +0.026 A 
ATOM     33  C   UNL     1      -0.191 -11.773  -0.125  0.00  0.00    +0.047 A 
ATOM     34  N   UNL     1       1.126 -12.154   0.007  0.00  0.00    -0.360 N 
ATOM     35  C   UNL     1       1.946 -11.166  -0.465  0.00  0.00    +0.087 A 
ATOM     36  H   UNL     1       1.427 -12.999   0.377  0.00  0.00    +0.165 HD
ENDBRANCH  26  27
ENDBRANCH  25  26
ENDBRANCH  23  25
ENDBRANCH   5  21
TORSDOF 5
