REMARK  Name = ZINC33663866
REMARK  17 active torsions:
REMARK  status: ('A' for Active; 'I' for Inactive)
REMARK    1  A    between atoms: C_1  and  C_2
REMARK    2  A    between atoms: C_5  and  C_11
REMARK    3  A    between atoms: C_7  and  N_8
REMARK    4  A    between atoms: N_13  and  C_14
REMARK    5  A    between atoms: N_13  and  C_21
REMARK    6  A    between atoms: C_14  and  C_15
REMARK    7  A    between atoms: C_15  and  C_16
REMARK    8  A    between atoms: C_16  and  C_17
REMARK    9  A    between atoms: C_17  and  C_18
REMARK   10  A    between atoms: C_18  and  C_19
REMARK   11  A    between atoms: C_19  and  N_20
REMARK   12  A    between atoms: C_21  and  C_23
REMARK   13  A    between atoms: C_21  and  C_24
REMARK   14  A    between atoms: N_34  and  C_35
REMARK   15  A    between atoms: C_35  and  C_36
REMARK   16  A    between atoms: C_36  and  O_37
REMARK   17  A    between atoms: O_37  and  C_38
REMARK                            x       y       z     vdW  Elec       q    Type
REMARK                         _______ _______ _______ _____ _____    ______ ____
ROOT
ATOM      1  C   UNL     1       1.157   3.516   0.935  0.00  0.00    +0.247 C 
ATOM      2  O   UNL     1       0.478   4.348   1.504  0.00  0.00    -0.270 OA
ATOM      3  N   UNL     1       0.927   3.231  -0.362  0.00  0.00    -0.288 N 
ENDROOT
BRANCH   1   8
ATOM      4  C   UNL     1       5.354   0.794   3.780  0.00  0.00    +0.046 C 
ATOM      5  C   UNL     1       4.255   1.507   3.035  0.00  0.00    -0.020 A 
ATOM      6  C   UNL     1       3.451   0.804   2.155  0.00  0.00    +0.006 A 
ATOM      7  C   UNL     1       2.440   1.449   1.474  0.00  0.00    +0.013 A 
ATOM      8  C   UNL     1       2.235   2.817   1.666  0.00  0.00    +0.039 A 
ATOM      9  C   UNL     1       3.050   3.520   2.555  0.00  0.00    +0.046 A 
ATOM     10  C   UNL     1       4.054   2.861   3.234  0.00  0.00    +0.130 A 
BRANCH  10  11
ATOM     11  N   UNL     1       4.919   3.605   4.177  0.00  0.00    +0.057 N 
ATOM     12  O   UNL     1       4.718   4.788   4.383  0.00  0.00    -0.126 OA
ATOM     13  O   UNL     1       5.832   3.034   4.747  0.00  0.00    -0.126 OA
ENDBRANCH  10  11
ENDBRANCH   1   8
BRANCH   3  14
ATOM     14  C   UNL     1       1.194   1.885  -0.874  0.00  0.00    +0.139 C 
ATOM     15  C   UNL     1       0.265   0.884  -0.184  0.00  0.00    +0.036 C 
BRANCH  14  16
ATOM     16  C   UNL     1       2.628   1.515  -0.595  0.00  0.00    +0.133 A 
ATOM     17  N   UNL     1       3.419   2.431  -0.124  0.00  0.00    -0.232 NA
ATOM     18  C   UNL     1       4.722   2.171   0.152  0.00  0.00    +0.078 A 
ATOM     19  C   UNL     1       5.573   3.156   0.659  0.00  0.00    +0.028 A 
ATOM     20  C   UNL     1       6.888   2.848   0.925  0.00  0.00    +0.002 A 
ATOM     21  C   UNL     1       7.380   1.570   0.696  0.00  0.00    +0.001 A 
ATOM     22  C   UNL     1       6.560   0.582   0.197  0.00  0.00    +0.015 A 
ATOM     23  C   UNL     1       5.226   0.873  -0.080  0.00  0.00    +0.065 A 
ATOM     24  C   UNL     1       4.303  -0.141  -0.613  0.00  0.00    +0.262 A 
ATOM     25  O   UNL     1       4.674  -1.279  -0.836  0.00  0.00    -0.267 OA
ATOM     26  N   UNL     1       3.025   0.240  -0.842  0.00  0.00    -0.292 N 
BRANCH  26  27
ATOM     27  C   UNL     1       2.062  -0.731  -1.368  0.00  0.00    +0.154 C 
BRANCH  27  28
ATOM     28  C   UNL     1       2.091  -0.702  -2.897  0.00  0.00    +0.181 C 
BRANCH  28  29
ATOM     29  O   UNL     1       3.368  -1.149  -3.358  0.00  0.00    -0.381 OA
ATOM     30  C   UNL     1       3.502  -1.160  -4.780  0.00  0.00    +0.194 C 
ENDBRANCH  28  29
ENDBRANCH  27  28
ENDBRANCH  26  27
ENDBRANCH  14  16
ENDBRANCH   3  14
BRANCH   3  31
ATOM     31  C   UNL     1       0.411   4.268  -1.260  0.00  0.00    +0.109 C 
BRANCH  31  32
ATOM     32  C   UNL     1      -1.114   4.319  -1.155  0.00  0.00    +0.019 C 
BRANCH  32  33
ATOM     33  C   UNL     1      -1.653   5.402  -2.093  0.00  0.00    +0.001 C 
BRANCH  33  34
ATOM     34  C   UNL     1      -3.179   5.453  -1.989  0.00  0.00    -0.002 C 
BRANCH  34  35
ATOM     35  C   UNL     1      -3.718   6.536  -2.926  0.00  0.00    -0.020 C 
BRANCH  35  36
ATOM     36  C   UNL     1      -5.243   6.587  -2.822  0.00  0.00    -0.086 C 
BRANCH  36  37
ATOM     37  N   UNL     1      -5.761   7.626  -3.722  0.00  0.00    +0.378 N 
ATOM     38  H   UNL     1      -6.858   7.663  -3.647  0.00  0.00    -0.090 HD
ATOM     39  H   UNL     1      -5.472   7.392  -4.757  0.00  0.00    -0.090 HD
ATOM     40  H   UNL     1      -5.341   8.602  -3.435  0.00  0.00    -0.090 HD
ENDBRANCH  36  37
ENDBRANCH  35  36
ENDBRANCH  34  35
ENDBRANCH  33  34
ENDBRANCH  32  33
ENDBRANCH  31  32
ENDBRANCH   3  31
TORSDOF 14
