REMARK  Name = ZINC26123668
REMARK  13 active torsions:
REMARK  status: ('A' for Active; 'I' for Inactive)
REMARK    1  A    between atoms: C_1  and  C_2
REMARK    2  A    between atoms: C_2  and  C_4
REMARK    3  A    between atoms: C_2  and  S_17
REMARK    4  A    between atoms: N_6  and  C_7
REMARK    5  A    between atoms: S_17  and  C_18
REMARK    6  A    between atoms: C_21  and  C_24
REMARK    7  A    between atoms: N_22  and  N_23
REMARK    8  A    between atoms: C_24  and  O_25
REMARK    9  A    between atoms: O_25  and  C_26
REMARK   10  A    between atoms: C_29  and  C_32
REMARK   11  A    between atoms: C_32  and  C_33
REMARK   12  A    between atoms: C_32  and  C_34
REMARK   13  A    between atoms: C_32  and  C_35
REMARK                            x       y       z     vdW  Elec       q    Type
REMARK                         _______ _______ _______ _____ _____    ______ ____
ROOT
ATOM      1  C   UNL     1      -3.419   9.580  -1.615  0.00  0.00    +0.209 A 
ATOM      2  N   UNL     1      -2.510  10.182  -0.882  0.00  0.00    -0.121 NA
ATOM      3  N   UNL     1      -2.718  11.450  -0.884  0.00  0.00    -0.128 NA
ATOM      4  C   UNL     1      -3.762  11.732  -1.611  0.00  0.00    +0.189 A 
ATOM      5  N   UNL     1      -4.243  10.552  -2.107  0.00  0.00    -0.225 N 
ENDROOT
BRANCH   5   6
ATOM      6  N   UNL     1      -5.324  10.380  -2.924  0.00  0.00    -0.295 N 
ATOM      7  H   UNL     1      -5.909  11.252  -3.253  0.00  0.00    +0.163 HD
ATOM      8  H   UNL     1      -5.610   9.370  -3.253  0.00  0.00    +0.163 HD
ENDBRANCH   5   6
BRANCH   1   9
ATOM      9  S   UNL     1      -3.547   7.848  -1.912  0.00  0.00    -0.072 S 
BRANCH   9  11
ATOM     10  C   UNL     1      -0.838   7.790  -1.569  0.00  0.00    +0.029 C 
ATOM     11  C   UNL     1      -2.132   7.259  -0.950  0.00  0.00    +0.137 C 
BRANCH  11  12
ATOM     12  C   UNL     1      -2.112   5.752  -0.958  0.00  0.00    +0.227 C 
ATOM     13  O   UNL     1      -2.637   5.143  -1.866  0.00  0.00    -0.275 OA
ATOM     14  N   UNL     1      -1.510   5.081   0.044  0.00  0.00    -0.309 N 
ATOM     15  H   UNL     1      -1.033   5.633   0.867  0.00  0.00    +0.149 HD
BRANCH  14  16
ATOM     16  C   UNL     1      -1.490   3.616   0.036  0.00  0.00    +0.035 C 
ATOM     17  C   UNL     1      -0.773   3.123  -1.223  0.00  0.00    +0.029 C 
ATOM     18  C   UNL     1      -0.753   1.593  -1.232  0.00  0.00    -0.008 C 
ATOM     19  C   UNL     1      -0.013   1.086   0.008  0.00  0.00    +0.007 C 
ATOM     20  C   UNL     1      -0.729   1.579   1.267  0.00  0.00    -0.008 C 
ATOM     21  C   UNL     1      -0.750   3.109   1.275  0.00  0.00    +0.029 C 
ATOM     22  C   UNL     1      -2.164   1.050   1.278  0.00  0.00    +0.007 C 
ATOM     23  C   UNL     1      -2.904   1.556   0.038  0.00  0.00    -0.008 C 
ATOM     24  C   UNL     1      -2.188   1.063  -1.221  0.00  0.00    +0.007 C 
ATOM     25  C   UNL     1      -2.925   3.086   0.047  0.00  0.00    +0.029 C 
ENDBRANCH  14  16
ENDBRANCH  11  12
ENDBRANCH   9  11
ENDBRANCH   1   9
BRANCH   4  26
ATOM     26  C   UNL     1      -4.330  13.105  -1.863  0.00  0.00    +0.306 C 
BRANCH  26  27
ATOM     27  O   UNL     1      -3.720  13.666  -3.027  0.00  0.00    -0.484 OA
BRANCH  27  28
ATOM     28  C   UNL     1      -4.123  14.910  -3.396  0.00  0.00    +0.121 A 
ATOM     29  C   UNL     1      -5.091  15.575  -2.657  0.00  0.00    +0.046 A 
ATOM     30  C   UNL     1      -5.495  16.842  -3.030  0.00  0.00    +0.008 A 
ATOM     31  C   UNL     1      -4.945  17.443  -4.147  0.00  0.00    -0.042 A 
ATOM     32  C   UNL     1      -3.985  16.781  -4.889  0.00  0.00    +0.008 A 
ATOM     33  C   UNL     1      -3.572  15.516  -4.516  0.00  0.00    +0.046 A 
BRANCH  31  34
ATOM     34  C   UNL     1      -5.393  18.823  -4.556  0.00  0.00    -0.013 C 
ATOM     35  C   UNL     1      -5.985  18.769  -5.966  0.00  0.00    +0.015 C 
ATOM     36  C   UNL     1      -6.454  19.326  -3.576  0.00  0.00    +0.015 C 
ATOM     37  C   UNL     1      -4.194  19.773  -4.542  0.00  0.00    +0.015 C 
ENDBRANCH  31  34
ENDBRANCH  27  28
ENDBRANCH  26  27
ENDBRANCH   4  26
TORSDOF 9
