REMARK  Name = ZINC40399470
REMARK  5 active torsions:
REMARK  status: ('A' for Active; 'I' for Inactive)
REMARK    1  A    between atoms: C_4  and  C_7
REMARK    2  A    between atoms: C_7  and  C_8
REMARK    3  A    between atoms: C_8  and  N_9
REMARK    4  A    between atoms: C_10  and  C_12
REMARK    5  A    between atoms: N_26  and  C_27
REMARK                            x       y       z     vdW  Elec       q    Type
REMARK                         _______ _______ _______ _____ _____    ______ ____
ROOT
ATOM      1  C   UNL     1       7.364  -2.715   2.528  0.00  0.00    +0.122 C 
ATOM      2  C   UNL     1       8.385  -1.939   1.694  0.00  0.00    +0.114 C 
ATOM      3  C   UNL     1       9.760  -2.515   1.912  0.00  0.00    +0.219 C 
ATOM      4  O   UNL     1      10.538  -2.580   0.984  0.00  0.00    -0.275 OA
ATOM      5  N   UNL     1      10.133  -2.957   3.125  0.00  0.00    -0.270 N 
ATOM      6  C   UNL     1       9.234  -2.993   4.177  0.00  0.00    +0.138 A 
ATOM      7  C   UNL     1       7.877  -2.868   3.935  0.00  0.00    +0.069 A 
ATOM      8  C   UNL     1       6.989  -2.887   5.015  0.00  0.00    +0.258 A 
ATOM      9  O   UNL     1       5.788  -2.767   4.835  0.00  0.00    -0.267 OA
ATOM     10  N   UNL     1       7.488  -3.040   6.260  0.00  0.00    -0.295 N 
ATOM     11  H   UNL     1       6.891  -3.041   7.025  0.00  0.00    +0.172 HD
ATOM     12  C   UNL     1       8.828  -3.195   6.444  0.00  0.00    +0.202 A 
ATOM     13  N   UNL     1       9.667  -3.175   5.430  0.00  0.00    -0.200 NA
ATOM     14  N   UNL     1       9.314  -3.375   7.713  0.00  0.00    -0.285 N 
ATOM     15  H   UNL     1      11.046  -3.255   3.266  0.00  0.00    +0.156 HD
ATOM     16  H   UNL     1       8.701  -3.476   8.457  0.00  0.00    +0.155 HD
ENDROOT
BRANCH  14  17
ATOM     17  C   UNL     1      10.695  -3.413   7.933  0.00  0.00    +0.036 A 
ATOM     18  C   UNL     1      11.543  -2.617   7.174  0.00  0.00    +0.043 A 
ATOM     19  C   UNL     1      12.907  -2.656   7.395  0.00  0.00    +0.044 A 
ATOM     20  C   UNL     1      13.428  -3.487   8.371  0.00  0.00    +0.040 A 
ATOM     21  C   UNL     1      12.585  -4.282   9.128  0.00  0.00    +0.044 A 
ATOM     22  C   UNL     1      11.220  -4.242   8.916  0.00  0.00    +0.043 A 
ATOM     23 CL   UNL     1      13.242  -5.324  10.351  0.00  0.00    -0.083 Cl
ATOM     24 CL   UNL     1      13.967  -1.661   6.446  0.00  0.00    -0.083 Cl
ENDBRANCH  14  17
BRANCH   1  26
ATOM     25  N   UNL     1       4.960  -2.504   1.985  0.00  0.00    -0.314 N 
ATOM     26  C   UNL     1       6.059  -1.963   2.549  0.00  0.00    +0.221 C 
ATOM     27  O   UNL     1       5.995  -0.872   3.074  0.00  0.00    -0.275 OA
ATOM     28  H   UNL     1       5.011  -3.377   1.566  0.00  0.00    +0.149 HD
BRANCH  25  29
ATOM     29  C   UNL     1       3.691  -1.774   2.006  0.00  0.00    +0.109 C 
BRANCH  29  30
ATOM     30  C   UNL     1       2.614  -2.603   1.304  0.00  0.00    +0.054 C 
BRANCH  30  34
ATOM     31  C   UNL     1      -1.089  -0.474   1.363  0.00  0.00    +0.000 A 
ATOM     32  C   UNL     1      -0.209  -0.301   0.311  0.00  0.00    +0.000 A 
ATOM     33  C   UNL     1       0.990  -0.990   0.292  0.00  0.00    +0.004 A 
ATOM     34  C   UNL     1       1.308  -1.851   1.325  0.00  0.00    -0.046 A 
ATOM     35  C   UNL     1       0.428  -2.024   2.377  0.00  0.00    +0.004 A 
ATOM     36  C   UNL     1      -0.771  -1.337   2.395  0.00  0.00    +0.000 A 
ENDBRANCH  30  34
ENDBRANCH  29  30
ENDBRANCH  25  29
ENDBRANCH   1  26
TORSDOF 5
