REMARK  Name = ZINC09442934
REMARK  10 active torsions:
REMARK  status: ('A' for Active; 'I' for Inactive)
REMARK    1  A    between atoms: C_1  and  C_2
REMARK    2  A    between atoms: C_2  and  C_3
REMARK    3  A    between atoms: C_4  and  C_31
REMARK    4  A    between atoms: C_6  and  C_8
REMARK    5  A    between atoms: N_10  and  N_11
REMARK    6  A    between atoms: C_12  and  C_14
REMARK    7  A    between atoms: C_14  and  N_15
REMARK    8  A    between atoms: C_20  and  C_27
REMARK    9  A    between atoms: C_23  and  C_25
REMARK   10  A    between atoms: C_23  and  C_26
REMARK                            x       y       z     vdW  Elec       q    Type
REMARK                         _______ _______ _______ _____ _____    ______ ____
ROOT
ATOM      1  C   UNL     1      -0.623  -2.018   3.058  0.00  0.00    +0.215 C 
ENDROOT
BRANCH   1   2
ATOM      2  N   UNL     1      -0.623  -1.272   1.797  0.00  0.00    -0.215 N 
ATOM      3  C   UNL     1       0.419  -0.538   1.351  0.00  0.00    +0.247 C 
ATOM      4  O   UNL     1       1.458  -0.345   1.945  0.00  0.00    -0.273 OA
ATOM      5  C   UNL     1       0.002  -0.004   0.002  0.00  0.00    +0.113 C 
ATOM      6  C   UNL     1      -0.019   1.518   0.010  0.00  0.00    +0.038 C 
ATOM      7  C   UNL     1       1.413   2.057  -0.000  0.00  0.00    -0.011 C 
ATOM      8  C   UNL     1       2.087   1.615  -1.298  0.00  0.00    +0.009 C 
ATOM      9  C   UNL     1       2.169   0.095  -1.379  0.00  0.00    -0.032 C 
ATOM     10  C   UNL     1       0.835  -0.583  -1.122  0.00  0.00    +0.041 C 
ATOM     11  C   UNL     1       3.236  -0.424  -0.410  0.00  0.00    +0.011 C 
ATOM     12  C   UNL     1       2.625  -0.274  -2.807  0.00  0.00    +0.011 C 
ATOM     13  C   UNL     1       1.379   3.587   0.059  0.00  0.00    +0.007 C 
ATOM     14  N   UNL     1      -1.388  -0.492  -0.143  0.00  0.00    -0.285 N 
ATOM     15  C   UNL     1      -1.653  -1.234   0.945  0.00  0.00    +0.310 C 
ATOM     16  O   UNL     1      -2.710  -1.805   1.135  0.00  0.00    -0.252 OA
ATOM     17  H   UNL     1      -1.980  -0.305  -0.887  0.00  0.00    +0.151 HD
ENDBRANCH   1   2
BRANCH   1  19
ATOM     18  N   UNL     1      -0.017  -4.285   3.841  0.00  0.00    -0.233 N 
ATOM     19  C   UNL     1      -0.107  -3.413   2.817  0.00  0.00    +0.247 C 
ATOM     20  O   UNL     1       0.228  -3.751   1.702  0.00  0.00    -0.273 OA
ATOM     21  H   UNL     1      -0.285  -4.014   4.733  0.00  0.00    +0.173 HD
BRANCH  18  24
ATOM     22  C   UNL     1       0.552  -6.454   4.641  0.00  0.00    +0.267 C 
ATOM     23  O   UNL     1       0.216  -6.114   5.760  0.00  0.00    -0.268 OA
ATOM     24  N   UNL     1       0.462  -5.582   3.617  0.00  0.00    -0.230 N 
ATOM     25  H   UNL     1       0.730  -5.853   2.724  0.00  0.00    +0.173 HD
BRANCH  22  29
ATOM     26  C   UNL     1       2.010 -10.129   3.495  0.00  0.00    -0.007 A 
ATOM     27  C   UNL     1       1.716 -10.031   4.818  0.00  0.00    -0.040 A 
ATOM     28  C   UNL     1       1.223  -8.848   5.309  0.00  0.00    +0.024 A 
ATOM     29  C   UNL     1       1.054  -7.811   4.406  0.00  0.00    +0.076 A 
ATOM     30  S   UNL     1       1.599  -8.560   2.881  0.00  0.00    -0.088 S 
ATOM     31  C   UNL     1       1.930 -11.208   5.735  0.00  0.00    +0.044 C 
BRANCH  26  33
ATOM     32  C   UNL     1       1.398 -12.167   2.222  0.00  0.00    +0.009 C 
ATOM     33  C   UNL     1       2.557 -11.314   2.742  0.00  0.00    +0.039 C 
ENDBRANCH  26  33
ENDBRANCH  22  29
ENDBRANCH  18  24
ENDBRANCH   1  19
TORSDOF 5
