REMARK  Name = ZINC28467146
REMARK  6 active torsions:
REMARK  status: ('A' for Active; 'I' for Inactive)
REMARK    1  A    between atoms: C_3  and  C_6
REMARK    2  A    between atoms: C_6  and  C_8
REMARK    3  A    between atoms: C_10  and  C_22
REMARK    4  A    between atoms: C_16  and  C_17
REMARK    5  A    between atoms: C_16  and  O_21
REMARK    6  A    between atoms: C_25  and  C_28
REMARK                            x       y       z     vdW  Elec       q    Type
REMARK                         _______ _______ _______ _____ _____    ______ ____
ROOT
ATOM      1  C   UNL     1      -1.942   5.793  -0.196  0.00  0.00    +0.144 C 
ATOM      2  C   UNL     1      -2.870   6.521   0.782  0.00  0.00    +0.117 C 
ATOM      3  N   UNL     1      -3.029   7.911   0.350  0.00  0.00    -0.319 N 
ATOM      4  C   UNL     1      -2.940   8.254  -0.944  0.00  0.00    +0.133 C 
ATOM      5  S   UNL     1      -3.151   9.897  -1.376  0.00  0.00    -0.019 S 
ATOM      6  N   UNL     1      -2.692   7.360  -1.913  0.00  0.00    -0.291 N 
ATOM      7  C   UNL     1      -2.514   5.939  -1.610  0.00  0.00    +0.241 C 
ATOM      8  H   UNL     1      -3.226   8.699   1.092  0.00  0.00    +0.148 HD
ATOM      9  H   UNL     1      -2.622   7.714  -2.952  0.00  0.00    +0.151 HD
ENDROOT
BRANCH   2  10
ATOM     10  C   UNL     1      -2.270   6.490   2.164  0.00  0.00    -0.026 A 
ATOM     11  C   UNL     1      -2.569   5.450   3.024  0.00  0.00    +0.006 A 
ATOM     12  C   UNL     1      -2.014   5.418   4.290  0.00  0.00    +0.013 A 
ATOM     13  C   UNL     1      -1.168   6.431   4.699  0.00  0.00    +0.055 A 
ATOM     14  C   UNL     1      -0.873   7.474   3.841  0.00  0.00    +0.013 A 
ATOM     15  C   UNL     1      -1.423   7.503   2.574  0.00  0.00    +0.006 A 
BRANCH  13  16
ATOM     16  C   UNL     1      -0.567   6.399   6.081  0.00  0.00    +0.417 C 
ATOM     17  F   UNL     1      -1.414   7.065   6.974  0.00  0.00    -0.166 F 
ATOM     18  F   UNL     1      -0.409   5.071   6.490  0.00  0.00    -0.166 F 
ATOM     19  F   UNL     1       0.680   7.032   6.062  0.00  0.00    -0.166 F 
ENDBRANCH  13  16
ENDBRANCH   2  10
BRANCH   7  20
ATOM     20  C   UNL     1      -3.865   5.225  -1.691  0.00  0.00    +0.436 C 
ATOM     21  F   UNL     1      -4.750   5.796  -0.770  0.00  0.00    -0.166 F 
ATOM     22  F   UNL     1      -4.386   5.358  -2.983  0.00  0.00    -0.166 F 
ATOM     23  F   UNL     1      -3.695   3.869  -1.395  0.00  0.00    -0.166 F 
ENDBRANCH   7  20
BRANCH   1  24
ATOM     24  C   UNL     1      -0.567   6.407  -0.141  0.00  0.00    +0.179 C 
ATOM     25  O   UNL     1      -0.442   7.604   0.021  0.00  0.00    -0.291 OA
BRANCH  24  28
ATOM     26  C   UNL     1       2.837   4.945  -0.414  0.00  0.00    +0.008 A 
ATOM     27  C   UNL     1       1.920   5.950  -0.256  0.00  0.00    +0.019 A 
ATOM     28  C   UNL     1       0.577   5.590  -0.277  0.00  0.00    +0.055 A 
ATOM     29  S   UNL     1       0.676   3.826  -0.528  0.00  0.00    -0.094 S 
ATOM     30  C   UNL     1       2.401   3.667  -0.580  0.00  0.00    +0.046 A 
ENDBRANCH  24  28
ENDBRANCH   1  24
BRANCH   7  31
ATOM     31  O   UNL     1      -1.610   5.359  -2.553  0.00  0.00    -0.364 OA
ATOM     32  H   UNL     1      -1.853   5.369  -3.626  0.00  0.00    +0.212 HD
ENDBRANCH   7  31
TORSDOF 6
