REMARK  Name = ZINC03137766
REMARK  8 active torsions:
REMARK  status: ('A' for Active; 'I' for Inactive)
REMARK    1  A    between atoms: C_1  and  C_2
REMARK    2  A    between atoms: C_5  and  O_11
REMARK    3  A    between atoms: O_11  and  C_12
REMARK    4  A    between atoms: C_12  and  C_13
REMARK    5  A    between atoms: N_15  and  N_16
REMARK    6  A    between atoms: C_17  and  C_19
REMARK    7  A    between atoms: C_19  and  S_20
REMARK    8  A    between atoms: S_20  and  C_21
REMARK                            x       y       z     vdW  Elec       q    Type
REMARK                         _______ _______ _______ _____ _____    ______ ____
ROOT
ATOM      1  C   UNL     1      -0.513   1.424  -4.808  0.00  0.00    +0.267 C 
ATOM      2  O   UNL     1       0.481   0.741  -4.933  0.00  0.00    -0.271 OA
ATOM      3  N   UNL     1      -0.966   1.736  -3.578  0.00  0.00    -0.232 N 
ATOM      4  H   UNL     1      -1.761   2.283  -3.479  0.00  0.00    +0.173 HD
ENDROOT
BRANCH   3   5
ATOM      5  N   UNL     1      -0.288   1.272  -2.443  0.00  0.00    -0.234 N 
ATOM      6  C   UNL     1      -0.742   1.585  -1.213  0.00  0.00    +0.239 C 
ATOM      7  O   UNL     1      -1.736   2.268  -1.088  0.00  0.00    -0.273 OA
ATOM      8  H   UNL     1       0.507   0.726  -2.543  0.00  0.00    +0.173 HD
BRANCH   6   9
ATOM      9  C   UNL     1      -0.013   1.086   0.008  0.00  0.00    +0.171 C 
BRANCH   9  10
ATOM     10  S   UNL     1      -0.862   1.671   1.500  0.00  0.00    -0.114 S 
BRANCH  10  11
ATOM     11  C   UNL     1       0.099   1.013   2.823  0.00  0.00    +0.028 A 
ATOM     12  C   UNL     1       1.218   0.236   2.551  0.00  0.00    +0.036 A 
ATOM     13  C   UNL     1       1.972  -0.274   3.591  0.00  0.00    +0.042 A 
ATOM     14  C   UNL     1       1.607  -0.022   4.902  0.00  0.00    +0.021 A 
ATOM     15  C   UNL     1       0.490   0.746   5.176  0.00  0.00    +0.022 A 
ATOM     16  C   UNL     1      -0.266   1.264   4.141  0.00  0.00    +0.054 A 
ATOM     17 CL   UNL     1      -1.667   2.229   4.487  0.00  0.00    -0.082 Cl
ATOM     18 CL   UNL     1       3.375  -1.239   3.252  0.00  0.00    -0.084 Cl
ENDBRANCH  10  11
ENDBRANCH   9  10
ENDBRANCH   6   9
ENDBRANCH   3   5
BRANCH   1  19
ATOM     19  C   UNL     1      -1.242   1.923  -6.029  0.00  0.00    +0.326 C 
BRANCH  19  20
ATOM     20  O   UNL     1      -0.573   1.462  -7.205  0.00  0.00    -0.482 OA
BRANCH  20  25
ATOM     21  C   UNL     1      -2.782   2.975 -12.156  0.00  0.00    +0.044 C 
ATOM     22  C   UNL     1      -2.190   2.569 -10.831  0.00  0.00    -0.047 A 
ATOM     23  C   UNL     1      -2.788   2.982  -9.655  0.00  0.00    +0.007 A 
ATOM     24  C   UNL     1      -2.251   2.607  -8.439  0.00  0.00    +0.046 A 
ATOM     25  C   UNL     1      -1.106   1.827  -8.401  0.00  0.00    +0.125 A 
ATOM     26  C   UNL     1      -0.505   1.412  -9.583  0.00  0.00    -0.002 A 
ATOM     27  C   UNL     1      -1.049   1.785 -10.797  0.00  0.00    -0.038 A 
ATOM     28  C   UNL     1      -0.219   1.212 -11.927  0.00  0.00    +0.036 C 
ATOM     29  C   UNL     1       1.127   0.822 -11.281  0.00  0.00    +0.009 C 
ATOM     30  C   UNL     1       0.728   0.564  -9.812  0.00  0.00    +0.039 C 
ENDBRANCH  20  25
ENDBRANCH  19  20
ENDBRANCH   1  19
TORSDOF 7
