REMARK  Name = ZINC13064407
REMARK  9 active torsions:
REMARK  status: ('A' for Active; 'I' for Inactive)
REMARK    1  A    between atoms: C_1  and  C_2
REMARK    2  A    between atoms: C_2  and  C_3
REMARK    3  A    between atoms: C_3  and  C_5
REMARK    4  A    between atoms: C_3  and  N_71
REMARK    5  A    between atoms: N_9  and  C_10
REMARK    6  A    between atoms: C_16  and  C_17
REMARK    7  A    between atoms: C_16  and  N_71
REMARK    8  A    between atoms: C_23  and  C_24
REMARK    9  A    between atoms: C_23  and  N_71
REMARK                            x       y       z     vdW  Elec       q    Type
REMARK                         _______ _______ _______ _____ _____    ______ ____
ROOT
ATOM      1  N   UNL     1       1.056   3.855   1.416  0.00  0.00    +0.392 N 
ATOM      2  H   UNL     1       1.073   3.505   2.381  0.00  0.00    -0.080 HD
ENDROOT
BRANCH   1   3
ATOM      3  C   UNL     1       2.142   3.205   0.651  0.00  0.00    +0.003 C 
BRANCH   3   4
ATOM      4  C   UNL     1       2.325   3.879  -0.684  0.00  0.00    +0.138 A 
ATOM      5  N   UNL     1       2.442   5.166  -0.901  0.00  0.00    -0.115 NA
ATOM      6  N   UNL     1       2.582   5.345  -2.169  0.00  0.00    -0.023 NA
ATOM      7  N   UNL     1       2.557   4.205  -2.767  0.00  0.00    -0.044 NA
ATOM      8  N   UNL     1       2.400   3.277  -1.885  0.00  0.00    -0.228 N 
BRANCH   8   9
ATOM      9  C   UNL     1       2.318   1.837  -2.143  0.00  0.00    +0.111 C 
ATOM     10  C   UNL     1       3.610   1.366  -2.815  0.00  0.00    +0.027 C 
ATOM     11  C   UNL     1       3.525  -0.138  -3.084  0.00  0.00    +0.002 C 
ATOM     12  C   UNL     1       2.337  -0.425  -4.004  0.00  0.00    +0.000 C 
ATOM     13  C   UNL     1       1.046   0.046  -3.332  0.00  0.00    +0.002 C 
ATOM     14  C   UNL     1       1.130   1.549  -3.063  0.00  0.00    +0.027 C 
ENDBRANCH   8   9
ENDBRANCH   3   4
BRANCH   3  16
ATOM     15  C   UNL     1       3.281   2.549   2.776  0.00  0.00    +0.002 C 
ATOM     16  C   UNL     1       3.439   3.305   1.456  0.00  0.00    -0.011 C 
ENDBRANCH   3  16
ENDBRANCH   1   3
BRANCH   1  17
ATOM     17  C   UNL     1      -0.252   3.531   0.810  0.00  0.00    -0.040 C 
BRANCH  17  18
ATOM     18  C   UNL     1      -0.631   2.126   1.200  0.00  0.00    -0.046 A 
ATOM     19  C   UNL     1      -0.379   1.067   0.341  0.00  0.00    +0.005 A 
ATOM     20  C   UNL     1      -0.740  -0.210   0.744  0.00  0.00    +0.020 A 
ATOM     21  C   UNL     1      -1.345  -0.382   1.975  0.00  0.00    +0.111 A 
ATOM     22  N   UNL     1      -1.574   0.650   2.764  0.00  0.00    -0.263 NA
ATOM     23  C   UNL     1      -1.239   1.877   2.416  0.00  0.00    +0.112 A 
ENDBRANCH  17  18
ENDBRANCH   1  17
BRANCH   1  24
ATOM     24  C   UNL     1       1.257   5.319   1.432  0.00  0.00    -0.036 C 
BRANCH  24  25
ATOM     25  C   UNL     1       0.392   5.914   2.513  0.00  0.00    +0.001 A 
ATOM     26  C   UNL     1       0.898   6.101   3.758  0.00  0.00    +0.017 A 
ATOM     27  C   UNL     1       0.034   6.680   4.785  0.00  0.00    +0.002 A 
ATOM     28  C   UNL     1       0.501   6.895   6.087  0.00  0.00    +0.059 A 
ATOM     29  C   UNL     1      -0.338   7.440   7.036  0.00  0.00    +0.163 A 
ATOM     30  C   UNL     1      -1.652   7.780   6.700  0.00  0.00    +0.164 A 
ATOM     31  C   UNL     1      -2.123   7.573   5.415  0.00  0.00    +0.075 A 
ATOM     32  C   UNL     1      -1.290   7.023   4.449  0.00  0.00    +0.053 A 
ATOM     33  N   UNL     1      -1.744   6.808   3.163  0.00  0.00    -0.322 N 
ATOM     34  H   UNL     1      -2.655   7.045   2.932  0.00  0.00    +0.169 HD
ATOM     35  C   UNL     1      -0.939   6.279   2.225  0.00  0.00    +0.251 A 
ATOM     36  O   UNL     1      -1.372   6.107   1.099  0.00  0.00    -0.268 OA
ATOM     37  O   UNL     1      -2.486   8.322   7.629  0.00  0.00    -0.485 OA
ATOM     38  C   UNL     1      -2.106   8.172   9.001  0.00  0.00    +0.270 C 
ATOM     39  C   UNL     1      -0.620   8.530   9.131  0.00  0.00    +0.270 C 
ATOM     40  O   UNL     1       0.130   7.638   8.300  0.00  0.00    -0.485 OA
ENDBRANCH  24  25
ENDBRANCH   1  24
TORSDOF 8
