REMARK  Name = ZINC39325072
REMARK  11 active torsions:
REMARK  status: ('A' for Active; 'I' for Inactive)
REMARK    1  A    between atoms: C_1  and  C_2
REMARK    2  A    between atoms: C_5  and  S_9
REMARK    3  A    between atoms: S_9  and  N_12
REMARK    4  A    between atoms: N_12  and  C_13
REMARK    5  A    between atoms: N_12  and  C_19
REMARK    6  A    between atoms: C_13  and  C_14
REMARK    7  A    between atoms: C_19  and  C_20
REMARK    8  A    between atoms: C_25  and  O_34
REMARK    9  A    between atoms: C_26  and  O_32
REMARK   10  A    between atoms: O_32  and  C_33
REMARK   11  A    between atoms: O_34  and  C_35
REMARK                            x       y       z     vdW  Elec       q    Type
REMARK                         _______ _______ _______ _____ _____    ______ ____
ROOT
ATOM      1  N   UNL     1       1.769  -5.083   0.012  0.00  0.00    -0.171 NA
ENDROOT
BRANCH   1   2
ATOM      2  S   UNL     1       0.444  -4.105   0.192  0.00  0.00    +0.061 S 
ATOM      3  O   UNL     1      -0.199  -4.511   1.393  0.00  0.00    -0.153 OA
ATOM      4  O   UNL     1      -0.223  -4.090  -1.062  0.00  0.00    -0.153 OA
BRANCH   2   9
ATOM      5  C   UNL     1       2.476   1.499   1.130  0.00  0.00    +0.045 C 
ATOM      6  C   UNL     1       1.968   0.100   0.896  0.00  0.00    -0.032 A 
ATOM      7  C   UNL     1       1.724  -0.341  -0.391  0.00  0.00    +0.007 A 
ATOM      8  C   UNL     1       1.259  -1.625  -0.606  0.00  0.00    +0.029 A 
ATOM      9  C   UNL     1       1.038  -2.469   0.467  0.00  0.00    +0.107 A 
ATOM     10  C   UNL     1       1.282  -2.030   1.754  0.00  0.00    +0.048 A 
ATOM     11  C   UNL     1       1.753  -0.746   1.969  0.00  0.00    +0.046 A 
ATOM     12 CL   UNL     1       2.066  -0.196   3.585  0.00  0.00    -0.083 Cl
ENDBRANCH   2   9
ENDBRANCH   1   2
BRANCH   1  13
ATOM     13  C   UNL     1       2.367  -5.729   1.182  0.00  0.00    +0.151 C 
BRANCH  13  14
ATOM     14  C   UNL     1       1.782  -7.108   1.348  0.00  0.00    +0.005 A 
ATOM     15  C   UNL     1       2.216  -8.287   0.838  0.00  0.00    +0.012 A 
ATOM     16  C   UNL     1       1.513  -9.441   1.127  0.00  0.00    +0.008 A 
ATOM     17  C   UNL     1       0.411  -9.361   1.911  0.00  0.00    +0.045 A 
ATOM     18  S   UNL     1       0.342  -7.614   2.274  0.00  0.00    -0.100 S 
ENDBRANCH  13  14
ENDBRANCH   1  13
BRANCH   1  19
ATOM     19  C   UNL     1       2.342  -5.301  -1.319  0.00  0.00    +0.126 C 
BRANCH  19  20
ATOM     20  C   UNL     1       3.296  -4.154  -1.657  0.00  0.00    +0.114 C 
ATOM     21  C   UNL     1       3.648  -4.260  -3.128  0.00  0.00    -0.003 C 
ATOM     22  C   UNL     1       4.964  -4.381  -3.449  0.00  0.00    -0.003 A 
ATOM     23  C   UNL     1       5.385  -4.489  -4.848  0.00  0.00    +0.059 A 
ATOM     24  C   UNL     1       6.707  -4.609  -5.131  0.00  0.00    +0.162 A 
ATOM     25  C   UNL     1       7.673  -4.631  -4.107  0.00  0.00    +0.163 A 
ATOM     26  C   UNL     1       7.335  -4.533  -2.776  0.00  0.00    +0.073 A 
ATOM     27  C   UNL     1       5.993  -4.406  -2.392  0.00  0.00    +0.044 A 
ATOM     28  N   UNL     1       5.679  -4.312  -1.098  0.00  0.00    -0.284 N 
ATOM     29  C   UNL     1       4.437  -4.191  -0.665  0.00  0.00    +0.225 C 
ATOM     30  O   UNL     1       4.212  -4.110   0.528  0.00  0.00    -0.275 OA
ATOM     31  H   UNL     1       6.396  -4.334  -0.445  0.00  0.00    +0.155 HD
BRANCH  25  32
ATOM     32  O   UNL     1       8.980  -4.753  -4.442  0.00  0.00    -0.491 OA
ATOM     33  C   UNL     1       9.926  -4.771  -3.371  0.00  0.00    +0.277 C 
ENDBRANCH  25  32
BRANCH  24  34
ATOM     34  O   UNL     1       7.106  -4.711  -6.427  0.00  0.00    -0.491 OA
ATOM     35  C   UNL     1       6.083  -4.684  -7.424  0.00  0.00    +0.277 C 
ENDBRANCH  24  34
ENDBRANCH  19  20
ENDBRANCH   1  19
TORSDOF 8
