REMARK  Name = ZINC09671094
REMARK  8 active torsions:
REMARK  status: ('A' for Active; 'I' for Inactive)
REMARK    1  A    between atoms: C_3  and  N_10
REMARK    2  A    between atoms: C_5  and  C_6
REMARK    3  A    between atoms: C_13  and  C_16
REMARK    4  A    between atoms: C_16  and  O_18
REMARK    5  A    between atoms: O_18  and  C_19
REMARK    6  A    between atoms: C_19  and  C_20
REMARK    7  A    between atoms: N_22  and  C_23
REMARK    8  A    between atoms: C_23  and  C_24
REMARK                            x       y       z     vdW  Elec       q    Type
REMARK                         _______ _______ _______ _____ _____    ______ ____
ROOT
ATOM      1  C   UNL     1      -5.368   3.731   7.886  0.00  0.00    +0.311 C 
ATOM      2  O   UNL     1      -5.935   4.792   7.767  0.00  0.00    -0.251 OA
ENDROOT
BRANCH   1   6
ATOM      3  N   UNL     1      -2.769   3.205   4.561  0.00  0.00    -0.317 N 
ATOM      4  C   UNL     1      -2.551   2.320   5.712  0.00  0.00    +0.107 C 
ATOM      5  C   UNL     1      -3.216   2.919   6.953  0.00  0.00    +0.033 C 
ATOM      6  C   UNL     1      -4.716   3.086   6.691  0.00  0.00    +0.101 C 
ATOM      7  C   UNL     1      -4.915   3.974   5.459  0.00  0.00    +0.033 C 
ATOM      8  C   UNL     1      -4.200   3.343   4.262  0.00  0.00    +0.107 C 
BRANCH   3  11
ATOM      9  C   UNL     1      -0.007   2.118   2.416  0.00  0.00    +0.017 A 
ATOM     10  C   UNL     1      -0.693   2.563   3.532  0.00  0.00    +0.042 A 
ATOM     11  C   UNL     1      -2.068   2.757   3.448  0.00  0.00    +0.099 A 
ATOM     12  C   UNL     1      -2.085   2.100   1.236  0.00  0.00    +0.096 A 
ATOM     13  C   UNL     1      -0.722   1.881   1.250  0.00  0.00    +0.071 A 
ATOM     14  N   UNL     1      -2.792   2.531   2.314  0.00  0.00    -0.349 N 
ATOM     15  H   UNL     1      -3.808   2.678   2.278  0.00  0.00    +0.167 HD
BRANCH  13  16
ATOM     16  C   UNL     1      -0.017   1.395   0.010  0.00  0.00    +0.419 C 
ATOM     17  F   UNL     1       0.002  -0.004   0.002  0.00  0.00    -0.166 F 
ATOM     18  F   UNL     1       1.296   1.879  -0.000  0.00  0.00    -0.166 F 
ATOM     19  F   UNL     1      -0.694   1.858  -1.124  0.00  0.00    -0.166 F 
ENDBRANCH  13  16
ENDBRANCH   3  11
ENDBRANCH   1   6
BRANCH   1  20
ATOM     20  O   UNL     1      -5.320   3.127   9.084  0.00  0.00    -0.455 OA
BRANCH  20  21
ATOM     21  C   UNL     1      -5.970   3.806  10.191  0.00  0.00    +0.327 C 
BRANCH  21  22
ATOM     22  C   UNL     1      -5.814   2.985  11.445  0.00  0.00    +0.251 C 
ATOM     23  O   UNL     1      -5.213   1.932  11.410  0.00  0.00    -0.272 OA
ATOM     24  N   UNL     1      -6.341   3.422  12.607  0.00  0.00    -0.312 N 
ATOM     25  H   UNL     1      -6.821   4.264  12.635  0.00  0.00    +0.149 HD
BRANCH  24  26
ATOM     26  C   UNL     1      -6.189   2.624  13.826  0.00  0.00    +0.111 C 
BRANCH  26  27
ATOM     27  C   UNL     1      -6.874   3.339  14.992  0.00  0.00    -0.013 C 
ATOM     28  C   UNL     1      -6.230   4.712  15.197  0.00  0.00    +0.012 C 
ATOM     29  C   UNL     1      -6.915   5.427  16.364  0.00  0.00    -0.010 C 
ATOM     30  C   UNL     1      -6.756   4.593  17.637  0.00  0.00    +0.007 C 
ATOM     31  C   UNL     1      -7.400   3.220  17.432  0.00  0.00    -0.010 C 
ATOM     32  C   UNL     1      -6.715   2.505  16.265  0.00  0.00    +0.012 C 
ATOM     33  C   UNL     1      -8.887   3.396  17.119  0.00  0.00    +0.007 C 
ATOM     34  C   UNL     1      -9.046   4.229  15.846  0.00  0.00    -0.010 C 
ATOM     35  C   UNL     1      -8.402   5.602  16.052  0.00  0.00    +0.007 C 
ATOM     36  C   UNL     1      -8.361   3.514  14.680  0.00  0.00    +0.012 C 
ENDBRANCH  26  27
ENDBRANCH  24  26
ENDBRANCH  21  22
ENDBRANCH  20  21
ENDBRANCH   1  20
TORSDOF 8
