REMARK  Name = ZINC47999935
REMARK  8 active torsions:
REMARK  status: ('A' for Active; 'I' for Inactive)
REMARK    1  A    between atoms: C_1  and  C_2
REMARK    2  A    between atoms: N_7  and  C_9
REMARK    3  A    between atoms: C_9  and  C_10
REMARK    4  A    between atoms: C_10  and  C_11
REMARK    5  A    between atoms: C_11  and  C_12
REMARK    6  A    between atoms: C_12  and  N_13
REMARK    7  A    between atoms: C_14  and  C_16
REMARK    8  A    between atoms: C_16  and  N_18
REMARK                            x       y       z     vdW  Elec       q    Type
REMARK                         _______ _______ _______ _____ _____    ______ ____
ROOT
ATOM      1  N   UNL     1       2.541  -6.501   5.081  0.00  0.00    -0.308 N 
ATOM      2  C   UNL     1       2.580  -7.822   5.347  0.00  0.00    +0.301 C 
ATOM      3  O   UNL     1       2.082  -8.612   4.571  0.00  0.00    -0.265 OA
ATOM      4  H   UNL     1       2.939  -5.870   5.701  0.00  0.00    +0.149 HD
ENDROOT
BRANCH   2   5
ATOM      5  C   UNL     1       3.235  -8.313   6.594  0.00  0.00    +0.324 C 
ATOM      6  O   UNL     1       3.735  -7.521   7.372  0.00  0.00    -0.263 OA
BRANCH   5   7
ATOM      7  N   UNL     1       3.274  -9.618   6.856  0.00  0.00    -0.148 NA
ATOM      8  C   UNL     1       3.859 -10.056   7.970  0.00  0.00    +0.164 A 
ATOM      9  N   UNL     1       3.993 -11.339   8.389  0.00  0.00    -0.335 N 
ATOM     10  C   UNL     1       4.635 -11.610   9.581  0.00  0.00    +0.055 A 
ATOM     11  C   UNL     1       4.880 -12.847  10.195  0.00  0.00    +0.027 A 
ATOM     12  C   UNL     1       5.543 -12.912  11.398  0.00  0.00    +0.002 A 
ATOM     13  C   UNL     1       5.986 -11.765  12.036  0.00  0.00    +0.001 A 
ATOM     14  C   UNL     1       5.758 -10.532  11.452  0.00  0.00    +0.017 A 
ATOM     15  C   UNL     1       5.095 -10.465  10.249  0.00  0.00    +0.039 A 
ATOM     16  S   UNL     1       4.604  -9.146   9.169  0.00  0.00    -0.052 S 
ATOM     17  H   UNL     1       3.638 -12.066   7.853  0.00  0.00    +0.168 HD
ENDBRANCH   5   7
ENDBRANCH   2   5
BRANCH   1  18
ATOM     18  C   UNL     1       1.898  -6.019   3.857  0.00  0.00    +0.104 C 
BRANCH  18  19
ATOM     19  C   UNL     1       1.992  -4.493   3.798  0.00  0.00    +0.017 C 
BRANCH  19  20
ATOM     20  C   UNL     1       1.320  -3.989   2.519  0.00  0.00    -0.017 C 
BRANCH  20  21
ATOM     21  C   UNL     1       1.413  -2.463   2.461  0.00  0.00    -0.079 C 
BRANCH  21  27
ATOM     22  C   UNL     1      -0.019   1.526   0.010  0.00  0.00    +0.005 C 
ATOM     23  C   UNL     1       0.002  -0.004   0.002  0.00  0.00    -0.031 C 
ATOM     24  C   UNL     1       0.721  -0.499  -1.257  0.00  0.00    -0.001 C 
ATOM     25  C   UNL     1       0.805  -2.027  -1.217  0.00  0.00    -0.018 C 
ATOM     26  C   UNL     1       1.518  -2.460   0.066  0.00  0.00    -0.079 C 
ATOM     27  N   UNL     1       0.768  -1.979   1.233  0.00  0.00    +0.380 N 
ATOM     28  C   UNL     1       0.744  -0.512   1.240  0.00  0.00    -0.076 C 
ATOM     29  H   UNL     1      -0.177  -2.330   1.192  0.00  0.00    -0.082 HD
ENDBRANCH  21  27
ENDBRANCH  20  21
ENDBRANCH  19  20
ENDBRANCH  18  19
ENDBRANCH   1  18
TORSDOF 7
