REMARK  Name = ZINC45782028
REMARK  8 active torsions:
REMARK  status: ('A' for Active; 'I' for Inactive)
REMARK    1  A    between atoms: C_1  and  C_2
REMARK    2  A    between atoms: C_2  and  C_4
REMARK    3  A    between atoms: C_2  and  N_14
REMARK    4  A    between atoms: C_7  and  N_10
REMARK    5  A    between atoms: C_15  and  C_17
REMARK    6  A    between atoms: C_18  and  C_19
REMARK    7  A    between atoms: C_24  and  O_25
REMARK    8  A    between atoms: O_25  and  C_26
REMARK                            x       y       z     vdW  Elec       q    Type
REMARK                         _______ _______ _______ _____ _____    ______ ____
ROOT
ATOM      1  N   UNL     1       1.061   0.747  -1.385  0.00  0.00    -0.305 N 
ATOM      2  C   UNL     1       0.308   0.416  -2.452  0.00  0.00    +0.237 C 
ATOM      3  O   UNL     1      -0.739   1.000  -2.663  0.00  0.00    -0.271 OA
ATOM      4  H   UNL     1       1.895   0.281  -1.217  0.00  0.00    +0.150 HD
ENDROOT
BRANCH   1   6
ATOM      5  C   UNL     1       1.065   3.167  -1.028  0.00  0.00    +0.033 C 
ATOM      6  C   UNL     1       0.620   1.810  -0.478  0.00  0.00    +0.100 C 
BRANCH   6   7
ATOM      7  C   UNL     1       1.231   1.595   0.882  0.00  0.00    -0.027 A 
ATOM      8  C   UNL     1       2.544   1.176   0.991  0.00  0.00    +0.007 A 
ATOM      9  C   UNL     1       3.107   0.978   2.237  0.00  0.00    +0.023 A 
ATOM     10  C   UNL     1       2.352   1.200   3.381  0.00  0.00    +0.035 A 
ATOM     11  C   UNL     1       1.034   1.620   3.269  0.00  0.00    +0.023 A 
ATOM     12  C   UNL     1       0.478   1.822   2.020  0.00  0.00    +0.007 A 
BRANCH  10  13
ATOM     13  N   UNL     1       2.919   1.000   4.645  0.00  0.00    -0.270 N 
ATOM     14  C   UNL     1       4.228   1.255   4.844  0.00  0.00    +0.301 C 
ATOM     15  O   UNL     1       4.892   1.756   3.957  0.00  0.00    -0.253 OA
ATOM     16  N   UNL     1       4.800   0.956   6.027  0.00  0.00    -0.313 N 
ATOM     17  H   UNL     1       2.371   0.677   5.377  0.00  0.00    +0.156 HD
ATOM     18  H   UNL     1       4.270   0.556   6.735  0.00  0.00    +0.146 HD
ATOM     19  H   UNL     1       5.741   1.140   6.171  0.00  0.00    +0.146 HD
ENDBRANCH  10  13
ENDBRANCH   6   7
ENDBRANCH   1   6
BRANCH   2  20
ATOM     20  C   UNL     1       0.748  -0.645  -3.357  0.00  0.00    +0.068 C 
ATOM     21  C   UNL     1      -0.068  -1.071  -4.346  0.00  0.00    +0.016 C 
BRANCH  21  22
ATOM     22  C   UNL     1      -1.468  -0.628  -4.384  0.00  0.00    +0.017 A 
ATOM     23  C   UNL     1      -2.253  -0.672  -3.227  0.00  0.00    +0.011 A 
ATOM     24  C   UNL     1      -3.565  -0.255  -3.271  0.00  0.00    +0.001 A 
ATOM     25  C   UNL     1      -4.112   0.208  -4.457  0.00  0.00    +0.004 A 
ATOM     26  C   UNL     1      -3.350   0.257  -5.607  0.00  0.00    +0.046 A 
ATOM     27  C   UNL     1      -2.025  -0.151  -5.582  0.00  0.00    +0.134 A 
BRANCH  27  28
ATOM     28  O   UNL     1      -1.273  -0.098  -6.710  0.00  0.00    -0.434 OA
BRANCH  28  29
ATOM     29  C   UNL     1      -1.909   0.398  -7.890  0.00  0.00    +0.541 C 
ATOM     30  F   UNL     1      -3.003  -0.414  -8.206  0.00  0.00    -0.166 F 
ATOM     31  F   UNL     1      -2.347   1.708  -7.668  0.00  0.00    -0.166 F 
ENDBRANCH  28  29
ENDBRANCH  27  28
ENDBRANCH  21  22
ENDBRANCH   2  20
TORSDOF 7
