REMARK  Name = ZINC65146262
REMARK  8 active torsions:
REMARK  status: ('A' for Active; 'I' for Inactive)
REMARK    1  A    between atoms: C_1  and  C_2
REMARK    2  A    between atoms: C_2  and  C_3
REMARK    3  A    between atoms: C_2  and  C_4
REMARK    4  A    between atoms: C_2  and  C_5
REMARK    5  A    between atoms: C_10  and  C_15
REMARK    6  A    between atoms: N_17  and  N_18
REMARK    7  A    between atoms: N_21  and  C_22
REMARK    8  A    between atoms: C_22  and  C_23
REMARK                            x       y       z     vdW  Elec       q    Type
REMARK                         _______ _______ _______ _____ _____    ______ ____
ROOT
ATOM      1  C   UNL     1       5.278  -1.142  -5.117  0.00  0.00    +0.276 C 
ATOM      2  O   UNL     1       5.272  -1.770  -6.159  0.00  0.00    -0.267 OA
ATOM      3  N   UNL     1       6.395  -0.497  -4.726  0.00  0.00    -0.228 N 
ATOM      4  H   UNL     1       6.399   0.004  -3.895  0.00  0.00    +0.173 HD
ENDROOT
BRANCH   1  10
ATOM      5  C   UNL     1       0.707  -0.490  -1.238  0.00  0.00    -0.040 A 
ATOM      6  C   UNL     1       0.026  -1.288  -2.149  0.00  0.00    +0.005 A 
ATOM      7  C   UNL     1       0.646  -1.739  -3.277  0.00  0.00    +0.010 A 
ATOM      8  C   UNL     1       1.982  -1.395  -3.523  0.00  0.00    +0.000 A 
ATOM      9  C   UNL     1       2.886  -1.693  -4.572  0.00  0.00    +0.041 A 
ATOM     10  C   UNL     1       4.067  -1.087  -4.285  0.00  0.00    +0.104 A 
ATOM     11  N   UNL     1       3.949  -0.410  -3.087  0.00  0.00    -0.351 N 
ATOM     12  H   UNL     1       4.650   0.106  -2.658  0.00  0.00    +0.166 HD
ATOM     13  C   UNL     1       2.675  -0.586  -2.602  0.00  0.00    +0.047 A 
ATOM     14  C   UNL     1       2.019  -0.134  -1.460  0.00  0.00    +0.030 A 
BRANCH   5  16
ATOM     15  C   UNL     1      -0.019   1.526   0.010  0.00  0.00    +0.015 C 
ATOM     16  C   UNL     1       0.002  -0.004   0.002  0.00  0.00    -0.013 C 
ATOM     17  C   UNL     1       0.742  -0.511   1.242  0.00  0.00    +0.015 C 
ATOM     18  C   UNL     1      -1.433  -0.534   0.013  0.00  0.00    +0.015 C 
ENDBRANCH   5  16
ENDBRANCH   1  10
BRANCH   3  19
ATOM     19  N   UNL     1       7.548  -0.549  -5.519  0.00  0.00    -0.218 N 
ATOM     20  C   UNL     1       8.665   0.096  -5.128  0.00  0.00    +0.316 C 
ATOM     21  O   UNL     1       9.666   0.050  -5.816  0.00  0.00    -0.251 OA
ATOM     22  N   UNL     1       8.672   0.792  -3.974  0.00  0.00    -0.296 N 
ATOM     23  H   UNL     1       7.543  -1.050  -6.350  0.00  0.00    +0.174 HD
ATOM     24  H   UNL     1       7.873   0.828  -3.425  0.00  0.00    +0.150 HD
BRANCH  22  25
ATOM     25  C   UNL     1       9.886   1.493  -3.548  0.00  0.00    +0.137 C 
BRANCH  25  26
ATOM     26  C   UNL     1       9.627   2.198  -2.215  0.00  0.00    +0.135 C 
ATOM     27  C   UNL     1      10.862   3.034  -1.816  0.00  0.00    +0.035 C 
ATOM     28  C   UNL     1      10.933   2.805  -0.282  0.00  0.00    +0.031 C 
ATOM     29  C   UNL     1      10.428   1.344  -0.179  0.00  0.00    +0.160 C 
ATOM     30  O   UNL     1       9.410   1.227  -1.185  0.00  0.00    -0.375 OA
ENDBRANCH  25  26
ENDBRANCH  22  25
ENDBRANCH   3  19
TORSDOF 5
