REMARK  Name = ZINC66977058
REMARK  12 active torsions:
REMARK  status: ('A' for Active; 'I' for Inactive)
REMARK    1  A    between atoms: C_1  and  C_2
REMARK    2  A    between atoms: C_2  and  C_3
REMARK    3  A    between atoms: C_3  and  C_4
REMARK    4  A    between atoms: C_3  and  C_6
REMARK    5  A    between atoms: C_3  and  N_26
REMARK    6  A    between atoms: C_4  and  C_5
REMARK    7  A    between atoms: C_6  and  N_7
REMARK    8  A    between atoms: C_13  and  N_16
REMARK    9  A    between atoms: C_17  and  C_19
REMARK   10  A    between atoms: C_19  and  C_20
REMARK   11  A    between atoms: N_26  and  C_27
REMARK   12  A    between atoms: N_26  and  C_28
REMARK                            x       y       z     vdW  Elec       q    Type
REMARK                         _______ _______ _______ _____ _____    ______ ____
ROOT
ATOM      1  N   UNL     1       2.727  -0.372  -0.210  0.00  0.00    -0.301 N 
ATOM      2  C   UNL     1       3.865   0.235   0.178  0.00  0.00    +0.302 C 
ATOM      3  O   UNL     1       4.133   1.347  -0.236  0.00  0.00    -0.253 OA
ATOM      4  N   UNL     1       4.708  -0.389   1.025  0.00  0.00    -0.286 N 
ATOM      5  C   UNL     1       4.457  -1.775   1.444  0.00  0.00    +0.111 C 
ATOM      6  C   UNL     1       4.461  -1.835   2.974  0.00  0.00    +0.041 C 
ATOM      7  C   UNL     1       5.772  -1.247   3.501  0.00  0.00    +0.076 C 
ATOM      8  C   UNL     1       5.882   0.219   3.075  0.00  0.00    +0.041 C 
ATOM      9  C   UNL     1       5.898   0.301   1.542  0.00  0.00    +0.111 C 
ATOM     10  H   UNL     1       2.478  -1.227   0.175  0.00  0.00    +0.150 HD
ENDROOT
BRANCH   7  11
ATOM     11  N   UNL     1       5.793  -1.333   4.963  0.00  0.00    -0.312 N 
ATOM     12  C   UNL     1       6.970  -1.364   5.620  0.00  0.00    +0.214 C 
ATOM     13  O   UNL     1       8.011  -1.320   5.000  0.00  0.00    -0.276 OA
ATOM     14  H   UNL     1       4.960  -1.368   5.459  0.00  0.00    +0.149 HD
BRANCH  12  15
ATOM     15  C   UNL     1       6.992  -1.453   7.124  0.00  0.00    +0.099 C 
BRANCH  15  16
ATOM     16  C   UNL     1       8.442  -1.472   7.613  0.00  0.00    -0.002 C 
ATOM     17  C   UNL     1       9.129  -2.748   7.122  0.00  0.00    +0.004 C 
ATOM     18  C   UNL     1      10.578  -2.767   7.610  0.00  0.00    +0.000 C 
ATOM     19  C   UNL     1      10.601  -2.732   9.140  0.00  0.00    +0.000 C 
ATOM     20  C   UNL     1       9.914  -1.456   9.631  0.00  0.00    +0.000 C 
ATOM     21  C   UNL     1       8.465  -1.437   9.142  0.00  0.00    +0.004 C 
ENDBRANCH  15  16
ENDBRANCH  12  15
ENDBRANCH   7  11
BRANCH   1  22
ATOM     22  C   UNL     1       1.865   0.258  -1.213  0.00  0.00    +0.094 C 
BRANCH  22  23
ATOM     23  C   UNL     1       0.725  -0.695  -1.578  0.00  0.00    -0.051 C 
BRANCH  23  24
ATOM     24  N   UNL     1       1.272  -1.871  -2.268  0.00  0.00    +0.381 N 
ATOM     25  C   UNL     1       2.136  -2.622  -1.346  0.00  0.00    -0.096 C 
ATOM     26  C   UNL     1       0.170  -2.733  -2.716  0.00  0.00    -0.096 C 
ATOM     27  H   UNL     1       1.812  -1.572  -3.066  0.00  0.00    -0.082 HD
ENDBRANCH  23  24
BRANCH  23  29
ATOM     28  C   UNL     1      -0.564   0.084   0.415  0.00  0.00    +0.002 C 
ATOM     29  C   UNL     1       0.005  -1.141  -0.303  0.00  0.00    -0.014 C 
ENDBRANCH  23  29
BRANCH  23  30
ATOM     30  C   UNL     1      -0.264   0.021  -2.498  0.00  0.00    -0.014 C 
ATOM     31  C   UNL     1       0.444   0.425  -3.793  0.00  0.00    +0.002 C 
ENDBRANCH  23  30
ENDBRANCH  22  23
ENDBRANCH   1  22
TORSDOF 8
