REMARK  Name = ZINC44785712
REMARK  9 active torsions:
REMARK  status: ('A' for Active; 'I' for Inactive)
REMARK    1  A    between atoms: C_1  and  C_2
REMARK    2  A    between atoms: C_2  and  C_3
REMARK    3  A    between atoms: C_3  and  C_4
REMARK    4  A    between atoms: C_3  and  C_6
REMARK    5  A    between atoms: C_3  and  C_10
REMARK    6  A    between atoms: C_4  and  C_5
REMARK    7  A    between atoms: N_7  and  O_8
REMARK    8  A    between atoms: N_12  and  C_13
REMARK    9  A    between atoms: C_13  and  C_14
REMARK                            x       y       z     vdW  Elec       q    Type
REMARK                         _______ _______ _______ _____ _____    ______ ____
ROOT
ATOM      1  C   UNL     1       0.774  -0.374  -1.571  0.00  0.00    +0.104 C 
ENDROOT
BRANCH   1   2
ATOM      2  C   UNL     1      -0.218  -0.183  -2.689  0.00  0.00    +0.147 C 
ATOM      3  N   UNL     1      -1.295   0.501  -2.486  0.00  0.00    -0.076 NA
ATOM      4  N   UNL     1       0.023  -0.737  -3.927  0.00  0.00    -0.343 N 
ATOM      5  H   UNL     1       0.811  -1.284  -4.068  0.00  0.00    +0.144 HD
ATOM      6  H   UNL     1      -0.597  -0.581  -4.657  0.00  0.00    +0.144 HD
BRANCH   3   7
ATOM      7  O   UNL     1      -2.228   0.681  -3.537  0.00  0.00    -0.408 OA
ATOM      8  H   UNL     1      -3.001   1.207  -3.290  0.00  0.00    +0.328 HD
ENDBRANCH   3   7
ENDBRANCH   1   2
BRANCH   1   9
ATOM      9  C   UNL     1       2.142   0.054  -2.036  0.00  0.00    +0.227 C 
ATOM     10  O   UNL     1       2.296   0.474  -3.163  0.00  0.00    -0.275 OA
ATOM     11  N   UNL     1       3.195  -0.029  -1.198  0.00  0.00    -0.310 N 
ATOM     12  H   UNL     1       3.072  -0.364  -0.296  0.00  0.00    +0.149 HD
BRANCH  11  13
ATOM     13  C   UNL     1       4.525   0.388  -1.649  0.00  0.00    +0.140 C 
BRANCH  13  14
ATOM     14  C   UNL     1       5.517   0.197  -0.531  0.00  0.00    -0.016 A 
ATOM     15  C   UNL     1       5.905   1.276   0.241  0.00  0.00    +0.006 A 
ATOM     16  C   UNL     1       6.815   1.100   1.267  0.00  0.00    +0.000 A 
ATOM     17  C   UNL     1       7.338  -0.155   1.520  0.00  0.00    +0.001 A 
ATOM     18  C   UNL     1       6.951  -1.234   0.748  0.00  0.00    +0.015 A 
ATOM     19  C   UNL     1       6.036  -1.059  -0.275  0.00  0.00    +0.023 A 
ATOM     20 BR   UNL     1       5.501  -2.537  -1.327  0.00  0.00    -0.050 Br
ENDBRANCH  13  14
ENDBRANCH  11  13
ENDBRANCH   1   9
BRANCH   1  22
ATOM     21  C   UNL     1       0.319   1.947  -0.769  0.00  0.00    +0.005 C 
ATOM     22  C   UNL     1       0.356   0.471  -0.367  0.00  0.00    +0.020 C 
ENDBRANCH   1  22
BRANCH   1  23
ATOM     23  C   UNL     1       0.811  -1.850  -1.170  0.00  0.00    +0.020 C 
ATOM     24  C   UNL     1      -0.595  -2.308  -0.779  0.00  0.00    +0.005 C 
ENDBRANCH   1  23
TORSDOF 7
