REMARK  Name = ZINC45343984
REMARK  14 active torsions:
REMARK  status: ('A' for Active; 'I' for Inactive)
REMARK    1  A    between atoms: C_1  and  C_2
REMARK    2  A    between atoms: C_2  and  C_3
REMARK    3  A    between atoms: C_3  and  C_4
REMARK    4  A    between atoms: C_4  and  N_5
REMARK    5  A    between atoms: C_6  and  N_36
REMARK    6  A    between atoms: C_7  and  N_14
REMARK    7  A    between atoms: N_14  and  C_15
REMARK    8  A    between atoms: C_15  and  C_16
REMARK    9  A    between atoms: C_21  and  O_22
REMARK   10  A    between atoms: O_22  and  C_23
REMARK   11  A    between atoms: C_24  and  C_26
REMARK   12  A    between atoms: C_27  and  C_28
REMARK   13  A    between atoms: C_31  and  C_35
REMARK   14  A    between atoms: C_33  and  C_34
REMARK                            x       y       z     vdW  Elec       q    Type
REMARK                         _______ _______ _______ _____ _____    ______ ____
ROOT
ATOM      1  N   UNL     1      -5.297  -3.648   2.303  0.00  0.00    -0.256 N 
ATOM      2  C   UNL     1      -4.625  -3.379   3.439  0.00  0.00    +0.244 C 
ATOM      3  O   UNL     1      -3.467  -3.004   3.388  0.00  0.00    -0.270 OA
ENDROOT
BRANCH   1   6
ATOM      4  N   UNL     1      -3.774  -1.903  -0.548  0.00  0.00    -0.280 N 
ATOM      5  C   UNL     1      -4.360  -2.114   0.678  0.00  0.00    +0.127 A 
ATOM      6  C   UNL     1      -4.696  -3.399   1.052  0.00  0.00    +0.140 A 
ATOM      7  C   UNL     1      -4.428  -4.457   0.163  0.00  0.00    +0.277 A 
ATOM      8  O   UNL     1      -4.715  -5.603   0.468  0.00  0.00    -0.266 OA
ATOM      9  N   UNL     1      -3.852  -4.196  -1.027  0.00  0.00    -0.273 N 
ATOM     10  H   UNL     1      -3.667  -4.924  -1.641  0.00  0.00    +0.173 HD
ATOM     11  C   UNL     1      -3.536  -2.936  -1.376  0.00  0.00    +0.331 A 
ATOM     12  O   UNL     1      -3.022  -2.728  -2.458  0.00  0.00    -0.246 OA
BRANCH   5  13
ATOM     13  N   UNL     1      -4.607  -1.057   1.522  0.00  0.00    -0.343 N 
ATOM     14  H   UNL     1      -4.289  -0.170   1.293  0.00  0.00    +0.144 HD
ATOM     15  H   UNL     1      -5.099  -1.199   2.345  0.00  0.00    +0.144 HD
ENDBRANCH   5  13
BRANCH   4  16
ATOM     16  C   UNL     1      -3.412  -0.544  -0.959  0.00  0.00    +0.128 C 
BRANCH  16  17
ATOM     17  C   UNL     1      -4.593   0.100  -1.689  0.00  0.00    +0.021 C 
BRANCH  17  19
ATOM     18  C   UNL     1      -5.395   2.163  -2.848  0.00  0.00    +0.004 C 
ATOM     19  C   UNL     1      -4.215   1.519  -2.117  0.00  0.00    -0.002 C 
ENDBRANCH  17  19
ENDBRANCH  16  17
ENDBRANCH   4  16
ENDBRANCH   1   6
BRANCH   2  20
ATOM     20  C   UNL     1      -5.285  -3.538   4.736  0.00  0.00    +0.068 C 
ATOM     21  C   UNL     1      -4.649  -3.171   5.866  0.00  0.00    +0.013 C 
BRANCH  21  22
ATOM     22  C   UNL     1      -5.262  -3.442   7.177  0.00  0.00    -0.022 A 
ATOM     23  C   UNL     1      -6.439  -4.192   7.261  0.00  0.00    +0.008 A 
ATOM     24  C   UNL     1      -7.007  -4.442   8.492  0.00  0.00    +0.004 A 
ATOM     25  C   UNL     1      -6.415  -3.951   9.644  0.00  0.00    -0.050 A 
ATOM     26  C   UNL     1      -5.250  -3.208   9.569  0.00  0.00    +0.007 A 
ATOM     27  C   UNL     1      -4.667  -2.955   8.345  0.00  0.00    -0.043 A 
ATOM     28  C   UNL     1      -3.394  -2.151   8.266  0.00  0.00    +0.044 C 
ATOM     29  C   UNL     1      -7.042  -4.228  10.986  0.00  0.00    +0.044 C 
ENDBRANCH  21  22
ENDBRANCH   2  20
BRANCH   1  30
ATOM     30  C   UNL     1      -6.653  -4.199   2.367  0.00  0.00    +0.153 C 
BRANCH  30  31
ATOM     31  C   UNL     1      -7.655  -3.075   2.309  0.00  0.00    +0.012 A 
ATOM     32  C   UNL     1      -8.233  -2.604   3.472  0.00  0.00    +0.009 A 
ATOM     33  C   UNL     1      -9.153  -1.574   3.420  0.00  0.00    +0.001 A 
ATOM     34  C   UNL     1      -9.497  -1.011   2.204  0.00  0.00    +0.004 A 
ATOM     35  C   UNL     1      -8.922  -1.479   1.039  0.00  0.00    +0.046 A 
ATOM     36  C   UNL     1      -7.994  -2.509   1.089  0.00  0.00    +0.125 A 
BRANCH  36  37
ATOM     37  O   UNL     1      -7.422  -2.967  -0.056  0.00  0.00    -0.495 OA
ATOM     38  C   UNL     1      -7.742  -2.273  -1.263  0.00  0.00    +0.277 C 
ENDBRANCH  36  37
ENDBRANCH  30  31
ENDBRANCH   1  30
TORSDOF 10
