REMARK  Name = ZINC12526116
REMARK  9 active torsions:
REMARK  status: ('A' for Active; 'I' for Inactive)
REMARK    1  A    between atoms: C_1  and  C_2
REMARK    2  A    between atoms: C_5  and  N_8
REMARK    3  A    between atoms: N_8  and  C_9
REMARK    4  A    between atoms: C_14  and  N_15
REMARK    5  A    between atoms: N_15  and  S_16
REMARK    6  A    between atoms: S_16  and  C_19
REMARK    7  A    between atoms: C_22  and  S_25
REMARK    8  A    between atoms: S_25  and  N_28
REMARK    9  A    between atoms: N_28  and  C_29
REMARK                            x       y       z     vdW  Elec       q    Type
REMARK                         _______ _______ _______ _____ _____    ______ ____
ROOT
ATOM      1  N   UNL     1       1.127   6.274   0.223  0.00  0.00    -0.214 N 
ATOM      2  H   UNL     1       0.365   5.905   0.697  0.00  0.00    +0.174 HD
ENDROOT
BRANCH   1   8
ATOM      3  C   UNL     1       2.382   4.204   0.223  0.00  0.00    +0.054 A 
ATOM      4  C   UNL     1       3.600   3.540   0.227  0.00  0.00    +0.025 A 
ATOM      5  C   UNL     1       4.780   4.261   0.244  0.00  0.00    +0.002 A 
ATOM      6  C   UNL     1       4.750   5.643   0.258  0.00  0.00    +0.002 A 
ATOM      7  C   UNL     1       3.541   6.313   0.255  0.00  0.00    +0.026 A 
ATOM      8  C   UNL     1       2.352   5.598   0.232  0.00  0.00    +0.069 A 
BRANCH   3   9
ATOM      9  N   UNL     1       1.186   3.476   0.206  0.00  0.00    -0.313 N 
ATOM     10  H   UNL     1       0.340   3.936   0.094  0.00  0.00    +0.152 HD
BRANCH   9  15
ATOM     11  C   UNL     1       1.288  -2.164   0.787  0.00  0.00    +0.044 C 
ATOM     12  C   UNL     1       1.261  -0.665   0.632  0.00  0.00    -0.050 A 
ATOM     13  C   UNL     1       2.076   0.124   1.423  0.00  0.00    +0.005 A 
ATOM     14  C   UNL     1       2.054   1.498   1.284  0.00  0.00    +0.023 A 
ATOM     15  C   UNL     1       1.211   2.087   0.349  0.00  0.00    +0.031 A 
ATOM     16  C   UNL     1       0.394   1.290  -0.444  0.00  0.00    +0.023 A 
ATOM     17  C   UNL     1       0.422  -0.083  -0.299  0.00  0.00    +0.005 A 
ENDBRANCH   9  15
ENDBRANCH   3   9
ENDBRANCH   1   8
BRANCH   1  18
ATOM     18  S   UNL     1       0.976   7.705  -0.597  0.00  0.00    +0.072 S 
ATOM     19  O   UNL     1      -0.394   8.075  -0.520  0.00  0.00    -0.150 OA
ATOM     20  O   UNL     1       2.021   8.550  -0.135  0.00  0.00    -0.150 OA
BRANCH  18  21
ATOM     21  C   UNL     1       1.312   7.370  -2.294  0.00  0.00    +0.109 A 
ATOM     22  C   UNL     1       2.604   7.473  -2.776  0.00  0.00    +0.031 A 
ATOM     23  C   UNL     1       2.869   7.207  -4.106  0.00  0.00    +0.030 A 
ATOM     24  C   UNL     1       1.840   6.846  -4.957  0.00  0.00    +0.105 A 
ATOM     25  C   UNL     1       0.548   6.749  -4.476  0.00  0.00    +0.030 A 
ATOM     26  C   UNL     1       0.284   7.011  -3.145  0.00  0.00    +0.031 A 
BRANCH  24  27
ATOM     27  S   UNL     1       2.176   6.513  -6.654  0.00  0.00    +0.059 S 
ATOM     28  O   UNL     1       3.546   6.143  -6.731  0.00  0.00    -0.153 OA
ATOM     29  O   UNL     1       1.132   5.667  -7.116  0.00  0.00    -0.153 OA
BRANCH  27  30
ATOM     30  N   UNL     1       2.025   7.943  -7.474  0.00  0.00    -0.187 NA
ATOM     31  H   UNL     1       1.324   8.052  -8.135  0.00  0.00    +0.148 HD
BRANCH  30  32
ATOM     32  C   UNL     1       2.950   9.046  -7.200  0.00  0.00    +0.077 C 
ATOM     33  C   UNL     1       2.402  10.470  -7.303  0.00  0.00    +0.022 C 
ATOM     34  C   UNL     1       3.354   9.938  -8.376  0.00  0.00    +0.022 C 
ENDBRANCH  30  32
ENDBRANCH  27  30
ENDBRANCH  24  27
ENDBRANCH  18  21
ENDBRANCH   1  18
TORSDOF 8
