REMARK  Name = ZINC12362138
REMARK  5 active torsions:
REMARK  status: ('A' for Active; 'I' for Inactive)
REMARK    1  A    between atoms: C_4  and  C_7
REMARK    2  A    between atoms: C_7  and  N_50
REMARK    3  A    between atoms: C_10  and  N_13
REMARK    4  A    between atoms: N_13  and  S_14
REMARK    5  A    between atoms: S_14  and  C_17
REMARK                            x       y       z     vdW  Elec       q    Type
REMARK                         _______ _______ _______ _____ _____    ______ ____
ROOT
ATOM      1  N   UNL     1      -5.179  -1.333   3.767  0.00  0.00    -0.189 NA
ATOM      2  H   UNL     1      -5.994  -1.851   3.679  0.00  0.00    +0.148 HD
ENDROOT
BRANCH   1   5
ATOM      3  C   UNL     1      -4.236  -3.774   5.661  0.00  0.00    -0.077 C 
ATOM      4  C   UNL     1      -3.766  -2.299   5.550  0.00  0.00    -0.000 C 
ATOM      5  C   UNL     1      -3.907  -2.008   4.038  0.00  0.00    +0.058 C 
ATOM      6  C   UNL     1      -3.878  -3.388   3.356  0.00  0.00    -0.058 C 
ATOM      7  N   UNL     1      -3.699  -4.370   4.432  0.00  0.00    +0.383 N 
ATOM      8  H   UNL     1      -2.700  -4.573   4.554  0.00  0.00    -0.081 HD
BRANCH   7   9
ATOM      9  C   UNL     1      -4.421  -5.635   4.102  0.00  0.00    -0.043 C 
BRANCH   9  13
ATOM     10  C   UNL     1      -4.430  -8.203   7.516  0.00  0.00    +0.000 A 
ATOM     11  C   UNL     1      -5.451  -7.289   7.336  0.00  0.00    +0.000 A 
ATOM     12  C   UNL     1      -5.448  -6.458   6.231  0.00  0.00    +0.002 A 
ATOM     13  C   UNL     1      -4.424  -6.541   5.307  0.00  0.00    -0.064 A 
ATOM     14  C   UNL     1      -3.405  -7.459   5.484  0.00  0.00    +0.002 A 
ATOM     15  C   UNL     1      -3.406  -8.286   6.591  0.00  0.00    +0.000 A 
ENDBRANCH   9  13
ENDBRANCH   7   9
ENDBRANCH   1   5
BRANCH   1  16
ATOM     16  S   UNL     1      -5.224   0.315   3.608  0.00  0.00    +0.059 S 
ATOM     17  O   UNL     1      -4.518   0.849   4.719  0.00  0.00    -0.153 OA
ATOM     18  O   UNL     1      -6.574   0.658   3.326  0.00  0.00    -0.153 OA
BRANCH  16  19
ATOM     19  C   UNL     1      -4.290   0.726   2.172  0.00  0.00    +0.106 A 
ATOM     20  C   UNL     1      -4.913   0.795   0.940  0.00  0.00    +0.030 A 
ATOM     21  C   UNL     1      -4.184   1.117  -0.188  0.00  0.00    +0.025 A 
ATOM     22  C   UNL     1      -2.822   1.371  -0.083  0.00  0.00    +0.037 A 
ATOM     23  C   UNL     1      -2.200   1.301   1.156  0.00  0.00    -0.024 A 
ATOM     24  C   UNL     1      -2.934   0.979   2.280  0.00  0.00    +0.034 A 
ATOM     25  C   UNL     1      -0.725   1.577   1.269  0.00  0.00    +0.046 C 
ATOM     26  C   UNL     1      -0.013   1.086   0.008  0.00  0.00    +0.101 C 
ATOM     27  C   UNL     1      -0.737   1.583  -1.214  0.00  0.00    +0.218 C 
ATOM     28  O   UNL     1      -0.105   1.884  -2.204  0.00  0.00    -0.275 OA
ATOM     29  N   UNL     1      -2.078   1.697  -1.220  0.00  0.00    -0.285 N 
ATOM     30  H   UNL     1      -2.531   2.008  -2.020  0.00  0.00    +0.155 HD
ENDBRANCH  16  19
ENDBRANCH   1  16
TORSDOF 5
