REMARK  Name = ZINC38811120
REMARK  6 active torsions:
REMARK  status: ('A' for Active; 'I' for Inactive)
REMARK    1  A    between atoms: C_1  and  C_2
REMARK    2  A    between atoms: C_7  and  N_8
REMARK    3  A    between atoms: C_12  and  C_17
REMARK    4  A    between atoms: C_13  and  C_15
REMARK    5  A    between atoms: C_19  and  C_24
REMARK    6  A    between atoms: C_21  and  N_23
REMARK                            x       y       z     vdW  Elec       q    Type
REMARK                         _______ _______ _______ _____ _____    ______ ____
ROOT
ATOM      1  N   UNL     1       0.025  -0.016   2.416  0.00  0.00    -0.297 N 
ATOM      2  C   UNL     1      -1.111   0.354   3.118  0.00  0.00    +0.148 A 
ATOM      3  C   UNL     1      -0.790   1.031   4.297  0.00  0.00    +0.093 A 
ATOM      4  N   UNL     1      -1.734   1.466   5.104  0.00  0.00    -0.234 NA
ATOM      5  C   UNL     1      -3.016   1.263   4.805  0.00  0.00    +0.176 A 
ATOM      6  C   UNL     1      -3.351   0.583   3.621  0.00  0.00    +0.178 A 
ATOM      7  N   UNL     1      -2.392   0.149   2.813  0.00  0.00    -0.217 NA
ATOM      8  C   UNL     1       0.717   1.125   4.396  0.00  0.00    +0.110 C 
ATOM      9  C   UNL     1       1.228   0.413   3.132  0.00  0.00    +0.037 C 
ENDROOT
BRANCH   8  10
ATOM     10  C   UNL     1       1.209   0.416   5.631  0.00  0.00    +0.117 A 
ATOM     11  N   UNL     1       2.237   0.781   6.340  0.00  0.00    -0.232 NA
ATOM     12  C   UNL     1       2.401  -0.075   7.381  0.00  0.00    +0.089 A 
ATOM     13  C   UNL     1       3.322  -0.154   8.429  0.00  0.00    +0.030 A 
ATOM     14  C   UNL     1       3.224  -1.160   9.348  0.00  0.00    +0.002 A 
ATOM     15  C   UNL     1       2.216  -2.109   9.254  0.00  0.00    +0.002 A 
ATOM     16  C   UNL     1       1.296  -2.051   8.228  0.00  0.00    +0.028 A 
ATOM     17  C   UNL     1       1.380  -1.036   7.285  0.00  0.00    +0.066 A 
ATOM     18  N   UNL     1       0.639  -0.695   6.172  0.00  0.00    -0.341 N 
ATOM     19  H   UNL     1      -0.142  -1.161   5.835  0.00  0.00    +0.167 HD
ENDBRANCH   8  10
BRANCH   1  26
ATOM     20  C   UNL     1      -0.018   1.503   0.010  0.00  0.00    +0.045 C 
ATOM     21  C   UNL     1       0.002  -0.004   0.002  0.00  0.00    -0.029 A 
ATOM     22  C   UNL     1       0.006  -0.689  -1.198  0.00  0.00    +0.005 A 
ATOM     23  C   UNL     1       0.025  -2.071  -1.206  0.00  0.00    +0.000 A 
ATOM     24  C   UNL     1       0.041  -2.773  -0.014  0.00  0.00    +0.002 A 
ATOM     25  C   UNL     1       0.036  -2.095   1.188  0.00  0.00    +0.024 A 
ATOM     26  C   UNL     1       0.023  -0.706   1.200  0.00  0.00    +0.037 A 
ENDBRANCH   1  26
BRANCH   9  27
ATOM     27  N   UNL     1       2.047  -0.751   3.496  0.00  0.00    +0.391 N 
ATOM     28  H   UNL     1       2.340  -1.231   2.659  0.00  0.00    -0.087 HD
ATOM     29  H   UNL     1       2.860  -0.444   4.009  0.00  0.00    -0.087 HD
ATOM     30  H   UNL     1       1.504  -1.377   4.071  0.00  0.00    -0.087 HD
ENDBRANCH   9  27
BRANCH   6  31
ATOM     31  C   UNL     1      -4.726   0.358   3.287  0.00  0.00    +0.122 C 
ATOM     32  N   UNL     1      -5.816   0.180   3.023  0.00  0.00    -0.189 NA
ENDBRANCH   6  31
BRANCH   5  33
ATOM     33  C   UNL     1      -4.045   1.735   5.682  0.00  0.00    +0.122 C 
ATOM     34  N   UNL     1      -4.861   2.109   6.378  0.00  0.00    -0.189 NA
ENDBRANCH   5  33
TORSDOF 5
