REMARK  Name = ZINC38683758
REMARK  17 active torsions:
REMARK  status: ('A' for Active; 'I' for Inactive)
REMARK    1  A    between atoms: C_1  and  C_2
REMARK    2  A    between atoms: C_2  and  C_3
REMARK    3  A    between atoms: C_3  and  O_4
REMARK    4  A    between atoms: O_4  and  C_5
REMARK    5  A    between atoms: C_8  and  C_14
REMARK    6  A    between atoms: C_10  and  O_11
REMARK    7  A    between atoms: O_11  and  C_12
REMARK    8  A    between atoms: C_12  and  C_13
REMARK    9  A    between atoms: C_19  and  O_28
REMARK   10  A    between atoms: C_23  and  N_27
REMARK   11  A    between atoms: C_24  and  C_25
REMARK   12  A    between atoms: O_28  and  C_29
REMARK   13  A    between atoms: C_29  and  C_31
REMARK   14  A    between atoms: C_34  and  C_37
REMARK   15  A    between atoms: C_37  and  C_38
REMARK   16  A    between atoms: C_37  and  C_39
REMARK   17  A    between atoms: C_37  and  C_40
REMARK                            x       y       z     vdW  Elec       q    Type
REMARK                         _______ _______ _______ _____ _____    ______ ____
ROOT
ATOM      1  C   UNL     1       3.291  -4.499   5.521  0.00  0.00    +0.098 C 
ATOM      2  C   UNL     1       2.622  -4.114   6.814  0.00  0.00    +0.008 A 
ATOM      3  C   UNL     1       1.371  -4.625   7.110  0.00  0.00    +0.012 A 
ATOM      4  C   UNL     1       0.742  -4.283   8.291  0.00  0.00    +0.047 A 
ATOM      5  C   UNL     1       1.366  -3.425   9.187  0.00  0.00    +0.135 A 
ATOM      6  C   UNL     1       2.619  -2.913   8.893  0.00  0.00    +0.093 A 
ATOM      7  C   UNL     1       3.250  -3.257   7.704  0.00  0.00    +0.138 A 
ATOM      8  O   UNL     1       4.476  -2.748   7.431  0.00  0.00    -0.441 OA
ATOM      9  C   UNL     1       5.260  -3.341   6.516  0.00  0.00    +0.199 C 
ATOM     10  C   UNL     1       4.758  -4.180   5.583  0.00  0.00    +0.098 C 
ENDROOT
BRANCH   1  14
ATOM     11  C   UNL     1       1.508  -2.317   2.304  0.00  0.00    +0.162 A 
ATOM     12  C   UNL     1       2.126  -1.642   3.344  0.00  0.00    +0.050 A 
ATOM     13  C   UNL     1       2.702  -2.350   4.382  0.00  0.00    +0.008 A 
ATOM     14  C   UNL     1       2.662  -3.732   4.386  0.00  0.00    -0.031 A 
ATOM     15  C   UNL     1       2.047  -4.412   3.352  0.00  0.00    +0.054 A 
ATOM     16  C   UNL     1       1.463  -3.708   2.311  0.00  0.00    +0.162 A 
BRANCH  11  17
ATOM     17  O   UNL     1       0.941  -1.622   1.281  0.00  0.00    -0.488 OA
BRANCH  17  18
ATOM     18  C   UNL     1       1.025  -0.197   1.341  0.00  0.00    +0.229 C 
BRANCH  18  20
ATOM     19  C   UNL     1       0.428   1.933   0.178  0.00  0.00    +0.007 C 
ATOM     20  C   UNL     1       0.337   0.406   0.114  0.00  0.00    +0.038 C 
ENDBRANCH  18  20
ENDBRANCH  17  18
ENDBRANCH  11  17
BRANCH  16  21
ATOM     21  O   UNL     1       0.852  -4.375   1.295  0.00  0.00    -0.489 OA
BRANCH  21  22
ATOM     22  C   UNL     1       0.844  -5.802   1.369  0.00  0.00    +0.226 C 
ATOM     23  C   UNL     1       0.118  -6.371   0.148  0.00  0.00    +0.048 C 
ENDBRANCH  21  22
ENDBRANCH  16  21
ENDBRANCH   1  14
BRANCH   9  24
ATOM     24  N   UNL     1       6.609  -3.086   6.527  0.00  0.00    -0.328 N 
ATOM     25  H   UNL     1       6.983  -2.485   7.191  0.00  0.00    +0.145 HD
ATOM     26  H   UNL     1       7.188  -3.507   5.873  0.00  0.00    +0.145 HD
ENDBRANCH   9  24
BRANCH  10  27
ATOM     27  C   UNL     1       5.648  -4.780   4.635  0.00  0.00    +0.101 C 
ATOM     28  N   UNL     1       6.353  -5.256   3.882  0.00  0.00    -0.191 NA
ENDBRANCH  10  27
BRANCH   5  29
ATOM     29  O   UNL     1       0.749  -3.088  10.349  0.00  0.00    -0.422 OA
BRANCH  29  30
ATOM     30  C   UNL     1       0.606  -4.042  11.290  0.00  0.00    +0.344 C 
ATOM     31  O   UNL     1       1.115  -5.134  11.129  0.00  0.00    -0.245 OA
BRANCH  30  32
ATOM     32  C   UNL     1      -0.168  -3.761  12.516  0.00  0.00    +0.059 A 
ATOM     33  C   UNL     1      -0.759  -2.510  12.701  0.00  0.00    +0.015 A 
ATOM     34  C   UNL     1      -1.481  -2.254  13.848  0.00  0.00    +0.005 A 
ATOM     35  C   UNL     1      -1.621  -3.235  14.814  0.00  0.00    -0.042 A 
ATOM     36  C   UNL     1      -1.039  -4.477  14.637  0.00  0.00    +0.005 A 
ATOM     37  C   UNL     1      -0.318  -4.748  13.492  0.00  0.00    +0.015 A 
BRANCH  35  38
ATOM     38  C   UNL     1      -2.411  -2.948  16.065  0.00  0.00    -0.013 C 
ATOM     39  C   UNL     1      -3.850  -2.589  15.688  0.00  0.00    +0.015 C 
ATOM     40  C   UNL     1      -2.413  -4.187  16.962  0.00  0.00    +0.015 C 
ATOM     41  C   UNL     1      -1.773  -1.777  16.814  0.00  0.00    +0.015 C 
ENDBRANCH  35  38
ENDBRANCH  30  32
ENDBRANCH  29  30
ENDBRANCH   5  29
TORSDOF 12
