REMARK  Name = ZINC40069533
REMARK  11 active torsions:
REMARK  status: ('A' for Active; 'I' for Inactive)
REMARK    1  A    between atoms: C_1  and  C_2
REMARK    2  A    between atoms: C_2  and  C_3
REMARK    3  A    between atoms: C_2  and  C_4
REMARK    4  A    between atoms: C_2  and  C_5
REMARK    5  A    between atoms: C_8  and  C_11
REMARK    6  A    between atoms: C_11  and  C_16
REMARK    7  A    between atoms: N_18  and  C_19
REMARK    8  A    between atoms: C_19  and  C_20
REMARK    9  A    between atoms: C_20  and  C_21
REMARK   10  A    between atoms: C_24  and  S_27
REMARK   11  A    between atoms: S_27  and  N_30
REMARK                            x       y       z     vdW  Elec       q    Type
REMARK                         _______ _______ _______ _____ _____    ______ ____
ROOT
ATOM      1  C   UNL     1       2.807  -3.372  -4.732  0.00  0.00    +0.224 C 
ATOM      2  O   UNL     1       3.894  -3.906  -4.675  0.00  0.00    -0.275 OA
ATOM      3  N   UNL     1       1.689  -4.122  -4.776  0.00  0.00    -0.314 N 
ATOM      4  H   UNL     1       0.824  -3.698  -4.894  0.00  0.00    +0.149 HD
ENDROOT
BRANCH   1   5
ATOM      5  C   UNL     1       2.707  -1.868  -4.752  0.00  0.00    +0.072 C 
ATOM      6  C   UNL     1       1.912  -1.409  -5.987  0.00  0.00    +0.021 C 
ATOM      7  C   UNL     1       2.862  -0.524  -6.819  0.00  0.00    +0.001 C 
ATOM      8  C   UNL     1       4.279  -0.985  -6.395  0.00  0.00    +0.001 C 
ATOM      9  C   UNL     1       4.113  -1.246  -4.878  0.00  0.00    +0.021 C 
BRANCH   5  13
ATOM     10  C   UNL     1       0.804  -0.481  -1.188  0.00  0.00    -0.042 A 
ATOM     11  C   UNL     1       1.091   0.406  -2.209  0.00  0.00    +0.004 A 
ATOM     12  C   UNL     1       1.707  -0.043  -3.362  0.00  0.00    +0.005 A 
ATOM     13  C   UNL     1       2.036  -1.379  -3.495  0.00  0.00    -0.032 A 
ATOM     14  C   UNL     1       1.750  -2.265  -2.474  0.00  0.00    +0.005 A 
ATOM     15  C   UNL     1       1.138  -1.816  -1.319  0.00  0.00    +0.004 A 
BRANCH  10  17
ATOM     16  C   UNL     1       1.039  -0.264   1.271  0.00  0.00    +0.015 C 
ATOM     17  C   UNL     1       0.133   0.009   0.069  0.00  0.00    -0.013 C 
ATOM     18  C   UNL     1      -1.197  -0.725   0.256  0.00  0.00    +0.015 C 
ATOM     19  C   UNL     1      -0.126   1.512  -0.044  0.00  0.00    +0.015 C 
ENDBRANCH  10  17
ENDBRANCH   5  13
ENDBRANCH   1   5
BRANCH   3  20
ATOM     20  C   UNL     1       1.778  -5.579  -4.646  0.00  0.00    +0.109 C 
BRANCH  20  21
ATOM     21  C   UNL     1       0.376  -6.185  -4.729  0.00  0.00    +0.054 C 
BRANCH  21  22
ATOM     22  C   UNL     1       0.469  -7.684  -4.595  0.00  0.00    -0.046 A 
ATOM     23  C   UNL     1       0.630  -8.470  -5.721  0.00  0.00    +0.005 A 
ATOM     24  C   UNL     1       0.714  -9.844  -5.598  0.00  0.00    +0.029 A 
ATOM     25  C   UNL     1       0.638 -10.432  -4.349  0.00  0.00    +0.105 A 
ATOM     26  C   UNL     1       0.478  -9.646  -3.224  0.00  0.00    +0.029 A 
ATOM     27  C   UNL     1       0.397  -8.272  -3.346  0.00  0.00    +0.005 A 
BRANCH  25  28
ATOM     28  S   UNL     1       0.745 -12.184  -4.193  0.00  0.00    +0.056 S 
ATOM     29  O   UNL     1       0.099 -12.523  -2.973  0.00  0.00    -0.153 OA
ATOM     30  O   UNL     1       0.345 -12.728  -5.443  0.00  0.00    -0.153 OA
BRANCH  28  31
ATOM     31  N   UNL     1       2.346 -12.562  -4.002  0.00  0.00    -0.204 NA
ATOM     32  H   UNL     1       3.013 -11.858  -3.994  0.00  0.00    +0.144 HD
ATOM     33  H   UNL     1       2.616 -13.488  -3.898  0.00  0.00    +0.144 HD
ENDBRANCH  28  31
ENDBRANCH  25  28
ENDBRANCH  21  22
ENDBRANCH  20  21
ENDBRANCH   3  20
TORSDOF 8
