REMARK  Name = ZINC12281474
REMARK  6 active torsions:
REMARK  status: ('A' for Active; 'I' for Inactive)
REMARK    1  A    between atoms: C_4  and  C_26
REMARK    2  A    between atoms: C_5  and  C_7
REMARK    3  A    between atoms: C_14  and  C_17
REMARK    4  A    between atoms: C_17  and  N_18
REMARK    5  A    between atoms: C_19  and  C_21
REMARK    6  A    between atoms: C_21  and  N_22
REMARK                            x       y       z     vdW  Elec       q    Type
REMARK                         _______ _______ _______ _____ _____    ______ ____
ROOT
ATOM      1  C   UNL     1       1.168   3.570   0.010  0.00  0.00    +0.025 A 
ATOM      2  C   UNL     1       1.661   4.276  -1.083  0.00  0.00    +0.012 A 
ATOM      3  C   UNL     1       1.650   5.656  -1.081  0.00  0.00    +0.001 A 
ATOM      4  C   UNL     1       1.151   6.340   0.015  0.00  0.00    +0.007 A 
ATOM      5  C   UNL     1       0.665   5.649   1.103  0.00  0.00    -0.002 A 
ATOM      6  C   UNL     1       0.653   4.261   1.117  0.00  0.00    +0.132 A 
ATOM      7  O   UNL     1       0.108   3.783   2.268  0.00  0.00    -0.486 OA
ATOM      8  C   UNL     1       0.131   4.817   3.267  0.00  0.00    +0.195 C 
ATOM      9  C   UNL     1       0.085   6.111   2.426  0.00  0.00    +0.085 C 
ENDROOT
BRANCH   1  14
ATOM     10  C   UNL     1       2.401   0.018  -0.022  0.00  0.00    +0.001 A 
ATOM     11  C   UNL     1       1.208  -0.682  -0.014  0.00  0.00    +0.001 A 
ATOM     12  C   UNL     1       0.002  -0.004   0.002  0.00  0.00    +0.013 A 
ATOM     13  C   UNL     1      -0.017   1.376   0.010  0.00  0.00    +0.063 A 
ATOM     14  C   UNL     1       1.182   2.087   0.002  0.00  0.00    -0.003 A 
ATOM     15  C   UNL     1       2.394   1.398  -0.014  0.00  0.00    +0.009 A 
BRANCH  13  16
ATOM     16  C   UNL     1      -1.331   2.113   0.020  0.00  0.00    +0.418 C 
ATOM     17  F   UNL     1      -2.383   1.191   0.020  0.00  0.00    -0.166 F 
ATOM     18  F   UNL     1      -1.410   2.910   1.167  0.00  0.00    -0.166 F 
ATOM     19  F   UNL     1      -1.421   2.923  -1.118  0.00  0.00    -0.166 F 
ENDBRANCH  13  16
ENDBRANCH   1  14
BRANCH   8  20
ATOM     20  C   UNL     1      -1.091   4.713   4.182  0.00  0.00    +0.149 C 
BRANCH  20  21
ATOM     21  N   UNL     1      -1.011   3.478   4.965  0.00  0.00    -0.310 N 
ATOM     22  C   UNL     1      -1.985   3.174   5.846  0.00  0.00    +0.230 C 
ATOM     23  O   UNL     1      -2.928   3.923   5.989  0.00  0.00    -0.274 OA
ATOM     24  H   UNL     1      -0.257   2.878   4.850  0.00  0.00    +0.149 HD
BRANCH  22  25
ATOM     25  C   UNL     1      -1.903   1.903   6.651  0.00  0.00    +0.201 C 
BRANCH  25  26
ATOM     26  N   UNL     1      -3.073   1.804   7.528  0.00  0.00    -0.291 N 
ATOM     27  C   UNL     1      -3.213   0.742   8.346  0.00  0.00    +0.297 C 
ATOM     28  O   UNL     1      -2.370  -0.134   8.356  0.00  0.00    -0.253 OA
ATOM     29  N   UNL     1      -4.290   0.650   9.152  0.00  0.00    -0.313 N 
ATOM     30  H   UNL     1      -3.746   2.502   7.519  0.00  0.00    +0.151 HD
ATOM     31  H   UNL     1      -4.963   1.349   9.144  0.00  0.00    +0.146 HD
ATOM     32  H   UNL     1      -4.391  -0.114   9.741  0.00  0.00    +0.146 HD
ENDBRANCH  25  26
ENDBRANCH  22  25
ENDBRANCH  20  21
ENDBRANCH   8  20
TORSDOF 6
