REMARK  Name = ZINC14548009
REMARK  7 active torsions:
REMARK  status: ('A' for Active; 'I' for Inactive)
REMARK    1  A    between atoms: C_1  and  C_2
REMARK    2  A    between atoms: C_2  and  C_3
REMARK    3  A    between atoms: C_2  and  N_4
REMARK    4  A    between atoms: N_4  and  S_5
REMARK    5  A    between atoms: S_5  and  C_8
REMARK    6  A    between atoms: C_21  and  C_24
REMARK    7  A    between atoms: C_33  and  O_34
REMARK                            x       y       z     vdW  Elec       q    Type
REMARK                         _______ _______ _______ _____ _____    ______ ____
ROOT
ATOM      1  C   UNL     1      -2.555   0.670  -0.210  0.00  0.00    +0.106 A 
ATOM      2  C   UNL     1      -2.352  -0.698  -0.164  0.00  0.00    +0.030 A 
ATOM      3  C   UNL     1      -1.072  -1.207  -0.099  0.00  0.00    +0.025 A 
ATOM      4  C   UNL     1       0.024  -0.351  -0.078  0.00  0.00    +0.031 A 
ATOM      5  C   UNL     1      -0.189   1.030  -0.135  0.00  0.00    -0.018 A 
ATOM      6  C   UNL     1      -1.472   1.530  -0.195  0.00  0.00    +0.034 A 
ATOM      7  C   UNL     1       1.004   1.905  -0.134  0.00  0.00    +0.049 C 
ATOM      8  C   UNL     1       0.954   3.300   0.375  0.00  0.00    -0.023 C 
ATOM      9  C   UNL     1       2.139   3.608   0.887  0.00  0.00    -0.030 C 
ATOM     10  C   UNL     1       3.091   2.395   0.812  0.00  0.00    +0.033 C 
ATOM     11  C   UNL     1       2.085   1.237   0.767  0.00  0.00    +0.029 C 
ATOM     12  C   UNL     1       2.508  -0.019   0.026  0.00  0.00    +0.109 C 
ATOM     13  N   UNL     1       1.313  -0.891   0.006  0.00  0.00    -0.336 N 
ATOM     14  H   UNL     1       1.424  -1.853   0.053  0.00  0.00    +0.147 HD
ENDROOT
BRANCH  12  15
ATOM     15  C   UNL     1       2.927   0.322  -1.381  0.00  0.00    +0.022 A 
ATOM     16  C   UNL     1       2.162  -0.120  -2.472  0.00  0.00    -0.009 A 
ATOM     17  C   UNL     1       0.990  -0.874  -2.284  0.00  0.00    +0.009 A 
ATOM     18  C   UNL     1       0.270  -1.282  -3.364  0.00  0.00    +0.001 A 
ATOM     19  C   UNL     1       0.674  -0.958  -4.659  0.00  0.00    +0.001 A 
ATOM     20  C   UNL     1       1.799  -0.225  -4.879  0.00  0.00    +0.008 A 
ATOM     21  C   UNL     1       2.568   0.214  -3.788  0.00  0.00    -0.017 A 
ATOM     22  C   UNL     1       3.736   0.973  -3.979  0.00  0.00    +0.012 A 
ATOM     23  C   UNL     1       4.458   1.382  -2.901  0.00  0.00    +0.046 A 
ATOM     24  C   UNL     1       4.056   1.058  -1.601  0.00  0.00    +0.122 A 
BRANCH  24  25
ATOM     25  O   UNL     1       4.798   1.481  -0.545  0.00  0.00    -0.506 OA
ATOM     26  H   UNL     1       5.538   0.899  -0.326  0.00  0.00    +0.292 HD
ENDBRANCH  24  25
ENDBRANCH  12  15
BRANCH   1  27
ATOM     27  S   UNL     1      -4.192   1.316  -0.286  0.00  0.00    +0.059 S 
ATOM     28  O   UNL     1      -4.092   2.607  -0.871  0.00  0.00    -0.153 OA
ATOM     29  O   UNL     1      -5.008   0.291  -0.838  0.00  0.00    -0.153 OA
BRANCH  27  30
ATOM     30  N   UNL     1      -4.704   1.540   1.273  0.00  0.00    -0.187 NA
ATOM     31  H   UNL     1      -5.445   1.019   1.620  0.00  0.00    +0.148 HD
BRANCH  30  33
ATOM     32  C   UNL     1      -4.802   3.849   2.073  0.00  0.00    +0.025 C 
ATOM     33  C   UNL     1      -4.037   2.525   2.128  0.00  0.00    +0.070 C 
ATOM     34  C   UNL     1      -4.007   2.013   3.569  0.00  0.00    +0.025 C 
ENDBRANCH  30  33
ENDBRANCH  27  30
ENDBRANCH   1  27
TORSDOF 5
