REMARK  Name = ZINC10216032
REMARK  6 active torsions:
REMARK  status: ('A' for Active; 'I' for Inactive)
REMARK    1  A    between atoms: C_1  and  C_2
REMARK    2  A    between atoms: C_2  and  O_3
REMARK    3  A    between atoms: O_3  and  C_4
REMARK    4  A    between atoms: C_11  and  C_27
REMARK    5  A    between atoms: C_17  and  C_19
REMARK    6  A    between atoms: C_24  and  O_25
REMARK                            x       y       z     vdW  Elec       q    Type
REMARK                         _______ _______ _______ _____ _____    ______ ____
ROOT
ATOM      1  C   UNL     1      -1.498  -1.849   0.006  0.00  0.00    +0.162 A 
ATOM      2  C   UNL     1      -0.387  -2.672  -0.003  0.00  0.00    +0.049 A 
ATOM      3  C   UNL     1      -0.542  -4.045  -0.013  0.00  0.00    +0.004 A 
ATOM      4  C   UNL     1      -1.811  -4.592  -0.022  0.00  0.00    +0.009 A 
ATOM      5  C   UNL     1      -2.926  -3.774  -0.016  0.00  0.00    +0.020 A 
ATOM      6  C   UNL     1      -2.786  -2.396   0.016  0.00  0.00    +0.170 A 
ATOM      7  O   UNL     1      -3.831  -1.530   0.079  0.00  0.00    -0.458 OA
ATOM      8  C   UNL     1      -5.162  -1.990  -0.182  0.00  0.00    +0.346 C 
ATOM      9  N   UNL     1      -5.246  -3.344   0.380  0.00  0.00    -0.203 N 
ATOM     10  C   UNL     1      -4.297  -4.399  -0.053  0.00  0.00    +0.136 C 
ATOM     11  C   UNL     1      -4.472  -5.462   1.040  0.00  0.00    +0.086 C 
ATOM     12  C   UNL     1      -5.715  -5.011   1.780  0.00  0.00    +0.072 C 
ATOM     13  N   UNL     1      -6.079  -3.855   1.359  0.00  0.00    -0.184 NA
ENDROOT
BRANCH  12  14
ATOM     14  C   UNL     1      -6.397  -5.775   2.842  0.00  0.00    +0.041 A 
ATOM     15  C   UNL     1      -5.901  -7.016   3.243  0.00  0.00    +0.033 A 
ATOM     16  C   UNL     1      -6.544  -7.725   4.237  0.00  0.00    +0.042 A 
ATOM     17  C   UNL     1      -7.680  -7.210   4.839  0.00  0.00    +0.023 A 
ATOM     18  C   UNL     1      -8.181  -5.981   4.449  0.00  0.00    +0.047 A 
ATOM     19  C   UNL     1      -7.544  -5.255   3.457  0.00  0.00    +0.126 A 
ATOM     20 CL   UNL     1      -5.927  -9.270   4.736  0.00  0.00    -0.084 Cl
BRANCH  19  21
ATOM     21  O   UNL     1      -8.033  -4.045   3.077  0.00  0.00    -0.506 OA
ATOM     22  H   UNL     1      -8.679  -4.090   2.359  0.00  0.00    +0.292 HD
ENDBRANCH  19  21
ENDBRANCH  12  14
BRANCH   8  23
ATOM     23  C   UNL     1      -6.163  -1.085   0.488  0.00  0.00    +0.165 A 
ATOM     24  C   UNL     1      -6.728   0.006  -0.061  0.00  0.00    +0.050 A 
ATOM     25  C   UNL     1      -7.599   0.549   0.912  0.00  0.00    +0.041 A 
ATOM     26  C   UNL     1      -7.513  -0.242   1.997  0.00  0.00    +0.195 A 
ATOM     27  O   UNL     1      -6.646  -1.233   1.732  0.00  0.00    -0.462 OA
ENDBRANCH   8  23
BRANCH   1  28
ATOM     28  O   UNL     1      -1.339  -0.499   0.012  0.00  0.00    -0.489 OA
BRANCH  28  30
ATOM     29  C   UNL     1      -0.019   1.526   0.010  0.00  0.00    +0.048 C 
ATOM     30  C   UNL     1       0.002  -0.004   0.002  0.00  0.00    +0.226 C 
ENDBRANCH  28  30
ENDBRANCH   1  28
TORSDOF 5
