REMARK  Name = ZINC12421076
REMARK  7 active torsions:
REMARK  status: ('A' for Active; 'I' for Inactive)
REMARK    1  A    between atoms: C_4  and  C_7
REMARK    2  A    between atoms: C_7  and  C_8
REMARK    3  A    between atoms: N_11  and  C_14
REMARK    4  A    between atoms: C_15  and  C_34
REMARK    5  A    between atoms: C_17  and  C_19
REMARK    6  A    between atoms: C_22  and  S_25
REMARK    7  A    between atoms: S_25  and  N_28
REMARK                            x       y       z     vdW  Elec       q    Type
REMARK                         _______ _______ _______ _____ _____    ______ ____
ROOT
ATOM      1  C   UNL     1       2.086   0.719  -0.014  0.00  0.00    +0.227 A 
ATOM      2  C   UNL     1       1.296  -0.420  -0.013  0.00  0.00    +0.201 A 
ATOM      3  N   UNL     1       0.002  -0.004   0.002  0.00  0.00    -0.196 NA
ATOM      4  C   UNL     1      -0.016   1.303   0.009  0.00  0.00    +0.231 A 
ATOM      5  O   UNL     1       1.247   1.771  -0.000  0.00  0.00    -0.420 OA
ENDROOT
BRANCH   1   9
ATOM      6  C   UNL     1       6.103   1.385   0.967  0.00  0.00    -0.004 C 
ATOM      7  C   UNL     1       5.465   2.168  -0.184  0.00  0.00    +0.023 C 
ATOM      8  C   UNL     1       3.943   2.153  -0.024  0.00  0.00    +0.108 C 
ATOM      9  N   UNL     1       3.463   0.765  -0.026  0.00  0.00    -0.299 N 
ATOM     10  C   UNL     1       4.025   0.007   1.098  0.00  0.00    +0.108 C 
ATOM     11  C   UNL     1       5.549  -0.042   0.971  0.00  0.00    +0.023 C 
BRANCH   6  12
ATOM     12  C   UNL     1       7.621   1.346   0.779  0.00  0.00    +0.038 C 
BRANCH  12  16
ATOM     13  C   UNL     1       9.426  -0.533   4.164  0.00  0.00    +0.000 A 
ATOM     14  C   UNL     1       9.039  -1.293   3.076  0.00  0.00    +0.000 A 
ATOM     15  C   UNL     1       8.455  -0.685   1.981  0.00  0.00    +0.003 A 
ATOM     16  C   UNL     1       8.257   0.683   1.974  0.00  0.00    -0.047 A 
ATOM     17  C   UNL     1       8.648   1.444   3.060  0.00  0.00    +0.003 A 
ATOM     18  C   UNL     1       9.228   0.836   4.157  0.00  0.00    +0.000 A 
ENDBRANCH  12  16
ENDBRANCH   6  12
ENDBRANCH   1   9
BRANCH   4  19
ATOM     19  C   UNL     1      -1.234   2.139   0.020  0.00  0.00    +0.037 A 
ATOM     20  C   UNL     1      -1.129   3.531   0.032  0.00  0.00    +0.015 A 
ATOM     21  C   UNL     1      -2.271   4.306   0.037  0.00  0.00    +0.029 A 
ATOM     22  C   UNL     1      -3.518   3.706   0.041  0.00  0.00    +0.106 A 
ATOM     23  C   UNL     1      -3.629   2.327   0.034  0.00  0.00    +0.029 A 
ATOM     24  C   UNL     1      -2.495   1.540   0.023  0.00  0.00    +0.015 A 
BRANCH  22  25
ATOM     25  S   UNL     1      -4.971   4.702   0.054  0.00  0.00    +0.061 S 
ATOM     26  O   UNL     1      -4.604   5.962  -0.492  0.00  0.00    -0.153 OA
ATOM     27  O   UNL     1      -6.013   3.908  -0.496  0.00  0.00    -0.153 OA
BRANCH  25  28
ATOM     28  N   UNL     1      -5.366   4.971   1.639  0.00  0.00    -0.177 NA
ATOM     29  C   UNL     1      -6.265   4.053   2.352  0.00  0.00    +0.109 C 
ATOM     30  C   UNL     1      -5.568   3.590   3.641  0.00  0.00    +0.017 C 
ATOM     31  C   UNL     1      -5.146   4.815   4.455  0.00  0.00    +0.003 C 
ATOM     32  C   UNL     1      -4.153   5.651   3.644  0.00  0.00    +0.017 C 
ATOM     33  C   UNL     1      -4.830   6.135   2.358  0.00  0.00    +0.109 C 
ENDBRANCH  25  28
ENDBRANCH  22  25
ENDBRANCH   4  19
BRANCH   2  34
ATOM     34  C   UNL     1       1.755  -1.777  -0.024  0.00  0.00    +0.124 C 
ATOM     35  N   UNL     1       2.119  -2.853  -0.034  0.00  0.00    -0.189 NA
ENDBRANCH   2  34
TORSDOF 7
