REMARK  Name = ZINC52529160
REMARK  9 active torsions:
REMARK  status: ('A' for Active; 'I' for Inactive)
REMARK    1  A    between atoms: C_1  and  C_2
REMARK    2  A    between atoms: C_2  and  N_3
REMARK    3  A    between atoms: C_7  and  N_8
REMARK    4  A    between atoms: N_8  and  C_9
REMARK    5  A    between atoms: C_14  and  S_15
REMARK    6  A    between atoms: S_15  and  C_16
REMARK    7  A    between atoms: C_16  and  C_17
REMARK    8  A    between atoms: N_22  and  C_25
REMARK    9  A    between atoms: C_25  and  C_26
REMARK                            x       y       z     vdW  Elec       q    Type
REMARK                         _______ _______ _______ _____ _____    ______ ____
ROOT
ATOM      1  N   UNL     1      -5.348  -1.878   2.303  0.00  0.00    -0.319 N 
ATOM      2  H   UNL     1      -5.778  -2.033   1.448  0.00  0.00    +0.152 HD
ENDROOT
BRANCH   1   7
ATOM      3  N   UNL     1      -1.385  -0.475   0.014  0.00  0.00    -0.249 N 
ATOM      4  C   UNL     1      -1.993  -0.709   1.195  0.00  0.00    +0.258 C 
ATOM      5  O   UNL     1      -1.423  -0.484   2.246  0.00  0.00    -0.269 OA
ATOM      6  C   UNL     1      -3.366  -1.244   1.178  0.00  0.00    +0.113 C 
ATOM      7  C   UNL     1      -4.052  -1.508   2.350  0.00  0.00    +0.090 C 
ATOM      8  C   UNL     1      -3.976  -1.485  -0.141  0.00  0.00    +0.258 C 
ATOM      9  O   UNL     1      -5.106  -1.926  -0.236  0.00  0.00    -0.269 OA
ATOM     10  N   UNL     1      -3.247  -1.204  -1.242  0.00  0.00    -0.249 N 
ATOM     11  C   UNL     1      -2.003  -0.713  -1.151  0.00  0.00    +0.149 C 
ATOM     12  S   UNL     1      -1.157  -0.380  -2.602  0.00  0.00    -0.018 S 
BRANCH   3  14
ATOM     13  C   UNL     1      -0.069   1.586   0.004  0.00  0.00    +0.025 C 
ATOM     14  C   UNL     1      -0.020   0.057   0.004  0.00  0.00    +0.112 C 
ENDBRANCH   3  14
BRANCH  10  15
ATOM     15  C   UNL     1      -3.831  -1.435  -2.565  0.00  0.00    +0.112 C 
ATOM     16  C   UNL     1      -4.559  -0.172  -3.029  0.00  0.00    +0.025 C 
ENDBRANCH  10  15
ENDBRANCH   1   7
BRANCH   1  17
ATOM     17  C   UNL     1      -6.073  -2.037   3.489  0.00  0.00    +0.045 A 
ATOM     18  C   UNL     1      -5.462  -1.810   4.714  0.00  0.00    +0.024 A 
ATOM     19  C   UNL     1      -6.180  -1.968   5.884  0.00  0.00    +0.002 A 
ATOM     20  C   UNL     1      -7.508  -2.353   5.840  0.00  0.00    +0.001 A 
ATOM     21  C   UNL     1      -8.126  -2.582   4.625  0.00  0.00    +0.016 A 
ATOM     22  C   UNL     1      -7.415  -2.419   3.444  0.00  0.00    +0.029 A 
BRANCH  22  23
ATOM     23  S   UNL     1      -8.201  -2.703   1.893  0.00  0.00    -0.114 S 
BRANCH  23  24
ATOM     24  C   UNL     1      -9.897  -3.167   2.338  0.00  0.00    +0.169 C 
BRANCH  24  25
ATOM     25  C   UNL     1     -10.689  -3.440   1.086  0.00  0.00    +0.221 C 
ATOM     26  O   UNL     1     -10.161  -3.333  -0.001  0.00  0.00    -0.275 OA
ATOM     27  N   UNL     1     -11.983  -3.804   1.173  0.00  0.00    -0.329 N 
ATOM     28  H   UNL     1     -12.406  -3.890   2.042  0.00  0.00    +0.145 HD
ATOM     29  H   UNL     1     -12.493  -3.980   0.367  0.00  0.00    +0.145 HD
ENDBRANCH  24  25
ENDBRANCH  23  24
ENDBRANCH  22  23
ENDBRANCH   1  17
TORSDOF 7
