REMARK  Name = ZINC33597627
REMARK  8 active torsions:
REMARK  status: ('A' for Active; 'I' for Inactive)
REMARK    1  A    between atoms: C_1  and  O_2
REMARK    2  A    between atoms: O_2  and  C_3
REMARK    3  A    between atoms: C_8  and  C_9
REMARK    4  A    between atoms: N_17  and  C_20
REMARK    5  A    between atoms: C_26  and  C_28
REMARK    6  A    between atoms: C_26  and  C_36
REMARK    7  A    between atoms: C_28  and  C_29
REMARK    8  A    between atoms: C_32  and  O_35
REMARK                            x       y       z     vdW  Elec       q    Type
REMARK                         _______ _______ _______ _____ _____    ______ ____
ROOT
ATOM      1  C   UNL     1       0.018  -2.829  -0.013  0.00  0.00    -0.023 C 
ATOM      2  C   UNL     1       0.588  -2.964   1.396  0.00  0.00    +0.077 C 
ATOM      3  C   UNL     1       1.540  -4.186   1.105  0.00  0.00    +0.086 C 
ATOM      4  C   UNL     1       2.434  -4.145   2.237  0.00  0.00    +0.225 C 
ATOM      5  O   UNL     1       2.954  -5.083   2.802  0.00  0.00    -0.275 OA
ATOM      6  N   UNL     1       2.568  -2.811   2.535  0.00  0.00    -0.239 N 
ATOM      7  C   UNL     1       1.633  -2.020   1.901  0.00  0.00    +0.225 C 
ATOM      8  O   UNL     1       1.650  -0.815   1.770  0.00  0.00    -0.275 OA
ATOM      9  C   UNL     1       0.674  -5.131   0.388  0.00  0.00    +0.052 C 
ATOM     10  N   UNL     1      -0.257  -4.248  -0.410  0.00  0.00    +0.396 N 
ATOM     11  H   UNL     1      -1.213  -4.486  -0.190  0.00  0.00    -0.083 HD
ATOM     12  H   UNL     1      -0.093  -4.365  -1.398  0.00  0.00    -0.083 HD
ENDROOT
BRANCH   1  18
ATOM     13  C   UNL     1      -1.217  -0.658  -0.240  0.00  0.00    +0.122 A 
ATOM     14  C   UNL     1      -2.392   0.080  -0.230  0.00  0.00    +0.046 A 
ATOM     15  C   UNL     1      -3.596  -0.546   0.028  0.00  0.00    +0.004 A 
ATOM     16  C   UNL     1      -3.632  -1.906   0.275  0.00  0.00    +0.000 A 
ATOM     17  C   UNL     1      -2.462  -2.643   0.265  0.00  0.00    +0.005 A 
ATOM     18  C   UNL     1      -1.255  -2.023   0.003  0.00  0.00    -0.019 A 
BRANCH  13  20
ATOM     19  C   UNL     1      -0.066   1.363  -0.734  0.00  0.00    +0.277 C 
ATOM     20  O   UNL     1      -0.030  -0.045  -0.493  0.00  0.00    -0.495 OA
ENDBRANCH  13  20
ENDBRANCH   1  18
BRANCH   6  21
ATOM     21  C   UNL     1       3.588  -2.281   3.443  0.00  0.00    +0.084 C 
ATOM     22  C   UNL     1       2.908  -1.565   4.611  0.00  0.00    +0.023 C 
ATOM     23  C   UNL     1       3.973  -1.012   5.559  0.00  0.00    +0.002 C 
ATOM     24  C   UNL     1       4.864  -0.023   4.804  0.00  0.00    +0.000 C 
ATOM     25  C   UNL     1       5.544  -0.740   3.636  0.00  0.00    +0.002 C 
ATOM     26  C   UNL     1       4.479  -1.293   2.688  0.00  0.00    +0.023 C 
ENDBRANCH   6  21
BRANCH   9  27
ATOM     27  C   UNL     1      -0.085  -5.993   1.364  0.00  0.00    +0.347 C 
ATOM     28  O   UNL     1      -1.304  -5.979   1.369  0.00  0.00    -0.248 OA
ATOM     29  O   UNL     1       0.520  -6.704   2.148  0.00  0.00    -0.248 OA
ENDBRANCH   9  27
BRANCH   9  30
ATOM     30  C   UNL     1       1.503  -6.000  -0.560  0.00  0.00    +0.035 C 
BRANCH  30  31
ATOM     31  C   UNL     1       0.584  -6.874  -1.373  0.00  0.00    -0.048 A 
ATOM     32  C   UNL     1       0.226  -8.124  -0.903  0.00  0.00    +0.007 A 
ATOM     33  C   UNL     1      -0.616  -8.928  -1.647  0.00  0.00    +0.045 A 
ATOM     34  C   UNL     1      -1.103  -8.480  -2.866  0.00  0.00    +0.117 A 
ATOM     35  C   UNL     1      -0.744  -7.225  -3.335  0.00  0.00    +0.045 A 
ATOM     36  C   UNL     1       0.095  -6.423  -2.585  0.00  0.00    +0.007 A 
BRANCH  34  37
ATOM     37  O   UNL     1      -1.932  -9.269  -3.599  0.00  0.00    -0.507 OA
ATOM     38  H   UNL     1      -2.870  -9.145  -3.402  0.00  0.00    +0.292 HD
ENDBRANCH  34  37
ENDBRANCH  30  31
ENDBRANCH   9  30
TORSDOF 7
