REMARK  Name = ZINC13691882
REMARK  5 active torsions:
REMARK  status: ('A' for Active; 'I' for Inactive)
REMARK    1  A    between atoms: C_1  and  S_2
REMARK    2  A    between atoms: S_2  and  N_5
REMARK    3  A    between atoms: N_5  and  C_6
REMARK    4  A    between atoms: C_11  and  C_15
REMARK    5  A    between atoms: C_15  and  N_17
REMARK                            x       y       z     vdW  Elec       q    Type
REMARK                         _______ _______ _______ _____ _____    ______ ____
ROOT
ATOM      1  C   UNL     1       0.942  -1.739  -1.733  0.00  0.00    +0.202 A 
ATOM      2  N   UNL     1       0.584  -2.812  -1.062  0.00  0.00    -0.222 NA
ATOM      3  C   UNL     1       0.849  -4.061  -1.494  0.00  0.00    +0.080 A 
ATOM      4  C   UNL     1       0.520  -5.288  -0.869  0.00  0.00    +0.030 A 
ATOM      5  C   UNL     1       0.859  -6.474  -1.434  0.00  0.00    +0.015 A 
ATOM      6  C   UNL     1       1.546  -6.534  -2.653  0.00  0.00    +0.040 A 
ATOM      7  C   UNL     1       1.887  -5.342  -3.298  0.00  0.00    +0.030 A 
ATOM      8  C   UNL     1       1.543  -4.148  -2.726  0.00  0.00    +0.042 A 
ATOM      9  S   UNL     1       1.751  -2.438  -3.165  0.00  0.00    -0.049 S 
ENDROOT
BRANCH   6  10
ATOM     10  C   UNL     1       1.905  -7.838  -3.248  0.00  0.00    +0.270 C 
ATOM     11  O   UNL     1       2.503  -7.880  -4.310  0.00  0.00    -0.268 OA
BRANCH  10  12
ATOM     12  N   UNL     1       1.574  -8.974  -2.622  0.00  0.00    -0.143 NA
ATOM     13  C   UNL     1       1.803 -10.144  -3.204  0.00  0.00    +0.199 A 
ATOM     14  N   UNL     1       2.469 -10.325  -4.377  0.00  0.00    -0.326 N 
ATOM     15  H   UNL     1       2.855  -9.623  -4.925  0.00  0.00    +0.169 HD
ATOM     16  C   UNL     1       2.502 -11.688  -4.654  0.00  0.00    +0.065 A 
ATOM     17  C   UNL     1       3.041 -12.428  -5.696  0.00  0.00    +0.028 A 
ATOM     18  C   UNL     1       2.915 -13.803  -5.700  0.00  0.00    +0.002 A 
ATOM     19  C   UNL     1       2.253 -14.446  -4.668  0.00  0.00    +0.002 A 
ATOM     20  C   UNL     1       1.713 -13.718  -3.626  0.00  0.00    +0.028 A 
ATOM     21  C   UNL     1       1.835 -12.336  -3.613  0.00  0.00    +0.065 A 
ATOM     22  N   UNL     1       1.414 -11.355  -2.721  0.00  0.00    -0.326 N 
ATOM     23  H   UNL     1       0.925 -11.508  -1.897  0.00  0.00    +0.169 HD
ENDBRANCH  10  12
ENDBRANCH   6  10
BRANCH   1  24
ATOM     24  N   UNL     1       0.740  -0.413  -1.415  0.00  0.00    -0.075 NA
BRANCH  24  26
ATOM     25  C   UNL     1      -0.083   1.806  -0.011  0.00  0.00    +0.220 C 
ATOM     26  S   UNL     1      -0.045  -0.007  -0.015  0.00  0.00    +0.061 S 
ATOM     27  O   UNL     1       0.799  -0.482   1.025  0.00  0.00    -0.154 OA
ATOM     28  O   UNL     1      -1.359  -0.524  -0.174  0.00  0.00    -0.154 OA
ENDBRANCH  24  26
ENDBRANCH   1  24
TORSDOF 4
