REMARK  Name = ZINC15800160
REMARK  9 active torsions:
REMARK  status: ('A' for Active; 'I' for Inactive)
REMARK    1  A    between atoms: C_4  and  C_7
REMARK    2  A    between atoms: C_7  and  C_8
REMARK    3  A    between atoms: C_7  and  C_16
REMARK    4  A    between atoms: C_7  and  C_19
REMARK    5  A    between atoms: C_13  and  C_14
REMARK    6  A    between atoms: C_19  and  C_20
REMARK    7  A    between atoms: C_19  and  C_26
REMARK    8  A    between atoms: C_19  and  C_34
REMARK    9  A    between atoms: C_31  and  C_32
REMARK                            x       y       z     vdW  Elec       q    Type
REMARK                         _______ _______ _______ _____ _____    ______ ____
ROOT
ATOM      1  C   UNL     1      -1.384   2.640  -0.966  0.00  0.00    +0.119 C 
ENDROOT
BRANCH   1   5
ATOM      2  C   UNL     1      -2.296   0.580  -4.595  0.00  0.00    +0.000 A 
ATOM      3  C   UNL     1      -1.835   1.882  -4.637  0.00  0.00    +0.000 A 
ATOM      4  C   UNL     1      -1.540   2.549  -3.463  0.00  0.00    +0.005 A 
ATOM      5  C   UNL     1      -1.706   1.913  -2.247  0.00  0.00    -0.026 A 
ATOM      6  C   UNL     1      -2.161   0.609  -2.205  0.00  0.00    +0.005 A 
ATOM      7  C   UNL     1      -2.461  -0.056  -3.379  0.00  0.00    +0.000 A 
ENDBRANCH   1   5
BRANCH   1   8
ATOM      8  C   UNL     1       0.112   2.743  -0.809  0.00  0.00    -0.009 A 
ATOM      9  C   UNL     1       0.649   3.419   0.267  0.00  0.00    +0.006 A 
ATOM     10  C   UNL     1       2.022   3.510   0.415  0.00  0.00    +0.000 A 
ATOM     11  C   UNL     1       2.864   2.934  -0.519  0.00  0.00    +0.001 A 
ATOM     12  C   UNL     1       2.341   2.260  -1.603  0.00  0.00    +0.019 A 
ATOM     13  C   UNL     1       0.956   2.159  -1.756  0.00  0.00    +0.056 A 
BRANCH  13  14
ATOM     14  C   UNL     1       0.405   1.461  -2.878  0.00  0.00    +0.099 C 
ATOM     15  N   UNL     1      -0.032   0.908  -3.768  0.00  0.00    -0.191 NA
ENDBRANCH  13  14
ENDBRANCH   1   8
BRANCH   1  16
ATOM     16  C   UNL     1      -1.980   4.023  -1.010  0.00  0.00    +0.227 C 
ATOM     17  O   UNL     1      -1.258   4.997  -0.978  0.00  0.00    -0.275 OA
ATOM     18  N   UNL     1      -3.317   4.178  -1.085  0.00  0.00    -0.328 N 
ATOM     19  H   UNL     1      -3.753   5.188  -1.117  0.00  0.00    +0.145 HD
ATOM     20  H   UNL     1      -3.973   3.296  -1.114  0.00  0.00    +0.145 HD
ENDBRANCH   1  16
BRANCH   1  21
ATOM     21  C   UNL     1      -1.969   1.869   0.219  0.00  0.00    +0.119 C 
BRANCH  21  22
ATOM     22  C   UNL     1      -1.518   0.433   0.156  0.00  0.00    -0.026 A 
ATOM     23  C   UNL     1      -0.461   0.075  -0.659  0.00  0.00    +0.005 A 
ATOM     24  C   UNL     1      -0.044  -1.242  -0.714  0.00  0.00    +0.000 A 
ATOM     25  C   UNL     1      -0.691  -2.203   0.040  0.00  0.00    +0.000 A 
ATOM     26  C   UNL     1      -1.752  -1.846   0.852  0.00  0.00    +0.000 A 
ATOM     27  C   UNL     1      -2.166  -0.528   0.909  0.00  0.00    +0.005 A 
ENDBRANCH  21  22
BRANCH  21  28
ATOM     28  C   UNL     1      -1.492   2.490   1.507  0.00  0.00    -0.009 A 
ATOM     29  C   UNL     1      -1.931   3.745   1.874  0.00  0.00    +0.006 A 
ATOM     30  C   UNL     1      -1.498   4.314   3.058  0.00  0.00    +0.000 A 
ATOM     31  C   UNL     1      -0.613   3.634   3.877  0.00  0.00    +0.001 A 
ATOM     32  C   UNL     1      -0.162   2.381   3.519  0.00  0.00    +0.019 A 
ATOM     33  C   UNL     1      -0.600   1.798   2.328  0.00  0.00    +0.056 A 
BRANCH  33  34
ATOM     34  C   UNL     1      -0.136   0.497   1.950  0.00  0.00    +0.099 C 
ATOM     35  N   UNL     1       0.233  -0.535   1.651  0.00  0.00    -0.191 NA
ENDBRANCH  33  34
ENDBRANCH  21  28
BRANCH  21  36
ATOM     36  C   UNL     1      -3.474   1.927   0.161  0.00  0.00    +0.227 C 
ATOM     37  O   UNL     1      -4.101   2.356   1.106  0.00  0.00    -0.275 OA
ATOM     38  N   UNL     1      -4.123   1.506  -0.943  0.00  0.00    -0.328 N 
ATOM     39  H   UNL     1      -5.221   1.547  -0.985  0.00  0.00    +0.145 HD
ATOM     40  H   UNL     1      -3.554   1.120  -1.802  0.00  0.00    +0.145 HD
ENDBRANCH  21  36
ENDBRANCH   1  21
TORSDOF 9
