REMARK  Name = ZINC03882055
REMARK  10 active torsions:
REMARK  status: ('A' for Active; 'I' for Inactive)
REMARK    1  A    between atoms: C_1  and  C_2
REMARK    2  A    between atoms: C_11  and  C_28
REMARK    3  A    between atoms: C_11  and  O_35
REMARK    4  A    between atoms: C_12  and  C_27
REMARK    5  A    between atoms: C_14  and  O_26
REMARK    6  A    between atoms: C_18  and  C_25
REMARK    7  A    between atoms: C_28  and  C_30
REMARK    8  A    between atoms: C_30  and  O_31
REMARK    9  A    between atoms: O_31  and  C_32
REMARK   10  A    between atoms: C_32  and  C_34
REMARK                            x       y       z     vdW  Elec       q    Type
REMARK                         _______ _______ _______ _____ _____    ______ ____
ROOT
ATOM      1  C   UNL     1       2.708   0.590   5.407  0.00  0.00    +0.012 C 
ATOM      2  C   UNL     1       2.611   1.456   4.149  0.00  0.00    +0.013 C 
ATOM      3  C   UNL     1       1.200   1.358   3.560  0.00  0.00    +0.012 C 
ATOM      4  C   UNL     1       1.065   2.322   2.378  0.00  0.00    -0.000 C 
ATOM      5  C   UNL     1      -0.263   2.109   1.693  0.00  0.00    +0.002 C 
ATOM      6  C   UNL     1      -1.445   2.271   2.667  0.00  0.00    +0.008 C 
ATOM      7  C   UNL     1      -2.659   2.475   1.731  0.00  0.00    +0.043 C 
ATOM      8  C   UNL     1      -2.100   2.998   0.394  0.00  0.00    +0.133 C 
ATOM      9  C   UNL     1      -0.566   3.134   0.587  0.00  0.00    +0.009 C 
ATOM     10  C   UNL     1      -0.298   4.557   1.085  0.00  0.00    +0.041 C 
ATOM     11  C   UNL     1       1.082   4.700   1.655  0.00  0.00    +0.120 C 
ATOM     12  C   UNL     1       1.234   3.763   2.858  0.00  0.00    +0.035 C 
ATOM     13  C   UNL     1       2.638   3.943   3.446  0.00  0.00    +0.013 C 
ATOM     14  C   UNL     1       2.873   2.907   4.505  0.00  0.00    -0.053 C 
ATOM     15  C   UNL     1       3.295   3.177   5.718  0.00  0.00    +0.051 C 
ATOM     16  C   UNL     1       3.521   4.572   6.127  0.00  0.00    +0.179 C 
ATOM     17  O   UNL     1       3.938   4.834   7.240  0.00  0.00    -0.288 OA
ATOM     18  C   UNL     1       3.234   5.644   5.159  0.00  0.00    +0.047 C 
ATOM     19  C   UNL     1       2.827   5.337   3.938  0.00  0.00    -0.012 C 
ATOM     20  C   UNL     1       3.647   3.702   2.323  0.00  0.00    +0.020 C 
ATOM     21  C   UNL     1       0.203   2.828  -0.700  0.00  0.00    +0.015 C 
ENDROOT
BRANCH  11  22
ATOM     22  O   UNL     1       2.036   4.348   0.651  0.00  0.00    -0.391 OA
ATOM     23  H   UNL     1       1.996   4.902  -0.141  0.00  0.00    +0.210 HD
ENDBRANCH  11  22
BRANCH   8  24
ATOM     24  C   UNL     1      -2.398   2.018  -0.711  0.00  0.00    +0.202 C 
ATOM     25  O   UNL     1      -1.691   1.051  -0.867  0.00  0.00    -0.291 OA
BRANCH  24  26
ATOM     26  C   UNL     1      -3.577   2.244  -1.621  0.00  0.00    +0.309 C 
BRANCH  26  27
ATOM     27  O   UNL     1      -3.650   1.169  -2.595  0.00  0.00    -0.457 OA
BRANCH  27  28
ATOM     28  C   UNL     1      -4.652   1.221  -3.486  0.00  0.00    +0.304 C 
ATOM     29  O   UNL     1      -5.443   2.135  -3.454  0.00  0.00    -0.251 OA
ATOM     30  C   UNL     1      -4.792   0.141  -4.528  0.00  0.00    +0.136 C 
ENDBRANCH  27  28
ENDBRANCH  26  27
ENDBRANCH  24  26
ENDBRANCH   8  24
BRANCH   8  31
ATOM     31  O   UNL     1      -2.671   4.272   0.088  0.00  0.00    -0.380 OA
ATOM     32  H   UNL     1      -3.629   4.252  -0.044  0.00  0.00    +0.211 HD
ENDBRANCH   8  31
TORSDOF 6
