REMARK  Name = ZINC05927761
REMARK  6 active torsions:
REMARK  status: ('A' for Active; 'I' for Inactive)
REMARK    1  A    between atoms: C_1  and  C_2
REMARK    2  A    between atoms: C_5  and  N_9
REMARK    3  A    between atoms: C_6  and  O_8
REMARK    4  A    between atoms: N_9  and  N_10
REMARK    5  A    between atoms: C_12  and  C_28
REMARK    6  A    between atoms: C_19  and  C_22
REMARK                            x       y       z     vdW  Elec       q    Type
REMARK                         _______ _______ _______ _____ _____    ______ ____
ROOT
ATOM      1  N   UNL     1      -0.373  -4.882  -1.163  0.00  0.00    -0.175 NA
ATOM      2  C   UNL     1      -0.032  -6.159  -1.172  0.00  0.00    +0.168 C 
ATOM      3  C   UNL     1       0.207  -7.031  -0.012  0.00  0.00    +0.089 C 
ATOM      4  N   UNL     1       0.519  -8.207  -0.464  0.00  0.00    -0.173 NA
ATOM      5  N   UNL     1       0.519  -8.233  -1.858  0.00  0.00    -0.130 N 
ATOM      6  C   UNL     1       0.187  -7.021  -2.345  0.00  0.00    +0.294 C 
ATOM      7  O   UNL     1       0.090  -6.702  -3.518  0.00  0.00    -0.266 OA
ATOM      8  C   UNL     1       0.814  -9.350  -2.634  0.00  0.00    +0.189 A 
ATOM      9  N   UNL     1       1.136 -10.572  -2.251  0.00  0.00    -0.223 NA
ATOM     10  C   UNL     1       1.388 -11.525  -3.134  0.00  0.00    +0.080 A 
ATOM     11  C   UNL     1       1.312 -11.240  -4.470  0.00  0.00    +0.077 A 
ATOM     12  S   UNL     1       0.849  -9.514  -4.413  0.00  0.00    -0.058 S 
ATOM     13  C   UNL     1       0.107  -6.632   1.438  0.00  0.00    +0.070 C 
ENDROOT
BRANCH  10  14
ATOM     14  C   UNL     1       1.749 -12.890  -2.680  0.00  0.00    +0.001 A 
ATOM     15  C   UNL     1       2.019 -13.890  -3.613  0.00  0.00    +0.010 A 
ATOM     16  C   UNL     1       2.354 -15.158  -3.184  0.00  0.00    +0.001 A 
ATOM     17  C   UNL     1       2.422 -15.438  -1.831  0.00  0.00    +0.000 A 
ATOM     18  C   UNL     1       2.154 -14.450  -0.901  0.00  0.00    +0.001 A 
ATOM     19  C   UNL     1       1.824 -13.177  -1.318  0.00  0.00    +0.010 A 
ENDBRANCH  10  14
BRANCH   1  20
ATOM     20  N   UNL     1      -0.670  -4.302  -0.050  0.00  0.00    -0.233 N 
ATOM     21  H   UNL     1      -0.722  -4.820   0.769  0.00  0.00    +0.175 HD
BRANCH  20  26
ATOM     22  C   UNL     1      -1.669   1.282   0.055  0.00  0.00    +0.044 C 
ATOM     23  C   UNL     1      -1.404  -0.202   0.030  0.00  0.00    -0.047 A 
ATOM     24  C   UNL     1      -1.085  -0.825  -1.163  0.00  0.00    +0.005 A 
ATOM     25  C   UNL     1      -0.841  -2.184  -1.193  0.00  0.00    +0.028 A 
ATOM     26  C   UNL     1      -0.916  -2.928  -0.023  0.00  0.00    +0.090 A 
ATOM     27  C   UNL     1      -1.237  -2.299   1.180  0.00  0.00    +0.140 A 
ATOM     28  C   UNL     1      -1.475  -0.934   1.200  0.00  0.00    +0.050 A 
BRANCH  27  29
ATOM     29  O   UNL     1      -1.312  -3.021   2.329  0.00  0.00    -0.505 OA
ATOM     30  H   UNL     1      -0.477  -3.080   2.812  0.00  0.00    +0.292 HD
ENDBRANCH  27  29
ENDBRANCH  20  26
ENDBRANCH   1  20
TORSDOF 4
