REMARK  Name = ZINC47096466
REMARK  9 active torsions:
REMARK  status: ('A' for Active; 'I' for Inactive)
REMARK    1  A    between atoms: C_1  and  C_2
REMARK    2  A    between atoms: C_4  and  C_28
REMARK    3  A    between atoms: N_5  and  C_7
REMARK    4  A    between atoms: C_7  and  C_8
REMARK    5  A    between atoms: C_8  and  C_10
REMARK    6  A    between atoms: C_8  and  C_11
REMARK    7  A    between atoms: C_11  and  N_12
REMARK    8  A    between atoms: N_15  and  N_16
REMARK    9  A    between atoms: N_16  and  C_17
REMARK                            x       y       z     vdW  Elec       q    Type
REMARK                         _______ _______ _______ _____ _____    ______ ____
ROOT
ATOM      1  N   UNL     1       2.970  -5.428   2.835  0.00  0.00    -0.298 N 
ATOM      2  C   UNL     1       3.220  -6.343   3.792  0.00  0.00    +0.316 C 
ATOM      3  O   UNL     1       2.321  -7.048   4.208  0.00  0.00    -0.251 OA
ATOM      4  N   UNL     1       4.466  -6.477   4.288  0.00  0.00    -0.220 N 
ATOM      5  H   UNL     1       3.687  -4.865   2.503  0.00  0.00    +0.150 HD
ATOM      6  H   UNL     1       4.645  -7.136   4.977  0.00  0.00    +0.174 HD
ENDROOT
BRANCH   4   7
ATOM      7  N   UNL     1       5.502  -5.665   3.809  0.00  0.00    -0.258 N 
ATOM      8  H   UNL     1       5.308  -4.954   3.177  0.00  0.00    +0.170 HD
BRANCH   7   9
ATOM      9  C   UNL     1       6.817  -5.878   4.242  0.00  0.00    +0.121 A 
ATOM     10  C   UNL     1       7.268  -7.169   4.487  0.00  0.00    +0.186 A 
ATOM     11  C   UNL     1       8.569  -7.378   4.914  0.00  0.00    +0.198 A 
ATOM     12  C   UNL     1       9.421  -6.300   5.098  0.00  0.00    +0.199 A 
ATOM     13  C   UNL     1       8.973  -5.012   4.854  0.00  0.00    +0.198 A 
ATOM     14  C   UNL     1       7.674  -4.799   4.421  0.00  0.00    +0.186 A 
ATOM     15  F   UNL     1       7.239  -3.543   4.179  0.00  0.00    -0.200 F 
ATOM     16  F   UNL     1       9.805  -3.962   5.034  0.00  0.00    -0.199 F 
ATOM     17  F   UNL     1      10.689  -6.506   5.516  0.00  0.00    -0.199 F 
ATOM     18  F   UNL     1       9.008  -8.634   5.153  0.00  0.00    -0.199 F 
ATOM     19  F   UNL     1       6.438  -8.220   4.308  0.00  0.00    -0.200 F 
ENDBRANCH   7   9
ENDBRANCH   4   7
BRANCH   1  20
ATOM     20  C   UNL     1       1.616  -5.282   2.296  0.00  0.00    +0.110 C 
BRANCH  20  21
ATOM     21  C   UNL     1       1.606  -4.183   1.231  0.00  0.00    +0.024 C 
ATOM     22  C   UNL     1       2.470  -4.614   0.045  0.00  0.00    +0.011 C 
BRANCH  21  23
ATOM     23  C   UNL     1       0.171  -3.945   0.758  0.00  0.00    +0.148 C 
BRANCH  23  28
ATOM     24  C   UNL     1      -0.154   0.741  -1.013  0.00  0.00    +0.067 C 
ATOM     25  C   UNL     1      -0.001  -0.756  -0.925  0.00  0.00    +0.060 A 
ATOM     26  C   UNL     1       0.208  -1.624  -2.002  0.00  0.00    +0.047 A 
ATOM     27  C   UNL     1       0.294  -2.882  -1.512  0.00  0.00    +0.036 A 
ATOM     28  N   UNL     1       0.145  -2.813  -0.172  0.00  0.00    -0.268 N 
ATOM     29  N   UNL     1      -0.033  -1.467   0.173  0.00  0.00    -0.176 NA
ATOM     30  C   UNL     1       0.515  -4.136  -2.317  0.00  0.00    +0.065 C 
ENDBRANCH  23  28
ENDBRANCH  21  23
ENDBRANCH  20  21
ENDBRANCH   1  20
TORSDOF 6
