REMARK  Name = ZINC66360911
REMARK  7 active torsions:
REMARK  status: ('A' for Active; 'I' for Inactive)
REMARK    1  A    between atoms: C_1  and  C_2
REMARK    2  A    between atoms: C_5  and  C_8
REMARK    3  A    between atoms: C_8  and  C_10
REMARK    4  A    between atoms: C_8  and  N_18
REMARK    5  A    between atoms: C_13  and  O_16
REMARK    6  A    between atoms: O_16  and  C_17
REMARK    7  A    between atoms: C_25  and  O_28
REMARK                            x       y       z     vdW  Elec       q    Type
REMARK                         _______ _______ _______ _____ _____    ______ ____
ROOT
ATOM      1  C   UNL     1       0.060  -4.271  -0.021  0.00  0.00    +0.135 C 
ENDROOT
BRANCH   1   2
ATOM      2  N   UNL     1       0.960  -4.753   1.030  0.00  0.00    -0.288 N 
ATOM      3  C   UNL     1       2.280  -4.868   0.786  0.00  0.00    +0.303 C 
ATOM      4  O   UNL     1       2.713  -4.659  -0.331  0.00  0.00    -0.253 OA
ATOM      5  N   UNL     1       3.122  -5.215   1.781  0.00  0.00    -0.283 N 
ATOM      6  C   UNL     1       2.603  -5.588   3.104  0.00  0.00    +0.109 C 
ATOM      7  C   UNL     1       3.173  -6.957   3.489  0.00  0.00    +0.022 C 
ATOM      8  C   UNL     1       4.700  -6.912   3.402  0.00  0.00    +0.034 C 
ATOM      9  C   UNL     1       5.122  -6.601   1.964  0.00  0.00    +0.132 C 
ATOM     10  C   UNL     1       4.574  -5.233   1.560  0.00  0.00    +0.140 C 
ATOM     11  H   UNL     1       0.605  -4.990   1.901  0.00  0.00    +0.151 HD
BRANCH   9  12
ATOM     12  O   UNL     1       6.548  -6.590   1.877  0.00  0.00    -0.390 OA
ATOM     13  H   UNL     1       6.887  -6.399   0.992  0.00  0.00    +0.210 HD
ENDBRANCH   9  12
ENDBRANCH   1   2
BRANCH   1  18
ATOM     14  C   UNL     1      -0.000   1.507  -0.005  0.00  0.00    +0.044 C 
ATOM     15  C   UNL     1       0.016   0.000  -0.009  0.00  0.00    -0.050 A 
ATOM     16  C   UNL     1       0.016  -0.688  -1.208  0.00  0.00    +0.004 A 
ATOM     17  C   UNL     1       0.031  -2.070  -1.212  0.00  0.00    +0.006 A 
ATOM     18  C   UNL     1       0.045  -2.764  -0.017  0.00  0.00    -0.023 A 
ATOM     19  C   UNL     1       0.046  -2.076   1.182  0.00  0.00    +0.006 A 
ATOM     20  C   UNL     1       0.036  -0.694   1.186  0.00  0.00    +0.004 A 
ENDBRANCH   1  18
BRANCH   1  21
ATOM     21  C   UNL     1      -1.332  -4.788   0.234  0.00  0.00    -0.023 A 
ATOM     22  C   UNL     1      -1.829  -4.825   1.523  0.00  0.00    +0.009 A 
ATOM     23  C   UNL     1      -3.106  -5.299   1.760  0.00  0.00    +0.046 A 
ATOM     24  C   UNL     1      -3.888  -5.737   0.701  0.00  0.00    +0.120 A 
ATOM     25  C   UNL     1      -3.387  -5.699  -0.592  0.00  0.00    +0.046 A 
ATOM     26  C   UNL     1      -2.112  -5.219  -0.823  0.00  0.00    +0.009 A 
BRANCH  24  27
ATOM     27  O   UNL     1      -5.144  -6.204   0.931  0.00  0.00    -0.495 OA
ATOM     28  C   UNL     1      -5.892  -6.639  -0.206  0.00  0.00    +0.277 C 
ENDBRANCH  24  27
ENDBRANCH   1  21
TORSDOF 5
