REMARK  Name = ZINC27519886
REMARK  6 active torsions:
REMARK  status: ('A' for Active; 'I' for Inactive)
REMARK    1  A    between atoms: C_9  and  C_12
REMARK    2  A    between atoms: N_14  and  C_15
REMARK    3  A    between atoms: C_15  and  C_16
REMARK    4  A    between atoms: N_18  and  N_19
REMARK    5  A    between atoms: C_20  and  C_21
REMARK    6  A    between atoms: C_24  and  O_28
REMARK                            x       y       z     vdW  Elec       q    Type
REMARK                         _______ _______ _______ _____ _____    ______ ____
ROOT
ATOM      1  C   UNL     1       6.433  -5.979   0.340  0.00  0.00    +0.249 C 
ATOM      2  O   UNL     1       5.483  -6.432   0.944  0.00  0.00    -0.272 OA
ATOM      3  N   UNL     1       7.508  -6.754   0.095  0.00  0.00    -0.206 N 
ATOM      4  H   UNL     1       8.267  -6.391  -0.389  0.00  0.00    +0.177 HD
ENDROOT
BRANCH   3   5
ATOM      5  N   UNL     1       7.529  -8.083   0.537  0.00  0.00    -0.188 NA
ATOM      6  C   UNL     1       8.564  -8.829   0.301  0.00  0.00    +0.138 C 
BRANCH   6   7
ATOM      7  C   UNL     1       8.586 -10.227   0.767  0.00  0.00    -0.003 A 
ATOM      8  C   UNL     1       7.491 -10.753   1.458  0.00  0.00    +0.028 A 
ATOM      9  C   UNL     1       7.516 -12.062   1.892  0.00  0.00    +0.061 A 
ATOM     10  C   UNL     1       8.627 -12.857   1.644  0.00  0.00    +0.145 A 
ATOM     11  C   UNL     1       9.719 -12.338   0.958  0.00  0.00    +0.061 A 
ATOM     12  C   UNL     1       9.699 -11.033   0.514  0.00  0.00    +0.028 A 
ATOM     13 BR   UNL     1      11.228 -13.427   0.624  0.00  0.00    -0.046 Br
ATOM     14 BR   UNL     1       6.035 -12.774   2.828  0.00  0.00    -0.046 Br
BRANCH  10  15
ATOM     15  O   UNL     1       8.648 -14.146   2.074  0.00  0.00    -0.505 OA
ATOM     16  H   UNL     1       8.297 -14.780   1.434  0.00  0.00    +0.292 HD
ENDBRANCH  10  15
ENDBRANCH   6   7
ENDBRANCH   3   5
BRANCH   1  17
ATOM     17  C   UNL     1       6.410  -4.549  -0.137  0.00  0.00    +0.202 C 
BRANCH  17  20
ATOM     18  C   UNL     1       4.898  -2.639  -0.071  0.00  0.00    +0.258 C 
ATOM     19  O   UNL     1       5.727  -1.999  -0.682  0.00  0.00    -0.272 OA
ATOM     20  N   UNL     1       5.143  -3.925   0.251  0.00  0.00    -0.304 N 
ATOM     21  H   UNL     1       4.479  -4.437   0.740  0.00  0.00    +0.149 HD
BRANCH  18  30
ATOM     22  C   UNL     1      -0.017   1.378   0.010  0.00  0.00    +0.004 A 
ATOM     23  C   UNL     1       1.170   2.088   0.002  0.00  0.00    +0.004 A 
ATOM     24  C   UNL     1       2.378   1.418  -0.014  0.00  0.00    +0.049 A 
ATOM     25  C   UNL     1       2.404   0.031  -0.023  0.00  0.00    +0.163 A 
ATOM     26  C   UNL     1       1.212  -0.683  -0.013  0.00  0.00    +0.162 A 
ATOM     27  C   UNL     1       0.002  -0.004   0.002  0.00  0.00    +0.049 A 
ATOM     28  O   UNL     1       1.214  -2.044  -0.013  0.00  0.00    -0.484 OA
ATOM     29  C   UNL     1       2.434  -2.685  -0.404  0.00  0.00    +0.283 C 
ATOM     30  C   UNL     1       3.594  -1.997   0.328  0.00  0.00    +0.296 C 
ATOM     31  O   UNL     1       3.602  -0.615  -0.043  0.00  0.00    -0.473 OA
ENDBRANCH  18  30
ENDBRANCH  17  20
ENDBRANCH   1  17
TORSDOF 6
