REMARK  Name = ZINC41583999
REMARK  7 active torsions:
REMARK  status: ('A' for Active; 'I' for Inactive)
REMARK    1  A    between atoms: C_1  and  C_2
REMARK    2  A    between atoms: C_5  and  C_31
REMARK    3  A    between atoms: N_8  and  C_10
REMARK    4  A    between atoms: C_10  and  C_11
REMARK    5  A    between atoms: C_12  and  O_30
REMARK    6  A    between atoms: C_19  and  O_22
REMARK    7  A    between atoms: O_22  and  C_23
REMARK                            x       y       z     vdW  Elec       q    Type
REMARK                         _______ _______ _______ _____ _____    ______ ____
ROOT
ATOM      1  C   UNL     1       3.013  -2.041   2.226  0.00  0.00    +0.020 A 
ATOM      2  C   UNL     1       3.949  -2.914   1.696  0.00  0.00    +0.122 A 
ATOM      3  C   UNL     1       5.303  -2.586   1.694  0.00  0.00    +0.046 A 
ATOM      4  C   UNL     1       5.726  -1.396   2.215  0.00  0.00    +0.019 A 
ATOM      5  C   UNL     1       4.796  -0.506   2.752  0.00  0.00    +0.068 A 
ATOM      6  C   UNL     1       3.427  -0.826   2.754  0.00  0.00    +0.143 A 
ATOM      7  O   UNL     1       2.537   0.044   3.272  0.00  0.00    -0.459 OA
ATOM      8  C   UNL     1       2.904   1.224   3.789  0.00  0.00    +0.245 A 
ATOM      9  C   UNL     1       4.187   1.633   3.834  0.00  0.00    +0.210 A 
ATOM     10  C   UNL     1       5.212   0.787   3.324  0.00  0.00    +0.235 A 
ATOM     11  O   UNL     1       6.384   1.123   3.347  0.00  0.00    -0.283 OA
ENDROOT
BRANCH   2  12
ATOM     12  O   UNL     1       3.542  -4.099   1.175  0.00  0.00    -0.506 OA
ATOM     13  H   UNL     1       3.331  -4.063   0.232  0.00  0.00    +0.292 HD
ENDBRANCH   2  12
BRANCH   1  14
ATOM     14  C   UNL     1       1.551  -2.405   2.223  0.00  0.00    -0.036 C 
BRANCH  14  20
ATOM     15  C   UNL     1       0.446   1.556  -0.433  0.00  0.00    +0.005 C 
ATOM     16  C   UNL     1       0.403   0.027  -0.394  0.00  0.00    -0.031 C 
ATOM     17  C   UNL     1      -1.048  -0.447  -0.528  0.00  0.00    +0.003 C 
ATOM     18  C   UNL     1      -1.089  -1.973  -0.410  0.00  0.00    -0.031 C 
ATOM     19  C   UNL     1      -0.462  -2.393   0.922  0.00  0.00    -0.075 C 
ATOM     20  N   UNL     1       0.931  -1.934   0.978  0.00  0.00    +0.383 N 
ATOM     21  C   UNL     1       0.975  -0.467   0.936  0.00  0.00    -0.075 C 
ATOM     22  C   UNL     1      -2.541  -2.451  -0.465  0.00  0.00    +0.005 C 
ATOM     23  H   UNL     1       1.439  -2.306   0.190  0.00  0.00    -0.081 HD
ENDBRANCH  14  20
ENDBRANCH   1  14
BRANCH   9  24
ATOM     24  O   UNL     1       4.502   2.843   4.371  0.00  0.00    -0.448 OA
BRANCH  24  25
ATOM     25  C   UNL     1       4.991   3.802   3.542  0.00  0.00    +0.143 A 
ATOM     26  C   UNL     1       5.047   3.575   2.174  0.00  0.00    +0.047 A 
ATOM     27  C   UNL     1       5.543   4.552   1.333  0.00  0.00    +0.004 A 
ATOM     28  C   UNL     1       5.985   5.755   1.852  0.00  0.00    +0.001 A 
ATOM     29  C   UNL     1       5.931   5.984   3.214  0.00  0.00    +0.019 A 
ATOM     30  C   UNL     1       5.429   5.013   4.060  0.00  0.00    +0.060 A 
ATOM     31 BR   UNL     1       5.348   5.330   5.923  0.00  0.00    -0.046 Br
ENDBRANCH  24  25
ENDBRANCH   9  24
TORSDOF 5
