REMARK  Name = ZINC09019795
REMARK  12 active torsions:
REMARK  status: ('A' for Active; 'I' for Inactive)
REMARK    1  A    between atoms: C_1  and  C_2
REMARK    2  A    between atoms: C_3  and  C_9
REMARK    3  A    between atoms: C_4  and  O_8
REMARK    4  A    between atoms: C_9  and  C_10
REMARK    5  A    between atoms: C_9  and  C_28
REMARK    6  A    between atoms: C_13  and  O_18
REMARK    7  A    between atoms: C_14  and  O_16
REMARK    8  A    between atoms: O_16  and  C_17
REMARK    9  A    between atoms: O_18  and  C_19
REMARK   10  A    between atoms: C_19  and  C_20
REMARK   11  A    between atoms: C_29  and  C_35
REMARK   12  A    between atoms: C_33  and  O_34
REMARK                            x       y       z     vdW  Elec       q    Type
REMARK                         _______ _______ _______ _____ _____    ______ ____
ROOT
ATOM      1  C   UNL     1      -0.014  -0.337  -2.547  0.00  0.00    +0.093 C 
ENDROOT
BRANCH   1   4
ATOM      2  C   UNL     1      -0.975   1.855  -0.471  0.00  0.00    +0.068 C 
ATOM      3  C   UNL     1      -0.742   0.396  -0.172  0.00  0.00    +0.068 A 
ATOM      4  C   UNL     1      -0.317  -0.570  -1.090  0.00  0.00    +0.048 A 
ATOM      5  C   UNL     1      -0.228  -1.756  -0.433  0.00  0.00    +0.213 A 
ATOM      6  N   UNL     1      -0.584  -1.540   0.853  0.00  0.00    -0.247 N 
ATOM      7  H   UNL     1      -0.614  -2.208   1.556  0.00  0.00    +0.192 HD
ATOM      8  N   UNL     1      -0.896  -0.182   0.991  0.00  0.00    -0.176 NA
BRANCH   5   9
ATOM      9  O   UNL     1       0.151  -2.944  -0.971  0.00  0.00    -0.492 OA
ATOM     10  H   UNL     1       1.089  -3.147  -0.855  0.00  0.00    +0.294 HD
ENDBRANCH   5   9
ENDBRANCH   1   4
BRANCH   1  11
ATOM     11  C   UNL     1       1.361  -0.865  -2.865  0.00  0.00    +0.048 A 
ATOM     12  C   UNL     1       2.437  -0.827  -2.047  0.00  0.00    +0.041 A 
ATOM     13  N   UNL     1       3.472  -1.399  -2.698  0.00  0.00    -0.278 N 
ATOM     14  N   UNL     1       3.019  -1.804  -3.960  0.00  0.00    -0.136 NA
ATOM     15  H   UNL     1       4.371  -1.511  -2.352  0.00  0.00    +0.189 HD
ATOM     16  C   UNL     1       1.750  -1.489  -4.060  0.00  0.00    +0.236 A 
ATOM     17  C   UNL     1       2.475  -0.248  -0.656  0.00  0.00    +0.065 C 
BRANCH  16  18
ATOM     18  O   UNL     1       0.952  -1.724  -5.135  0.00  0.00    -0.491 OA
ATOM     19  H   UNL     1       1.003  -1.042  -5.819  0.00  0.00    +0.294 HD
ENDBRANCH  16  18
ENDBRANCH   1  11
BRANCH   1  20
ATOM     20  C   UNL     1      -1.035  -1.053  -3.393  0.00  0.00    -0.031 A 
ATOM     21  C   UNL     1      -1.051  -2.435  -3.433  0.00  0.00    +0.008 A 
ATOM     22  C   UNL     1      -1.986  -3.096  -4.208  0.00  0.00    +0.050 A 
ATOM     23  C   UNL     1      -2.910  -2.374  -4.946  0.00  0.00    +0.162 A 
ATOM     24  C   UNL     1      -2.894  -0.983  -4.906  0.00  0.00    +0.162 A 
ATOM     25  C   UNL     1      -1.958  -0.327  -4.123  0.00  0.00    +0.054 A 
BRANCH  24  26
ATOM     26  O   UNL     1      -3.799  -0.270  -5.628  0.00  0.00    -0.491 OA
ATOM     27  C   UNL     1      -3.723   1.154  -5.539  0.00  0.00    +0.277 C 
ENDBRANCH  24  26
BRANCH  23  28
ATOM     28  O   UNL     1      -3.830  -3.023  -5.709  0.00  0.00    -0.484 OA
BRANCH  28  29
ATOM     29  C   UNL     1      -3.786  -4.452  -5.702  0.00  0.00    +0.266 C 
BRANCH  29  30
ATOM     30  C   UNL     1      -4.872  -4.991  -6.598  0.00  0.00    +0.008 A 
ATOM     31  C   UNL     1      -5.709  -4.121  -7.270  0.00  0.00    +0.010 A 
ATOM     32  C   UNL     1      -6.705  -4.615  -8.092  0.00  0.00    +0.020 A 
ATOM     33  C   UNL     1      -6.863  -5.981  -8.242  0.00  0.00    +0.042 A 
ATOM     34  C   UNL     1      -6.026  -6.853  -7.570  0.00  0.00    +0.040 A 
ATOM     35  C   UNL     1      -5.026  -6.357  -6.751  0.00  0.00    +0.049 A 
ATOM     36 CL   UNL     1      -3.970  -7.450  -5.912  0.00  0.00    -0.083 Cl
ATOM     37 CL   UNL     1      -8.114  -6.602  -9.273  0.00  0.00    -0.083 Cl
ENDBRANCH  29  30
ENDBRANCH  28  29
ENDBRANCH  23  28
ENDBRANCH   1  20
TORSDOF 9
