REMARK  Name = ZINC39865719
REMARK  7 active torsions:
REMARK  status: ('A' for Active; 'I' for Inactive)
REMARK    1  A    between atoms: C_1  and  N_2
REMARK    2  A    between atoms: C_6  and  C_7
REMARK    3  A    between atoms: C_10  and  O_15
REMARK    4  A    between atoms: C_11  and  O_13
REMARK    5  A    between atoms: O_13  and  C_14
REMARK    6  A    between atoms: N_18  and  C_19
REMARK    7  A    between atoms: C_21  and  C_24
REMARK                            x       y       z     vdW  Elec       q    Type
REMARK                         _______ _______ _______ _____ _____    ______ ____
ROOT
ATOM      1  C   UNL     1      -1.363   1.301  -0.122  0.00  0.00    +0.140 C 
ATOM      2  N   UNL     1      -1.016  -0.122  -0.096  0.00  0.00    -0.249 N 
ATOM      3  C   UNL     1      -0.680  -0.734  -1.218  0.00  0.00    +0.259 C 
ATOM      4  O   UNL     1      -0.651  -0.143  -2.282  0.00  0.00    -0.269 OA
ATOM      5  C   UNL     1      -0.341  -2.167  -1.123  0.00  0.00    +0.078 C 
ATOM      6  C   UNL     1       0.034  -3.030  -2.102  0.00  0.00    +0.028 C 
ATOM      7  S   UNL     1      -0.555  -2.459   0.626  0.00  0.00    -0.049 S 
ATOM      8  C   UNL     1      -1.037  -0.806   1.098  0.00  0.00    +0.170 C 
ATOM      9  N   UNL     1      -1.341  -0.352   2.297  0.00  0.00    -0.199 NA
ENDROOT
BRANCH   6  10
ATOM     10  C   UNL     1       0.166  -4.463  -1.806  0.00  0.00    -0.020 A 
ATOM     11  C   UNL     1      -0.422  -4.999  -0.654  0.00  0.00    +0.012 A 
ATOM     12  C   UNL     1      -0.296  -6.343  -0.379  0.00  0.00    +0.050 A 
ATOM     13  C   UNL     1       0.413  -7.168  -1.241  0.00  0.00    +0.158 A 
ATOM     14  C   UNL     1       1.002  -6.642  -2.391  0.00  0.00    +0.162 A 
ATOM     15  C   UNL     1       0.876  -5.297  -2.678  0.00  0.00    +0.057 A 
BRANCH  14  16
ATOM     16  O   UNL     1       1.695  -7.455  -3.232  0.00  0.00    -0.491 OA
ATOM     17  C   UNL     1       2.271  -6.849  -4.391  0.00  0.00    +0.277 C 
ENDBRANCH  14  16
BRANCH  13  18
ATOM     18  O   UNL     1       0.534  -8.493  -0.964  0.00  0.00    -0.503 OA
ATOM     19  H   UNL     1      -0.171  -9.039  -1.337  0.00  0.00    +0.292 HD
ENDBRANCH  13  18
ENDBRANCH   6  10
BRANCH   9  20
ATOM     20  C   UNL     1      -1.305  -1.186   3.368  0.00  0.00    +0.195 A 
ATOM     21  N   UNL     1      -1.577  -0.930   4.642  0.00  0.00    -0.221 NA
ATOM     22  C   UNL     1      -1.489  -1.877   5.563  0.00  0.00    +0.080 A 
ATOM     23  C   UNL     1      -1.111  -3.139   5.197  0.00  0.00    +0.077 A 
ATOM     24  S   UNL     1      -0.887  -2.923   3.436  0.00  0.00    -0.056 S 
BRANCH  22  25
ATOM     25  C   UNL     1      -1.797  -1.570   6.981  0.00  0.00    +0.001 A 
ATOM     26  C   UNL     1      -1.697  -2.568   7.950  0.00  0.00    +0.010 A 
ATOM     27  C   UNL     1      -1.985  -2.277   9.268  0.00  0.00    +0.001 A 
ATOM     28  C   UNL     1      -2.372  -0.999   9.628  0.00  0.00    +0.000 A 
ATOM     29  C   UNL     1      -2.473  -0.005   8.671  0.00  0.00    +0.001 A 
ATOM     30  C   UNL     1      -2.182  -0.283   7.351  0.00  0.00    +0.010 A 
ENDBRANCH  22  25
ENDBRANCH   9  20
TORSDOF 5
