REMARK  Name = ZINC05119803
REMARK  8 active torsions:
REMARK  status: ('A' for Active; 'I' for Inactive)
REMARK    1  A    between atoms: C_8  and  C_9
REMARK    2  A    between atoms: C_9  and  C_16
REMARK    3  A    between atoms: C_10  and  N_11
REMARK    4  A    between atoms: C_10  and  N_12
REMARK    5  A    between atoms: N_12  and  C_13
REMARK    6  A    between atoms: C_13  and  C_14
REMARK    7  A    between atoms: C_14  and  O_15
REMARK    8  A    between atoms: N_20  and  C_21
REMARK                            x       y       z     vdW  Elec       q    Type
REMARK                         _______ _______ _______ _____ _____    ______ ____
ROOT
ATOM      1  C   UNL     1      -0.108   1.274  -0.906  0.00  0.00    +0.001 A 
ATOM      2  C   UNL     1       1.066   1.989  -1.084  0.00  0.00    +0.002 A 
ATOM      3  C   UNL     1       2.292   1.361  -0.992  0.00  0.00    +0.024 A 
ATOM      4  C   UNL     1       2.358   0.001  -0.718  0.00  0.00    +0.050 A 
ATOM      5  C   UNL     1       1.169  -0.720  -0.538  0.00  0.00    +0.009 A 
ATOM      6  C   UNL     1      -0.061  -0.078  -0.632  0.00  0.00    +0.010 A 
ATOM      7  C   UNL     1       1.574  -2.116  -0.266  0.00  0.00    +0.048 C 
ATOM      8  C   UNL     1       0.741  -3.197  -0.023  0.00  0.00    +0.035 C 
ATOM      9  C   UNL     1       2.992  -2.120  -0.306  0.00  0.00    +0.256 C 
ATOM     10  O   UNL     1       3.703  -3.095  -0.129  0.00  0.00    -0.269 OA
ATOM     11  N   UNL     1       3.426  -0.876  -0.571  0.00  0.00    -0.233 N 
ENDROOT
BRANCH  11  12
ATOM     12  C   UNL     1       4.774  -0.512  -0.684  0.00  0.00    +0.078 A 
ATOM     13  C   UNL     1       5.409  -0.566  -1.919  0.00  0.00    +0.064 A 
ATOM     14  C   UNL     1       6.739  -0.206  -2.027  0.00  0.00    +0.022 A 
ATOM     15  C   UNL     1       7.439   0.206  -0.908  0.00  0.00    +0.003 A 
ATOM     16  C   UNL     1       6.811   0.260   0.323  0.00  0.00    +0.022 A 
ATOM     17  C   UNL     1       5.479  -0.092   0.437  0.00  0.00    +0.064 A 
ATOM     18 CL   UNL     1       4.689  -0.017   1.981  0.00  0.00    -0.082 Cl
ATOM     19 CL   UNL     1       4.532  -1.084  -3.325  0.00  0.00    -0.082 Cl
ENDBRANCH  11  12
BRANCH   8  20
ATOM     20  C   UNL     1      -0.646  -3.002   0.097  0.00  0.00    +0.087 C 
ATOM     21  C   UNL     1      -1.516  -3.535  -0.867  0.00  0.00    +0.099 C 
BRANCH  21  22
ATOM     22  N   UNL     1      -1.016  -4.241  -1.920  0.00  0.00    -0.346 N 
ATOM     23  H   UNL     1      -0.059  -4.376  -2.002  0.00  0.00    +0.143 HD
ATOM     24  H   UNL     1      -1.617  -4.609  -2.586  0.00  0.00    +0.143 HD
ENDBRANCH  21  22
BRANCH  21  25
ATOM     25  N   UNL     1      -2.860  -3.346  -0.751  0.00  0.00    -0.329 N 
ATOM     26  H   UNL     1      -3.216  -2.844  -0.002  0.00  0.00    +0.147 HD
BRANCH  25  27
ATOM     27  C   UNL     1      -3.768  -3.903  -1.757  0.00  0.00    +0.130 C 
BRANCH  27  28
ATOM     28  C   UNL     1      -5.211  -3.549  -1.393  0.00  0.00    +0.174 C 
BRANCH  28  29
ATOM     29  O   UNL     1      -5.388  -2.133  -1.466  0.00  0.00    -0.393 OA
ATOM     30  H   UNL     1      -6.282  -1.836  -1.247  0.00  0.00    +0.209 HD
ENDBRANCH  28  29
ENDBRANCH  27  28
ENDBRANCH  25  27
ENDBRANCH  21  25
BRANCH  20  31
ATOM     31  C   UNL     1      -1.172  -2.260   1.203  0.00  0.00    +0.102 C 
ATOM     32  N   UNL     1      -1.589  -1.671   2.081  0.00  0.00    -0.191 NA
ENDBRANCH  20  31
ENDBRANCH   8  20
TORSDOF 8
