REMARK  Name = ZINC08915321
REMARK  5 active torsions:
REMARK  status: ('A' for Active; 'I' for Inactive)
REMARK    1  A    between atoms: C_6  and  C_7
REMARK    2  A    between atoms: C_9  and  C_21
REMARK    3  A    between atoms: C_11  and  C_16
REMARK    4  A    between atoms: C_11  and  O_20
REMARK    5  A    between atoms: C_21  and  C_23
REMARK                            x       y       z     vdW  Elec       q    Type
REMARK                         _______ _______ _______ _____ _____    ______ ____
ROOT
ATOM      1  C   UNL     1      -1.289  -0.767   0.008  0.00  0.00    +0.120 C 
ATOM      2  C   UNL     1      -1.681  -1.140  -1.426  0.00  0.00    +0.144 C 
ATOM      3  C   UNL     1      -2.932  -2.023  -1.376  0.00  0.00    +0.243 C 
ATOM      4  N   UNL     1      -2.671  -3.179  -0.516  0.00  0.00    -0.264 N 
ATOM      5  C   UNL     1      -1.802  -3.107   0.504  0.00  0.00    +0.302 C 
ATOM      6  O   UNL     1      -1.629  -4.093   1.194  0.00  0.00    -0.253 OA
ATOM      7  N   UNL     1      -1.117  -1.990   0.794  0.00  0.00    -0.292 N 
ATOM      8  H   UNL     1      -3.135  -4.013  -0.687  0.00  0.00    +0.153 HD
ATOM      9  H   UNL     1      -0.495  -1.993   1.538  0.00  0.00    +0.151 HD
ENDROOT
BRANCH   1  15
ATOM     10  C   UNL     1      -0.018   1.385  -0.117  0.00  0.00    +0.007 A 
ATOM     11  C   UNL     1       1.167   2.096  -0.131  0.00  0.00    +0.020 A 
ATOM     12  C   UNL     1       2.375   1.428  -0.038  0.00  0.00    +0.041 A 
ATOM     13  C   UNL     1       2.396   0.049   0.070  0.00  0.00    +0.020 A 
ATOM     14  C   UNL     1       1.210  -0.661   0.084  0.00  0.00    +0.007 A 
ATOM     15  C   UNL     1       0.003   0.007  -0.009  0.00  0.00    -0.026 A 
ATOM     16 CL   UNL     1       3.865   2.320  -0.057  0.00  0.00    -0.084 Cl
ENDBRANCH   1  15
BRANCH   3  17
ATOM     17  C   UNL     1      -4.104  -1.219  -0.808  0.00  0.00    +0.436 C 
ATOM     18  F   UNL     1      -4.348  -0.111  -1.627  0.00  0.00    -0.166 F 
ATOM     19  F   UNL     1      -5.245  -2.026  -0.763  0.00  0.00    -0.166 F 
ATOM     20  F   UNL     1      -3.788  -0.784   0.483  0.00  0.00    -0.166 F 
ENDBRANCH   3  17
BRANCH   3  21
ATOM     21  O   UNL     1      -3.254  -2.472  -2.694  0.00  0.00    -0.364 OA
ATOM     22  H   UNL     1      -4.037  -3.037  -2.737  0.00  0.00    +0.212 HD
ENDBRANCH   3  21
BRANCH   2  23
ATOM     23  C   UNL     1      -0.551  -1.893  -2.080  0.00  0.00    +0.173 C 
ATOM     24  O   UNL     1       0.131  -2.652  -1.424  0.00  0.00    -0.292 OA
BRANCH  23  25
ATOM     25  C   UNL     1      -0.276  -1.709  -3.513  0.00  0.00    +0.018 A 
ATOM     26  C   UNL     1      -1.057  -0.830  -4.271  0.00  0.00    +0.013 A 
ATOM     27  C   UNL     1      -0.793  -0.662  -5.613  0.00  0.00    +0.020 A 
ATOM     28  C   UNL     1       0.242  -1.361  -6.212  0.00  0.00    +0.041 A 
ATOM     29  C   UNL     1       1.021  -2.232  -5.467  0.00  0.00    +0.020 A 
ATOM     30  C   UNL     1       0.772  -2.406  -4.123  0.00  0.00    +0.013 A 
ATOM     31 CL   UNL     1       0.567  -1.143  -7.903  0.00  0.00    -0.084 Cl
ENDBRANCH  23  25
ENDBRANCH   2  23
TORSDOF 5
