REMARK  Name = ZINC21323700
REMARK  9 active torsions:
REMARK  status: ('A' for Active; 'I' for Inactive)
REMARK    1  A    between atoms: C_1  and  C_2
REMARK    2  A    between atoms: C_2  and  C_23
REMARK    3  A    between atoms: N_3  and  N_4
REMARK    4  A    between atoms: C_8  and  S_11
REMARK    5  A    between atoms: N_9  and  N_10
REMARK    6  A    between atoms: S_11  and  C_12
REMARK    7  A    between atoms: C_12  and  C_13
REMARK    8  A    between atoms: N_15  and  C_16
REMARK    9  A    between atoms: C_16  and  C_17
REMARK                            x       y       z     vdW  Elec       q    Type
REMARK                         _______ _______ _______ _____ _____    ______ ____
ROOT
ATOM      1  N   UNL     1       0.166  -6.834   7.489  0.00  0.00    -0.204 N 
ATOM      2  C   UNL     1       0.143  -5.766   6.604  0.00  0.00    +0.254 A 
ATOM      3  N   UNL     1       0.129  -4.496   6.928  0.00  0.00    -0.109 NA
ATOM      4  N   UNL     1       0.113  -3.747   5.744  0.00  0.00    -0.119 NA
ATOM      5  C   UNL     1       0.109  -4.585   4.735  0.00  0.00    +0.210 A 
ATOM      6  N   UNL     1       0.131  -5.854   5.239  0.00  0.00    -0.211 N 
ATOM      7  H   UNL     1       0.176  -7.865   7.107  0.00  0.00    +0.178 HD
ENDROOT
BRANCH   1  10
ATOM      8  C   UNL     1       0.210  -9.011   9.176  0.00  0.00    +0.068 C 
ATOM      9  C   UNL     1       0.197  -7.598   9.700  0.00  0.00    +0.063 C 
ATOM     10  N   UNL     1       0.175  -6.598   8.870  0.00  0.00    -0.184 NA
BRANCH   9  11
ATOM     11  C   UNL     1       0.207  -7.350  11.152  0.00  0.00    -0.002 A 
ATOM     12  C   UNL     1       0.230  -8.437  12.047  0.00  0.00    +0.010 A 
ATOM     13  C   UNL     1       0.240  -8.234  13.388  0.00  0.00    +0.009 A 
ATOM     14  C   UNL     1       0.228  -6.924  13.902  0.00  0.00    -0.018 A 
ATOM     15  C   UNL     1       0.240  -6.690  15.287  0.00  0.00    +0.008 A 
ATOM     16  C   UNL     1       0.228  -5.411  15.756  0.00  0.00    +0.001 A 
ATOM     17  C   UNL     1       0.205  -4.326  14.882  0.00  0.00    +0.001 A 
ATOM     18  C   UNL     1       0.194  -4.514  13.534  0.00  0.00    +0.008 A 
ATOM     19  C   UNL     1       0.205  -5.820  13.012  0.00  0.00    -0.017 A 
ATOM     20  C   UNL     1       0.200  -6.048  11.628  0.00  0.00    +0.018 A 
ENDBRANCH   9  11
ENDBRANCH   1  10
BRANCH   6  21
ATOM     21  N   UNL     1       0.141  -7.008   4.509  0.00  0.00    -0.294 N 
ATOM     22  H   UNL     1       0.130  -6.964   3.410  0.00  0.00    +0.163 HD
ATOM     23  H   UNL     1       0.159  -7.982   5.020  0.00  0.00    +0.163 HD
ENDBRANCH   6  21
BRANCH   5  24
ATOM     24  S   UNL     1       0.087  -4.150   3.027  0.00  0.00    -0.075 S 
BRANCH  24  25
ATOM     25  C   UNL     1       0.063  -2.336   3.037  0.00  0.00    +0.173 C 
BRANCH  25  26
ATOM     26  C   UNL     1       0.042  -1.826   1.619  0.00  0.00    +0.224 C 
ATOM     27  O   UNL     1       0.044  -2.609   0.693  0.00  0.00    -0.275 OA
ATOM     28  N   UNL     1       0.022  -0.500   1.381  0.00  0.00    -0.311 N 
ATOM     29  H   UNL     1       0.020   0.210   2.220  0.00  0.00    +0.149 HD
BRANCH  28  30
ATOM     30  C   UNL     1       0.002  -0.004   0.002  0.00  0.00    +0.139 C 
BRANCH  30  31
ATOM     31  C   UNL     1      -0.018   1.503   0.010  0.00  0.00    -0.030 A 
ATOM     32  C   UNL     1      -1.225   2.178   0.020  0.00  0.00    +0.005 A 
ATOM     33  C   UNL     1      -1.244   3.560   0.032  0.00  0.00    +0.000 A 
ATOM     34  C   UNL     1      -0.056   4.267   0.025  0.00  0.00    +0.000 A 
ATOM     35  C   UNL     1       1.151   3.592   0.010  0.00  0.00    +0.000 A 
ATOM     36  C   UNL     1       1.169   2.210   0.003  0.00  0.00    +0.005 A 
ENDBRANCH  30  31
ENDBRANCH  28  30
ENDBRANCH  25  26
ENDBRANCH  24  25
ENDBRANCH   5  24
TORSDOF 8
