REMARK  Name = ZINC38573971
REMARK  10 active torsions:
REMARK  status: ('A' for Active; 'I' for Inactive)
REMARK    1  A    between atoms: C_1  and  C_2
REMARK    2  A    between atoms: C_2  and  O_3
REMARK    3  A    between atoms: O_3  and  C_4
REMARK    4  A    between atoms: C_4  and  C_6
REMARK    5  A    between atoms: C_8  and  N_18
REMARK    6  A    between atoms: C_11  and  O_16
REMARK    7  A    between atoms: O_16  and  C_17
REMARK    8  A    between atoms: C_19  and  C_21
REMARK    9  A    between atoms: C_21  and  N_22
REMARK   10  A    between atoms: N_25  and  C_28
REMARK                            x       y       z     vdW  Elec       q    Type
REMARK                         _______ _______ _______ _____ _____    ______ ____
ROOT
ATOM      1  N   UNL     1       3.913  -1.283  -1.997  0.00  0.00    -0.288 N 
ATOM      2  C   UNL     1       5.241  -1.506  -1.935  0.00  0.00    +0.200 C 
ATOM      3  O   UNL     1       5.685  -2.600  -2.209  0.00  0.00    -0.278 OA
ATOM      4  H   UNL     1       3.562  -0.393  -1.834  0.00  0.00    +0.155 HD
ENDROOT
BRANCH   1   6
ATOM      5  C   UNL     1       3.435  -3.728  -2.654  0.00  0.00    +0.234 C 
ATOM      6  C   UNL     1       3.062  -2.308  -2.288  0.00  0.00    +0.053 C 
ATOM      7  C   UNL     1       1.680  -2.265  -2.309  0.00  0.00    +0.021 A 
ATOM      8  C   UNL     1       0.752  -1.225  -2.055  0.00  0.00    +0.057 A 
ATOM      9  C   UNL     1      -0.580  -1.473  -2.151  0.00  0.00    +0.121 A 
ATOM     10  C   UNL     1      -1.067  -2.741  -2.498  0.00  0.00    +0.047 A 
ATOM     11  C   UNL     1      -0.236  -3.780  -2.753  0.00  0.00    +0.029 A 
ATOM     12  C   UNL     1       1.169  -3.599  -2.673  0.00  0.00    +0.045 A 
ATOM     13  N   UNL     1       2.170  -4.437  -2.870  0.00  0.00    -0.367 N 
ATOM     14  H   UNL     1       2.083  -5.370  -3.117  0.00  0.00    +0.161 HD
BRANCH   5  15
ATOM     15  C   UNL     1       4.258  -3.739  -3.916  0.00  0.00    +0.336 C 
ATOM     16  O   UNL     1       3.730  -3.537  -4.984  0.00  0.00    -0.248 OA
BRANCH  15  17
ATOM     17  O   UNL     1       5.578  -3.974  -3.854  0.00  0.00    -0.463 OA
BRANCH  17  19
ATOM     18  C   UNL     1       7.776  -4.254  -4.820  0.00  0.00    +0.048 C 
ATOM     19  C   UNL     1       6.297  -3.970  -5.090  0.00  0.00    +0.229 C 
ENDBRANCH  17  19
ENDBRANCH  15  17
ENDBRANCH   5  15
BRANCH   9  20
ATOM     20  O   UNL     1      -1.463  -0.467  -1.906  0.00  0.00    -0.495 OA
ATOM     21  C   UNL     1      -2.852  -0.781  -2.021  0.00  0.00    +0.277 C 
ENDBRANCH   9  20
ENDBRANCH   1   6
BRANCH   2  22
ATOM     22  C   UNL     1       6.173  -0.395  -1.527  0.00  0.00    +0.019 C 
BRANCH  22  23
ATOM     23  N   UNL     1       7.557  -0.888  -1.538  0.00  0.00    +0.387 N 
ATOM     24  C   UNL     1       7.715  -1.926  -0.512  0.00  0.00    -0.063 C 
ATOM     25  C   UNL     1       9.151  -2.454  -0.536  0.00  0.00    +0.067 C 
ATOM     26  N   UNL     1      10.081  -1.344  -0.282  0.00  0.00    -0.295 NA
ATOM     27  C   UNL     1       9.918  -0.285  -1.288  0.00  0.00    +0.067 C 
ATOM     28  C   UNL     1       8.475   0.224  -1.257  0.00  0.00    -0.063 C 
ATOM     29  H   UNL     1       7.768  -1.277  -2.445  0.00  0.00    -0.081 HD
BRANCH  26  30
ATOM     30  C   UNL     1      11.470  -1.821  -0.240  0.00  0.00    +0.118 C 
ATOM     31  C   UNL     1      11.741  -2.733  -1.411  0.00  0.00    -0.018 A 
ATOM     32  C   UNL     1      11.695  -2.529  -2.774  0.00  0.00    +0.006 A 
ATOM     33  C   UNL     1      11.998  -3.565  -3.640  0.00  0.00    +0.000 A 
ATOM     34  C   UNL     1      12.349  -4.806  -3.142  0.00  0.00    +0.001 A 
ATOM     35  C   UNL     1      12.398  -5.019  -1.780  0.00  0.00    +0.009 A 
ATOM     36  C   UNL     1      12.093  -3.979  -0.899  0.00  0.00    -0.013 A 
ATOM     37  C   UNL     1      12.066  -3.930   0.583  0.00  0.00    -0.013 A 
ATOM     38  C   UNL     1      11.697  -2.653   0.998  0.00  0.00    -0.018 A 
ATOM     39  C   UNL     1      11.601  -2.359   2.341  0.00  0.00    +0.006 A 
ATOM     40  C   UNL     1      11.872  -3.333   3.285  0.00  0.00    +0.000 A 
ATOM     41  C   UNL     1      12.239  -4.605   2.883  0.00  0.00    +0.001 A 
ATOM     42  C   UNL     1      12.338  -4.908   1.541  0.00  0.00    +0.009 A 
ENDBRANCH  26  30
ENDBRANCH  22  23
ENDBRANCH   2  22
TORSDOF 8
