REMARK  Name = ZINC40038190
REMARK  5 active torsions:
REMARK  status: ('A' for Active; 'I' for Inactive)
REMARK    1  A    between atoms: C_1  and  C_2
REMARK    2  A    between atoms: C_9  and  C_27
REMARK    3  A    between atoms: C_10  and  C_12
REMARK    4  A    between atoms: N_14  and  C_15
REMARK    5  A    between atoms: C_16  and  C_24
REMARK                            x       y       z     vdW  Elec       q    Type
REMARK                         _______ _______ _______ _____ _____    ______ ____
ROOT
ATOM      1  C   UNL     1       0.067  -5.466  -2.504  0.00  0.00    +0.284 C 
ATOM      2  O   UNL     1       0.085  -6.550  -1.953  0.00  0.00    -0.266 OA
ATOM      3  N   UNL     1       0.059  -5.394  -3.850  0.00  0.00    -0.273 N 
ATOM      4  H   UNL     1       0.044  -4.529  -4.289  0.00  0.00    +0.156 HD
ENDROOT
BRANCH   1  14
ATOM      5  C   UNL     1      -0.018   1.503   0.010  0.00  0.00    +0.045 C 
ATOM      6  C   UNL     1       0.002  -0.004   0.002  0.00  0.00    -0.029 A 
ATOM      7  C   UNL     1       0.006  -0.679  -1.200  0.00  0.00    +0.051 A 
ATOM      8  C   UNL     1       0.025  -2.069  -1.213  0.00  0.00    +0.136 A 
ATOM      9  C   UNL     1       0.041  -2.767   0.009  0.00  0.00    +0.025 A 
ATOM     10  C   UNL     1       0.037  -2.065   1.217  0.00  0.00    +0.032 A 
ATOM     11  C   UNL     1       0.023  -0.697   1.205  0.00  0.00    +0.045 A 
ATOM     12 CL   UNL     1       0.025   0.178   2.705  0.00  0.00    -0.083 Cl
ATOM     13  C   UNL     1       0.059  -4.185  -0.345  0.00  0.00    +0.008 A 
ATOM     14  C   UNL     1       0.053  -4.235  -1.703  0.00  0.00    +0.194 A 
ATOM     15  O   UNL     1       0.033  -2.982  -2.204  0.00  0.00    -0.450 OA
ATOM     16  C   UNL     1       0.080  -5.356   0.604  0.00  0.00    +0.048 C 
ENDBRANCH   1  14
BRANCH   3  17
ATOM     17  C   UNL     1       0.072  -6.555  -4.605  0.00  0.00    +0.085 A 
ATOM     18  C   UNL     1       0.073  -6.673  -5.987  0.00  0.00    +0.068 A 
ATOM     19  C   UNL     1       0.088  -8.016  -6.538  0.00  0.00    -0.023 A 
ATOM     20  C   UNL     1       0.100  -8.995  -5.608  0.00  0.00    -0.004 A 
ATOM     21  S   UNL     1       0.099  -8.142  -4.059  0.00  0.00    -0.077 S 
ATOM     22  C   UNL     1       0.115 -10.472  -5.856  0.00  0.00    +0.043 C 
ATOM     23  C   UNL     1      -0.265 -10.718  -7.324  0.00  0.00    +0.005 C 
ATOM     24  C   UNL     1       0.560  -9.783  -8.213  0.00  0.00    +0.005 C 
ATOM     25  C   UNL     1       0.092  -8.338  -8.025  0.00  0.00    +0.037 C 
BRANCH  18  26
ATOM     26  C   UNL     1       0.058  -5.491  -6.854  0.00  0.00    +0.244 C 
ATOM     27  O   UNL     1       1.106  -4.988  -7.215  0.00  0.00    -0.270 OA
ATOM     28  N   UNL     1      -1.116  -4.961  -7.252  0.00  0.00    -0.325 N 
ATOM     29  H   UNL     1      -1.951  -5.362  -6.964  0.00  0.00    +0.145 HD
ATOM     30  H   UNL     1      -1.125  -4.179  -7.826  0.00  0.00    +0.145 HD
ENDBRANCH  18  26
ENDBRANCH   3  17
TORSDOF 3
