REMARK  Name = ZINC36039457
REMARK  9 active torsions:
REMARK  status: ('A' for Active; 'I' for Inactive)
REMARK    1  A    between atoms: C_1  and  C_2
REMARK    2  A    between atoms: C_5  and  C_8
REMARK    3  A    between atoms: N_10  and  C_25
REMARK    4  A    between atoms: N_13  and  C_14
REMARK    5  A    between atoms: C_14  and  C_16
REMARK    6  A    between atoms: C_16  and  N_17
REMARK    7  A    between atoms: N_17  and  C_18
REMARK    8  A    between atoms: C_18  and  C_19
REMARK    9  A    between atoms: C_28  and  C_31
REMARK                            x       y       z     vdW  Elec       q    Type
REMARK                         _______ _______ _______ _____ _____    ______ ____
ROOT
ATOM      1  C   UNL     1       0.058  -4.252  -0.021  0.00  0.00    +0.066 A 
ATOM      2  C   UNL     1       0.069  -5.050   1.061  0.00  0.00    +0.120 A 
ATOM      3  N   UNL     1       0.086  -6.360   0.628  0.00  0.00    -0.287 N 
ATOM      4  C   UNL     1       0.085  -6.356  -0.732  0.00  0.00    +0.205 A 
ATOM      5  N   UNL     1       0.062  -5.064  -1.149  0.00  0.00    -0.326 N 
ATOM      6  N   UNL     1       0.099  -7.433  -1.518  0.00  0.00    -0.148 NA
ATOM      7  H   UNL     1       0.053  -4.761  -2.071  0.00  0.00    +0.169 HD
ENDROOT
BRANCH   1  12
ATOM      8  C   UNL     1      -0.018   1.503   0.010  0.00  0.00    +0.044 C 
ATOM      9  C   UNL     1       0.002  -0.004   0.002  0.00  0.00    -0.050 A 
ATOM     10  C   UNL     1       0.006  -0.686  -1.202  0.00  0.00    +0.004 A 
ATOM     11  C   UNL     1       0.024  -2.066  -1.216  0.00  0.00    +0.010 A 
ATOM     12  C   UNL     1       0.039  -2.773  -0.013  0.00  0.00    -0.000 A 
ATOM     13  C   UNL     1       0.036  -2.079   1.197  0.00  0.00    +0.010 A 
ATOM     14  C   UNL     1       0.023  -0.699   1.198  0.00  0.00    +0.004 A 
ENDBRANCH   1  12
BRANCH   3  15
ATOM     15  C   UNL     1       0.101  -7.496   1.447  0.00  0.00    +0.049 A 
ATOM     16  C   UNL     1       0.123  -8.763   0.879  0.00  0.00    +0.026 A 
ATOM     17  C   UNL     1       0.139  -9.881   1.689  0.00  0.00    +0.005 A 
ATOM     18  C   UNL     1       0.132  -9.740   3.064  0.00  0.00    -0.050 A 
ATOM     19  C   UNL     1       0.109  -8.480   3.633  0.00  0.00    +0.005 A 
ATOM     20  C   UNL     1       0.099  -7.358   2.829  0.00  0.00    +0.026 A 
ATOM     21  C   UNL     1       0.148 -10.963   3.945  0.00  0.00    +0.044 C 
ENDBRANCH   3  15
BRANCH   6  22
ATOM     22  C   UNL     1       0.097  -7.291  -2.838  0.00  0.00    +0.222 C 
ATOM     23  O   UNL     1       0.083  -6.179  -3.331  0.00  0.00    -0.276 OA
BRANCH  22  24
ATOM     24  C   UNL     1       0.113  -8.508  -3.727  0.00  0.00    +0.017 C 
BRANCH  24  25
ATOM     25  N   UNL     1       0.107  -8.087  -5.134  0.00  0.00    +0.386 N 
ATOM     26  H   UNL     1      -0.724  -7.546  -5.320  0.00  0.00    -0.085 HD
ATOM     27  H   UNL     1       0.924  -7.524  -5.320  0.00  0.00    -0.085 HD
BRANCH  25  28
ATOM     28  C   UNL     1       0.122  -9.273  -6.000  0.00  0.00    -0.050 C 
BRANCH  28  29
ATOM     29  C   UNL     1       0.116  -8.835  -7.466  0.00  0.00    +0.101 C 
ATOM     30  C   UNL     1       0.097 -10.073  -8.398  0.00  0.00    +0.032 C 
ATOM     31  C   UNL     1      -0.542  -9.468  -9.678  0.00  0.00    +0.030 C 
ATOM     32  C   UNL     1      -1.529  -8.435  -9.095  0.00  0.00    +0.160 C 
ATOM     33  O   UNL     1      -1.091  -8.117  -7.767  0.00  0.00    -0.378 OA
ENDBRANCH  28  29
ENDBRANCH  25  28
ENDBRANCH  24  25
ENDBRANCH  22  24
ENDBRANCH   6  22
TORSDOF 7
