REMARK  Name = ZINC40390568
REMARK  6 active torsions:
REMARK  status: ('A' for Active; 'I' for Inactive)
REMARK    1  A    between atoms: C_1  and  C_2
REMARK    2  A    between atoms: C_2  and  C_3
REMARK    3  A    between atoms: C_8  and  N_9
REMARK    4  A    between atoms: C_10  and  C_12
REMARK    5  A    between atoms: C_31  and  C_33
REMARK    6  A    between atoms: C_33  and  C_34
REMARK                            x       y       z     vdW  Elec       q    Type
REMARK                         _______ _______ _______ _____ _____    ______ ____
ROOT
ATOM      1  C   UNL     1       4.809  -0.539   0.771  0.00  0.00    +0.122 C 
ATOM      2  C   UNL     1       4.590   0.822   1.434  0.00  0.00    +0.114 C 
ATOM      3  C   UNL     1       5.437   1.861   0.747  0.00  0.00    +0.219 C 
ATOM      4  O   UNL     1       5.003   2.982   0.591  0.00  0.00    -0.275 OA
ATOM      5  N   UNL     1       6.670   1.559   0.306  0.00  0.00    -0.270 N 
ATOM      6  C   UNL     1       7.152   0.263   0.376  0.00  0.00    +0.138 A 
ATOM      7  C   UNL     1       6.285  -0.789   0.611  0.00  0.00    +0.069 A 
ATOM      8  C   UNL     1       6.797  -2.087   0.697  0.00  0.00    +0.258 A 
ATOM      9  O   UNL     1       6.060  -3.034   0.915  0.00  0.00    -0.267 OA
ATOM     10  N   UNL     1       8.125  -2.271   0.534  0.00  0.00    -0.295 N 
ATOM     11  H   UNL     1       8.504  -3.161   0.606  0.00  0.00    +0.172 HD
ATOM     12  C   UNL     1       8.932  -1.207   0.269  0.00  0.00    +0.200 A 
ATOM     13  N   UNL     1       8.454   0.016   0.190  0.00  0.00    -0.200 NA
ATOM     14  N   UNL     1      10.273  -1.415   0.081  0.00  0.00    -0.298 N 
ATOM     15  C   UNL     1      10.994  -2.418   0.877  0.00  0.00    +0.108 C 
ATOM     16  C   UNL     1      12.204  -1.748   1.535  0.00  0.00    +0.019 C 
ATOM     17  C   UNL     1      13.055  -1.069   0.459  0.00  0.00    +0.003 C 
ATOM     18  C   UNL     1      12.227   0.010  -0.242  0.00  0.00    +0.022 C 
ATOM     19  C   UNL     1      11.016  -0.644  -0.925  0.00  0.00    +0.076 C 
ATOM     20  H   UNL     1       7.230   2.258  -0.066  0.00  0.00    +0.156 HD
ENDROOT
BRANCH   1  22
ATOM     21  N   UNL     1       2.819  -0.349  -0.685  0.00  0.00    -0.285 N 
ATOM     22  C   UNL     1       4.148  -0.551  -0.583  0.00  0.00    +0.225 C 
ATOM     23  O   UNL     1       4.811  -0.743  -1.580  0.00  0.00    -0.275 OA
ATOM     24  H   UNL     1       2.301  -0.123   0.102  0.00  0.00    +0.155 HD
BRANCH  21  30
ATOM     25  C   UNL     1       0.893  -0.959  -2.008  0.00  0.00    -0.026 A 
ATOM     26  C   UNL     1       0.270  -1.067  -3.236  0.00  0.00    +0.005 A 
ATOM     27  C   UNL     1       0.938  -0.689  -4.387  0.00  0.00    +0.000 A 
ATOM     28  C   UNL     1       2.229  -0.201  -4.312  0.00  0.00    +0.002 A 
ATOM     29  C   UNL     1       2.857  -0.090  -3.087  0.00  0.00    +0.023 A 
ATOM     30  C   UNL     1       2.188  -0.465  -1.929  0.00  0.00    +0.037 A 
BRANCH  25  32
ATOM     31  C   UNL     1      -0.499  -0.146  -0.123  0.00  0.00    +0.009 C 
ATOM     32  C   UNL     1       0.165  -1.372  -0.755  0.00  0.00    +0.033 C 
ENDBRANCH  25  32
ENDBRANCH  21  30
ENDBRANCH   1  22
BRANCH  19  33
ATOM     33  C   UNL     1      10.109   0.439  -1.514  0.00  0.00    +0.019 C 
ATOM     34  C   UNL     1      10.838   1.147  -2.658  0.00  0.00    +0.006 C 
ENDBRANCH  19  33
TORSDOF 4
