REMARK  Name = ZINC38658068
REMARK  10 active torsions:
REMARK  status: ('A' for Active; 'I' for Inactive)
REMARK    1  A    between atoms: C_2  and  C_3
REMARK    2  A    between atoms: C_3  and  O_4
REMARK    3  A    between atoms: O_4  and  C_5
REMARK    4  A    between atoms: C_8  and  C_11
REMARK    5  A    between atoms: C_16  and  O_25
REMARK    6  A    between atoms: C_20  and  N_24
REMARK    7  A    between atoms: C_21  and  C_22
REMARK    8  A    between atoms: O_25  and  C_26
REMARK    9  A    between atoms: C_26  and  C_28
REMARK   10  A    between atoms: C_29  and  C_30
REMARK                            x       y       z     vdW  Elec       q    Type
REMARK                         _______ _______ _______ _____ _____    ______ ____
ROOT
ATOM      1  C   UNL     1      -5.784  -5.155  -1.501  0.00  0.00    +0.098 C 
ATOM      2  C   UNL     1      -5.399  -6.570  -1.157  0.00  0.00    +0.008 A 
ATOM      3  C   UNL     1      -5.131  -6.902   0.159  0.00  0.00    +0.012 A 
ATOM      4  C   UNL     1      -4.777  -8.194   0.492  0.00  0.00    +0.047 A 
ATOM      5  C   UNL     1      -4.690  -9.166  -0.495  0.00  0.00    +0.135 A 
ATOM      6  C   UNL     1      -4.957  -8.837  -1.813  0.00  0.00    +0.093 A 
ATOM      7  C   UNL     1      -5.313  -7.537  -2.147  0.00  0.00    +0.138 A 
ATOM      8  O   UNL     1      -5.572  -7.231  -3.443  0.00  0.00    -0.441 OA
ATOM      9  C   UNL     1      -6.275  -6.126  -3.743  0.00  0.00    +0.199 C 
ATOM     10  C   UNL     1      -6.412  -5.107  -2.866  0.00  0.00    +0.098 C 
ENDROOT
BRANCH   1  14
ATOM     11  C   UNL     1      -2.293  -2.691  -1.461  0.00  0.00    +0.121 A 
ATOM     12  C   UNL     1      -3.347  -2.417  -0.602  0.00  0.00    +0.046 A 
ATOM     13  C   UNL     1      -4.474  -3.215  -0.617  0.00  0.00    +0.008 A 
ATOM     14  C   UNL     1      -4.553  -4.286  -1.487  0.00  0.00    -0.034 A 
ATOM     15  C   UNL     1      -3.503  -4.562  -2.344  0.00  0.00    +0.008 A 
ATOM     16  C   UNL     1      -2.376  -3.764  -2.337  0.00  0.00    +0.046 A 
BRANCH  11  17
ATOM     17  O   UNL     1      -1.182  -1.907  -1.449  0.00  0.00    -0.488 OA
BRANCH  17  18
ATOM     18  C   UNL     1      -1.166  -0.821  -0.520  0.00  0.00    +0.256 C 
BRANCH  18  20
ATOM     19  C   UNL     1       0.134   1.240  -0.682  0.00  0.00    +0.007 C 
ATOM     20  C   UNL     1       0.134  -0.070  -0.650  0.00  0.00    +0.006 C 
ENDBRANCH  18  20
ENDBRANCH  17  18
ENDBRANCH  11  17
ENDBRANCH   1  14
BRANCH   9  21
ATOM     21  N   UNL     1      -6.870  -6.030  -4.976  0.00  0.00    -0.328 N 
ATOM     22  H   UNL     1      -6.779  -6.753  -5.616  0.00  0.00    +0.145 HD
ATOM     23  H   UNL     1      -7.381  -5.238  -5.207  0.00  0.00    +0.145 HD
ENDBRANCH   9  21
BRANCH  10  24
ATOM     24  C   UNL     1      -7.173  -3.957  -3.247  0.00  0.00    +0.101 C 
ATOM     25  N   UNL     1      -7.778  -3.044  -3.550  0.00  0.00    -0.191 NA
ENDBRANCH  10  24
BRANCH   5  26
ATOM     26  O   UNL     1      -4.342 -10.439  -0.168  0.00  0.00    -0.423 OA
BRANCH  26  27
ATOM     27  C   UNL     1      -3.137 -10.890  -0.574  0.00  0.00    +0.337 C 
ATOM     28  O   UNL     1      -2.357 -10.134  -1.121  0.00  0.00    -0.245 OA
BRANCH  27  29
ATOM     29  C   UNL     1      -2.770 -12.288  -0.357  0.00  0.00    +0.092 C 
ATOM     30  C   UNL     1      -1.564 -12.740  -0.764  0.00  0.00    +0.016 C 
BRANCH  30  31
ATOM     31  C   UNL     1      -1.194 -14.146  -0.546  0.00  0.00    -0.006 A 
ATOM     32  C   UNL     1      -2.092 -15.021   0.077  0.00  0.00    +0.011 A 
ATOM     33  C   UNL     1      -1.739 -16.337   0.278  0.00  0.00    +0.020 A 
ATOM     34  C   UNL     1      -0.498 -16.797  -0.136  0.00  0.00    +0.042 A 
ATOM     35  C   UNL     1       0.396 -15.939  -0.753  0.00  0.00    +0.040 A 
ATOM     36  C   UNL     1       0.055 -14.619  -0.966  0.00  0.00    +0.049 A 
ATOM     37 CL   UNL     1       1.174 -13.546  -1.747  0.00  0.00    -0.083 Cl
ATOM     38 CL   UNL     1      -0.063 -18.458   0.122  0.00  0.00    -0.083 Cl
ENDBRANCH  30  31
ENDBRANCH  27  29
ENDBRANCH  26  27
ENDBRANCH   5  26
TORSDOF 10
