REMARK  Name = ZINC40320119
REMARK  12 active torsions:
REMARK  status: ('A' for Active; 'I' for Inactive)
REMARK    1  A    between atoms: C_1  and  O_2
REMARK    2  A    between atoms: O_2  and  C_3
REMARK    3  A    between atoms: C_5  and  C_33
REMARK    4  A    between atoms: C_8  and  O_9
REMARK    5  A    between atoms: O_9  and  C_10
REMARK    6  A    between atoms: C_10  and  C_11
REMARK    7  A    between atoms: C_11  and  C_13
REMARK    8  A    between atoms: C_11  and  O_32
REMARK    9  A    between atoms: C_13  and  N_14
REMARK   10  A    between atoms: N_14  and  C_15
REMARK   11  A    between atoms: N_14  and  C_24
REMARK   12  A    between atoms: C_15  and  C_16
REMARK                            x       y       z     vdW  Elec       q    Type
REMARK                         _______ _______ _______ _____ _____    ______ ____
ROOT
ATOM      1  N   UNL     1       0.144  -7.482   2.236  0.00  0.00    +0.387 N 
ATOM      2  H   UNL     1       0.786  -7.846   2.924  0.00  0.00    -0.081 HD
ENDROOT
BRANCH   1   3
ATOM      3  C   UNL     1      -0.609  -6.361   2.814  0.00  0.00    -0.045 C 
ATOM      4  C   UNL     1       0.368  -5.321   3.388  0.00  0.00    +0.009 C 
ATOM      5  C   UNL     1      -0.399  -4.308   4.272  0.00  0.00    +0.164 C 
ATOM      6  S   UNL     1      -1.825  -5.299   4.877  0.00  0.00    -0.033 S 
ATOM      7  O   UNL     1      -3.029  -4.723   4.390  0.00  0.00    -0.174 OA
ATOM      8  O   UNL     1      -1.672  -5.524   6.272  0.00  0.00    -0.174 OA
ATOM      9  C   UNL     1      -1.506  -6.874   3.976  0.00  0.00    +0.151 C 
ENDBRANCH   1   3
BRANCH   1  10
ATOM     10  C   UNL     1       0.895  -7.016   1.063  0.00  0.00    -0.043 C 
BRANCH  10  11
ATOM     11  C   UNL     1       2.277  -6.529   1.503  0.00  0.00    +0.135 C 
BRANCH  11  12
ATOM     12  O   UNL     1       2.986  -7.604   2.121  0.00  0.00    -0.390 OA
ATOM     13  H   UNL     1       3.123  -8.368   1.545  0.00  0.00    +0.210 HD
ENDBRANCH  11  12
BRANCH  11  14
ATOM     14  C   UNL     1       3.057  -6.038   0.282  0.00  0.00    +0.258 C 
BRANCH  14  15
ATOM     15  O   UNL     1       4.301  -5.477   0.706  0.00  0.00    -0.486 OA
BRANCH  15  21
ATOM     16  C   UNL     1       6.349  -4.430   0.083  0.00  0.00    +0.162 A 
ATOM     17  C   UNL     1       7.186  -3.941  -0.899  0.00  0.00    +0.060 A 
ATOM     18  C   UNL     1       6.795  -4.005  -2.243  0.00  0.00    +0.018 A 
ATOM     19  C   UNL     1       5.557  -4.565  -2.581  0.00  0.00    +0.015 A 
ATOM     20  C   UNL     1       4.729  -5.051  -1.594  0.00  0.00    +0.050 A 
ATOM     21  C   UNL     1       5.120  -4.991  -0.263  0.00  0.00    +0.162 A 
BRANCH  16  23
ATOM     22  C   UNL     1       7.997  -3.781   1.671  0.00  0.00    +0.277 C 
ATOM     23  O   UNL     1       6.725  -4.369   1.389  0.00  0.00    -0.491 OA
ENDBRANCH  16  23
BRANCH  18  24
ATOM     24  C   UNL     1       7.680  -3.486  -3.293  0.00  0.00    +0.258 C 
ATOM     25  O   UNL     1       7.339  -3.543  -4.456  0.00  0.00    -0.296 OA
ENDBRANCH  18  24
ENDBRANCH  15  21
ENDBRANCH  14  15
ENDBRANCH  11  14
ENDBRANCH  10  11
ENDBRANCH   1  10
BRANCH   1  26
ATOM     26  C   UNL     1      -0.790  -8.541   1.830  0.00  0.00    -0.041 C 
BRANCH  26  27
ATOM     27  C   UNL     1      -1.221  -9.324   3.044  0.00  0.00    -0.046 A 
ATOM     28  C   UNL     1      -0.337  -9.521   4.089  0.00  0.00    +0.004 A 
ATOM     29  C   UNL     1      -0.732 -10.238   5.202  0.00  0.00    +0.020 A 
ATOM     30  C   UNL     1      -2.012 -10.759   5.272  0.00  0.00    +0.042 A 
ATOM     31  C   UNL     1      -2.897 -10.561   4.228  0.00  0.00    +0.040 A 
ATOM     32  C   UNL     1      -2.503  -9.839   3.115  0.00  0.00    +0.044 A 
ATOM     33 CL   UNL     1      -3.615  -9.585   1.806  0.00  0.00    -0.083 Cl
ATOM     34 CL   UNL     1      -2.507 -11.660   6.671  0.00  0.00    -0.083 Cl
ENDBRANCH  26  27
ENDBRANCH   1  26
TORSDOF 11
