REMARK  Name = ZINC00227555
REMARK  6 active torsions:
REMARK  status: ('A' for Active; 'I' for Inactive)
REMARK    1  A    between atoms: C_1  and  C_2
REMARK    2  A    between atoms: C_5  and  S_8
REMARK    3  A    between atoms: S_8  and  N_11
REMARK    4  A    between atoms: N_11  and  N_12
REMARK    5  A    between atoms: C_13  and  C_14
REMARK    6  A    between atoms: C_15  and  O_23
REMARK                            x       y       z     vdW  Elec       q    Type
REMARK                         _______ _______ _______ _____ _____    ______ ____
ROOT
ATOM      1  N   UNL     1       2.962   7.611   0.013  0.00  0.00    -0.173 NA
ATOM      2  C   UNL     1       1.704   7.279   0.023  0.00  0.00    +0.150 C 
ENDROOT
BRANCH   2   3
ATOM      3  C   UNL     1       1.319   5.864   0.020  0.00  0.00    +0.074 A 
ATOM      4  C   UNL     1       0.066   5.331   0.029  0.00  0.00    +0.140 A 
ATOM      5  C   UNL     1      -0.080   3.884   0.023  0.00  0.00    +0.031 A 
ATOM      6  C   UNL     1      -1.271   3.117   0.030  0.00  0.00    +0.012 A 
ATOM      7  C   UNL     1      -1.222   1.759   0.017  0.00  0.00    +0.001 A 
ATOM      8  C   UNL     1      -0.013   1.076   0.008  0.00  0.00    +0.001 A 
ATOM      9  C   UNL     1       1.171   1.787   0.001  0.00  0.00    +0.016 A 
ATOM     10  C   UNL     1       1.136   3.165   0.008  0.00  0.00    +0.024 A 
ATOM     11  S   UNL     1       2.379   4.431   0.003  0.00  0.00    -0.084 S 
BRANCH   4  12
ATOM     12  O   UNL     1      -1.029   6.138   0.043  0.00  0.00    -0.505 OA
ATOM     13  H   UNL     1      -1.337   6.366   0.931  0.00  0.00    +0.292 HD
ENDBRANCH   4  12
ENDBRANCH   2   3
BRANCH   1  14
ATOM     14  N   UNL     1       3.330   8.963   0.016  0.00  0.00    -0.137 N 
ATOM     15  H   UNL     1       2.647   9.651   0.026  0.00  0.00    +0.197 HD
BRANCH  14  16
ATOM     16  S   UNL     1       4.931   9.385   0.004  0.00  0.00    +0.086 S 
ATOM     17  O   UNL     1       4.977  10.798  -0.135  0.00  0.00    -0.149 OA
ATOM     18  O   UNL     1       5.539   8.706   1.094  0.00  0.00    -0.149 OA
BRANCH  16  23
ATOM     19  C   UNL     1       7.345   7.079  -5.022  0.00  0.00    +0.044 C 
ATOM     20  C   UNL     1       6.742   7.655  -3.767  0.00  0.00    -0.050 A 
ATOM     21  C   UNL     1       6.195   8.924  -3.783  0.00  0.00    +0.005 A 
ATOM     22  C   UNL     1       5.642   9.453  -2.631  0.00  0.00    +0.029 A 
ATOM     23  C   UNL     1       5.636   8.711  -1.464  0.00  0.00    +0.110 A 
ATOM     24  C   UNL     1       6.187   7.444  -1.448  0.00  0.00    +0.029 A 
ATOM     25  C   UNL     1       6.736   6.914  -2.600  0.00  0.00    +0.005 A 
ENDBRANCH  16  23
ENDBRANCH  14  16
ENDBRANCH   1  14
TORSDOF 5
