REMARK  Name = ZINC01464499
REMARK  8 active torsions:
REMARK  status: ('A' for Active; 'I' for Inactive)
REMARK    1  A    between atoms: C_1  and  O_2
REMARK    2  A    between atoms: O_2  and  C_3
REMARK    3  A    between atoms: C_6  and  C_9
REMARK    4  A    between atoms: C_9  and  C_11
REMARK    5  A    between atoms: C_13  and  C_25
REMARK    6  A    between atoms: C_16  and  O_24
REMARK    7  A    between atoms: C_18  and  C_19
REMARK    8  A    between atoms: C_28  and  O_31
REMARK                            x       y       z     vdW  Elec       q    Type
REMARK                         _______ _______ _______ _____ _____    ______ ____
ROOT
ATOM      1  C   UNL     1      -4.870  -4.360  -0.007  0.00  0.00    +0.149 C 
ATOM      2  C   UNL     1      -6.219  -4.926   0.463  0.00  0.00    +0.120 C 
ATOM      3  N   UNL     1      -6.257  -6.346   0.080  0.00  0.00    -0.293 N 
ATOM      4  C   UNL     1      -5.793  -6.707  -1.161  0.00  0.00    +0.256 C 
ATOM      5  N   UNL     1      -5.112  -5.902  -1.905  0.00  0.00    -0.306 N 
ATOM      6  C   UNL     1      -4.774  -4.535  -1.525  0.00  0.00    +0.284 C 
ATOM      7  O   UNL     1      -5.680  -3.632  -2.162  0.00  0.00    -0.194 OA
ATOM      8  H   UNL     1      -6.603  -7.014   0.692  0.00  0.00    +0.151 HD
ATOM      9  H   UNL     1      -4.808  -6.225  -2.768  0.00  0.00    +0.167 HD
ENDROOT
BRANCH   2  10
ATOM     10  C   UNL     1      -6.336  -4.794   1.960  0.00  0.00    -0.026 A 
ATOM     11  C   UNL     1      -5.704  -5.707   2.784  0.00  0.00    +0.009 A 
ATOM     12  C   UNL     1      -5.810  -5.588   4.157  0.00  0.00    +0.046 A 
ATOM     13  C   UNL     1      -6.551  -4.553   4.707  0.00  0.00    +0.117 A 
ATOM     14  C   UNL     1      -7.184  -3.638   3.877  0.00  0.00    +0.046 A 
ATOM     15  C   UNL     1      -7.070  -3.758   2.506  0.00  0.00    +0.009 A 
BRANCH  13  16
ATOM     16  O   UNL     1      -6.657  -4.434   6.057  0.00  0.00    -0.507 OA
ATOM     17  H   UNL     1      -5.966  -3.890   6.460  0.00  0.00    +0.292 HD
ENDBRANCH  13  16
ENDBRANCH   2  10
BRANCH   6  18
ATOM     18  C   UNL     1      -3.347  -4.223  -1.980  0.00  0.00    +0.441 C 
ATOM     19  F   UNL     1      -2.445  -5.011  -1.259  0.00  0.00    -0.166 F 
ATOM     20  F   UNL     1      -3.222  -4.500  -3.345  0.00  0.00    -0.166 F 
ATOM     21  F   UNL     1      -3.071  -2.870  -1.751  0.00  0.00    -0.166 F 
ENDBRANCH   6  18
BRANCH   1  22
ATOM     22  C   UNL     1      -4.785  -2.896   0.341  0.00  0.00    +0.173 C 
ATOM     23  O   UNL     1      -5.624  -2.125  -0.073  0.00  0.00    -0.292 OA
BRANCH  22  27
ATOM     24  C   UNL     1      -1.614  -1.477   2.763  0.00  0.00    +0.120 A 
ATOM     25  C   UNL     1      -2.509  -0.577   2.196  0.00  0.00    +0.046 A 
ATOM     26  C   UNL     1      -3.537  -1.031   1.410  0.00  0.00    +0.015 A 
ATOM     27  C   UNL     1      -3.685  -2.404   1.181  0.00  0.00    +0.018 A 
ATOM     28  C   UNL     1      -2.781  -3.307   1.754  0.00  0.00    +0.015 A 
ATOM     29  C   UNL     1      -1.754  -2.842   2.534  0.00  0.00    +0.046 A 
BRANCH  24  31
ATOM     30  C   UNL     1      -0.513   0.391   3.734  0.00  0.00    +0.277 C 
ATOM     31  O   UNL     1      -0.598  -1.022   3.539  0.00  0.00    -0.495 OA
ENDBRANCH  24  31
ENDBRANCH  22  27
ENDBRANCH   1  22
BRANCH   4  32
ATOM     32  O   UNL     1      -6.057  -7.950  -1.619  0.00  0.00    -0.483 OA
ATOM     33  H   UNL     1      -5.698  -8.130  -2.498  0.00  0.00    +0.295 HD
ENDBRANCH   4  32
TORSDOF 7
