REMARK  Name = ZINC55042412
REMARK  11 active torsions:
REMARK  status: ('A' for Active; 'I' for Inactive)
REMARK    1  A    between atoms: C_1  and  C_2
REMARK    2  A    between atoms: C_2  and  C_3
REMARK    3  A    between atoms: C_3  and  C_4
REMARK    4  A    between atoms: C_4  and  C_20
REMARK    5  A    between atoms: N_7  and  C_11
REMARK    6  A    between atoms: C_11  and  C_12
REMARK    7  A    between atoms: C_12  and  C_13
REMARK    8  A    between atoms: N_18  and  C_19
REMARK    9  A    between atoms: N_23  and  C_26
REMARK   10  A    between atoms: C_26  and  C_27
REMARK   11  A    between atoms: C_28  and  C_29
REMARK                            x       y       z     vdW  Elec       q    Type
REMARK                         _______ _______ _______ _____ _____    ______ ____
ROOT
ATOM      1  C   UNL     1      -2.783  -1.285  -1.768  0.00  0.00    +0.115 C 
ATOM      2  C   UNL     1      -1.997  -1.823  -2.947  0.00  0.00    +0.247 C 
ATOM      3  O   UNL     1      -2.391  -1.968  -4.084  0.00  0.00    -0.273 OA
ATOM      4  N   UNL     1      -0.770  -2.107  -2.467  0.00  0.00    -0.224 N 
ATOM      5  C   UNL     1      -0.672  -1.827  -1.163  0.00  0.00    +0.309 C 
ATOM      6  O   UNL     1       0.337  -1.998  -0.509  0.00  0.00    -0.252 OA
ATOM      7  N   UNL     1      -1.817  -1.333  -0.657  0.00  0.00    -0.285 N 
ATOM      8  H   UNL     1      -1.975  -1.061   0.261  0.00  0.00    +0.151 HD
ENDROOT
BRANCH   1   9
ATOM      9  C   UNL     1      -3.991  -2.176  -1.469  0.00  0.00    +0.024 C 
ATOM     10  C   UNL     1      -4.717  -1.655  -0.227  0.00  0.00    +0.021 C 
ATOM     11  C   UNL     1      -5.888  -2.584   0.102  0.00  0.00    +0.085 C 
ATOM     12  N   UNL     1      -5.383  -3.942   0.342  0.00  0.00    -0.297 NA
ATOM     13  C   UNL     1      -4.723  -4.483  -0.853  0.00  0.00    +0.085 C 
ATOM     14  C   UNL     1      -3.518  -3.609  -1.210  0.00  0.00    +0.021 C 
BRANCH  12  15
ATOM     15  C   UNL     1      -6.460  -4.832   0.796  0.00  0.00    +0.132 C 
BRANCH  15  16
ATOM     16  C   UNL     1      -6.782  -4.536   2.238  0.00  0.00    +0.033 C 
ATOM     17  C   UNL     1      -7.971  -4.044   2.565  0.00  0.00    +0.024 C 
ATOM     18 CL   UNL     1      -5.599  -4.840   3.471  0.00  0.00    -0.087 Cl
BRANCH  17  19
ATOM     19  C   UNL     1      -8.350  -3.914   3.988  0.00  0.00    -0.024 A 
ATOM     20  C   UNL     1      -9.136  -2.840   4.408  0.00  0.00    +0.008 A 
ATOM     21  C   UNL     1      -9.487  -2.724   5.737  0.00  0.00    +0.001 A 
ATOM     22  C   UNL     1      -9.062  -3.670   6.652  0.00  0.00    +0.000 A 
ATOM     23  C   UNL     1      -8.283  -4.737   6.243  0.00  0.00    +0.001 A 
ATOM     24  C   UNL     1      -7.929  -4.867   4.915  0.00  0.00    +0.008 A 
ENDBRANCH  17  19
ENDBRANCH  15  16
ENDBRANCH  12  15
ENDBRANCH   1   9
BRANCH   1  25
ATOM     25  C   UNL     1      -3.230   0.154  -2.031  0.00  0.00    +0.035 C 
BRANCH  25  27
ATOM     26  C   UNL     1      -2.459   2.451  -2.641  0.00  0.00    +0.004 C 
ATOM     27  C   UNL     1      -2.012   1.011  -2.378  0.00  0.00    -0.001 C 
ENDBRANCH  25  27
ENDBRANCH   1  25
BRANCH   4  28
ATOM     28  C   UNL     1       0.322  -2.657  -3.275  0.00  0.00    +0.116 C 
BRANCH  28  29
ATOM     29  C   UNL     1       1.137  -1.511  -3.878  0.00  0.00    +0.004 C 
BRANCH  29  30
ATOM     30  C   UNL     1       2.350  -2.081  -4.615  0.00  0.00    -0.068 C 
ATOM     31  C   UNL     1       1.884  -2.922  -5.822  0.00  0.00    -0.017 C 
ATOM     32  C   UNL     1       2.937  -2.585  -6.910  0.00  0.00    -0.020 C 
ATOM     33  C   UNL     1       3.224  -1.092  -6.617  0.00  0.00    -0.079 C 
ATOM     34  N   UNL     1       3.181  -0.981  -5.140  0.00  0.00    +0.380 N 
ATOM     35  C   UNL     1       2.592   0.309  -4.756  0.00  0.00    -0.096 C 
ATOM     36  H   UNL     1       4.114  -1.052  -4.764  0.00  0.00    -0.082 HD
ENDBRANCH  29  30
ENDBRANCH  28  29
ENDBRANCH   4  28
TORSDOF 9
