REMARK  Name = ZINC45358070
REMARK  13 active torsions:
REMARK  status: ('A' for Active; 'I' for Inactive)
REMARK    1  A    between atoms: C_1  and  C_2
REMARK    2  A    between atoms: C_11  and  N_12
REMARK    3  A    between atoms: N_12  and  C_13
REMARK    4  A    between atoms: C_14  and  C_21
REMARK    5  A    between atoms: C_18  and  C_19
REMARK    6  A    between atoms: C_22  and  C_23
REMARK    7  A    between atoms: C_23  and  C_24
REMARK    8  A    between atoms: C_24  and  N_25
REMARK    9  A    between atoms: C_28  and  N_31
REMARK   10  A    between atoms: N_31  and  S_32
REMARK   11  A    between atoms: S_32  and  C_35
REMARK   12  A    between atoms: C_35  and  C_36
REMARK   13  A    between atoms: C_35  and  C_37
REMARK                            x       y       z     vdW  Elec       q    Type
REMARK                         _______ _______ _______ _____ _____    ______ ____
ROOT
ATOM      1  C   UNL     1      -1.502  -1.466   3.033  0.00  0.00    +0.059 A 
ATOM      2  C   UNL     1      -1.778  -0.881   4.283  0.00  0.00    +0.015 A 
ATOM      3  C   UNL     1      -1.880  -1.702   5.403  0.00  0.00    +0.120 A 
ATOM      4  N   UNL     1      -1.722  -3.008   5.305  0.00  0.00    -0.261 NA
ATOM      5  C   UNL     1      -1.462  -3.602   4.158  0.00  0.00    +0.131 A 
ATOM      6  C   UNL     1      -1.347  -2.864   2.978  0.00  0.00    +0.091 A 
ENDROOT
BRANCH   1   7
ATOM      7  N   UNL     1      -1.392  -0.691   1.892  0.00  0.00    -0.313 N 
ATOM      8  H   UNL     1      -2.153  -0.590   1.299  0.00  0.00    +0.152 HD
BRANCH   7  19
ATOM      9  C   UNL     1      -1.179   0.676  -0.588  0.00  0.00    +0.046 C 
ATOM     10  C   UNL     1      -0.038   0.624   0.396  0.00  0.00    -0.020 A 
ATOM     11  C   UNL     1       1.169   1.264   0.107  0.00  0.00    +0.004 A 
ATOM     12  C   UNL     1       1.655   2.052  -1.028  0.00  0.00    +0.028 A 
ATOM     13  C   UNL     1       2.916   2.414  -0.744  0.00  0.00    +0.083 A 
ATOM     14  N   UNL     1       3.278   1.923   0.481  0.00  0.00    -0.361 N 
ATOM     15  H   UNL     1       4.142   2.054   0.901  0.00  0.00    +0.165 HD
ATOM     16  C   UNL     1       2.230   1.213   1.029  0.00  0.00    +0.047 A 
ATOM     17  C   UNL     1       2.067   0.523   2.226  0.00  0.00    +0.028 A 
ATOM     18  C   UNL     1       0.873  -0.104   2.502  0.00  0.00    +0.025 A 
ATOM     19  C   UNL     1      -0.183  -0.052   1.593  0.00  0.00    +0.035 A 
ENDBRANCH   7  19
ENDBRANCH   1   7
BRANCH   6  20
ATOM     20  C   UNL     1      -1.070  -3.518   1.734  0.00  0.00    +0.103 C 
ATOM     21  N   UNL     1      -0.851  -4.036   0.748  0.00  0.00    -0.191 NA
ENDBRANCH   6  20
BRANCH   2  22
ATOM     22  C   UNL     1      -1.957   0.580   4.405  0.00  0.00    +0.007 C 
ATOM     23  C   UNL     1      -2.217   1.120   5.588  0.00  0.00    -0.028 C 
BRANCH  23  24
ATOM     24  C   UNL     1      -2.399   2.611   5.713  0.00  0.00    +0.008 C 
BRANCH  24  25
ATOM     25  C   UNL     1      -3.748   2.906   6.371  0.00  0.00    -0.075 C 
BRANCH  25  26
ATOM     26  N   UNL     1      -3.926   4.359   6.492  0.00  0.00    +0.380 N 
ATOM     27  C   UNL     1      -3.998   4.956   5.153  0.00  0.00    -0.077 C 
ATOM     28  C   UNL     1      -4.102   6.478   5.273  0.00  0.00    +0.002 C 
ATOM     29  C   UNL     1      -5.364   6.837   6.062  0.00  0.00    +0.073 C 
ATOM     30  C   UNL     1      -5.312   6.149   7.429  0.00  0.00    +0.002 C 
ATOM     31  C   UNL     1      -5.163   4.640   7.230  0.00  0.00    -0.077 C 
ATOM     32  H   UNL     1      -3.142   4.753   6.991  0.00  0.00    -0.082 HD
BRANCH  29  33
ATOM     33  N   UNL     1      -5.429   8.289   6.246  0.00  0.00    -0.191 NA
ATOM     34  H   UNL     1      -4.616   8.797   6.391  0.00  0.00    +0.148 HD
BRANCH  33  35
ATOM     35  S   UNL     1      -6.893   9.063   6.207  0.00  0.00    +0.032 S 
ATOM     36  O   UNL     1      -7.705   8.350   7.128  0.00  0.00    -0.158 OA
ATOM     37  O   UNL     1      -6.584  10.434   6.423  0.00  0.00    -0.158 OA
BRANCH  35  38
ATOM     38  C   UNL     1      -7.503   8.820   4.516  0.00  0.00    +0.142 C 
ATOM     39  C   UNL     1      -8.844   9.538   4.350  0.00  0.00    +0.033 C 
ATOM     40  C   UNL     1      -6.492   9.392   3.521  0.00  0.00    +0.033 C 
ENDBRANCH  35  38
ENDBRANCH  33  35
ENDBRANCH  29  33
ENDBRANCH  25  26
ENDBRANCH  24  25
ENDBRANCH  23  24
ENDBRANCH   2  22
TORSDOF 10
