REMARK  Name = ZINC02482150
REMARK  5 active torsions:
REMARK  status: ('A' for Active; 'I' for Inactive)
REMARK    1  A    between atoms: C_1  and  O_2
REMARK    2  A    between atoms: O_2  and  C_3
REMARK    3  A    between atoms: C_6  and  O_25
REMARK    4  A    between atoms: C_7  and  C_9
REMARK    5  A    between atoms: O_25  and  C_26
REMARK                            x       y       z     vdW  Elec       q    Type
REMARK                         _______ _______ _______ _____ _____    ______ ____
ROOT
ATOM      1  C   UNL     1       1.387  -4.132   2.207  0.00  0.00    +0.134 C 
ATOM      2  C   UNL     1       2.707  -4.584   1.645  0.00  0.00    -0.023 C 
ATOM      3  C   UNL     1       2.769  -5.413   0.606  0.00  0.00    +0.041 C 
ATOM      4  C   UNL     1       4.086  -5.865   0.100  0.00  0.00    -0.001 A 
ATOM      5  C   UNL     1       4.202  -6.442  -1.162  0.00  0.00    +0.010 A 
ATOM      6  C   UNL     1       5.442  -6.844  -1.617  0.00  0.00    +0.001 A 
ATOM      7  C   UNL     1       6.563  -6.674  -0.824  0.00  0.00    +0.000 A 
ATOM      8  C   UNL     1       6.451  -6.106   0.433  0.00  0.00    +0.004 A 
ATOM      9  C   UNL     1       5.217  -5.708   0.899  0.00  0.00    -0.038 A 
ATOM     10  C   UNL     1       5.067  -5.117   2.277  0.00  0.00    +0.040 C 
ATOM     11  C   UNL     1       3.976  -4.050   2.264  0.00  0.00    +0.039 C 
ATOM     12  N   UNL     1       1.607  -5.870  -0.019  0.00  0.00    -0.296 N 
ATOM     13  C   UNL     1       0.396  -5.497   0.422  0.00  0.00    +0.135 C 
ATOM     14  S   UNL     1      -1.003  -6.078  -0.376  0.00  0.00    -0.019 S 
ATOM     15  N   UNL     1       0.259  -4.681   1.473  0.00  0.00    -0.316 N 
ATOM     16  H   UNL     1       1.677  -6.464  -0.783  0.00  0.00    +0.154 HD
ATOM     17  H   UNL     1      -0.637  -4.445   1.759  0.00  0.00    +0.149 HD
ENDROOT
BRANCH   1  22
ATOM     18  C   UNL     1       1.444  -0.500   3.249  0.00  0.00    +0.121 A 
ATOM     19  C   UNL     1       1.199   0.139   2.042  0.00  0.00    +0.049 A 
ATOM     20  C   UNL     1       1.015  -0.604   0.892  0.00  0.00    +0.049 A 
ATOM     21  C   UNL     1       1.075  -1.989   0.945  0.00  0.00    +0.126 A 
ATOM     22  C   UNL     1       1.321  -2.628   2.151  0.00  0.00    +0.022 A 
ATOM     23  C   UNL     1       1.510  -1.884   3.300  0.00  0.00    +0.055 A 
BRANCH  18  25
ATOM     24  C   UNL     1       1.543   1.653   4.255  0.00  0.00    +0.277 C 
ATOM     25  O   UNL     1       1.625   0.231   4.381  0.00  0.00    -0.495 OA
ENDBRANCH  18  25
BRANCH  21  26
ATOM     26  O   UNL     1       0.894  -2.721  -0.187  0.00  0.00    -0.495 OA
ATOM     27  C   UNL     1       0.645  -1.997  -1.394  0.00  0.00    +0.277 C 
ENDBRANCH  21  26
ENDBRANCH   1  22
TORSDOF 3
