REMARK  Name = ZINC09092490
REMARK  7 active torsions:
REMARK  status: ('A' for Active; 'I' for Inactive)
REMARK    1  A    between atoms: C_1  and  C_2
REMARK    2  A    between atoms: C_8  and  N_10
REMARK    3  A    between atoms: C_14  and  C_16
REMARK    4  A    between atoms: C_16  and  S_17
REMARK    5  A    between atoms: S_17  and  C_18
REMARK    6  A    between atoms: C_21  and  C_24
REMARK    7  A    between atoms: N_22  and  N_23
REMARK                            x       y       z     vdW  Elec       q    Type
REMARK                         _______ _______ _______ _____ _____    ______ ____
ROOT
ATOM      1  C   UNL     1       3.971   2.716  -0.064  0.00  0.00    +0.173 C 
ENDROOT
BRANCH   1   6
ATOM      2  N   UNL     1       7.484   5.998  -0.033  0.00  0.00    -0.296 N 
ATOM      3  C   UNL     1       7.108   4.707  -0.135  0.00  0.00    +0.306 C 
ATOM      4  O   UNL     1       7.945   3.842  -0.301  0.00  0.00    -0.252 OA
ATOM      5  N   UNL     1       5.804   4.377  -0.053  0.00  0.00    -0.239 N 
ATOM      6  C   UNL     1       5.429   3.086  -0.155  0.00  0.00    +0.231 C 
ATOM      7  O   UNL     1       6.264   2.223  -0.321  0.00  0.00    -0.274 OA
ATOM      8  H   UNL     1       6.815   6.688   0.100  0.00  0.00    +0.151 HD
ATOM      9  H   UNL     1       5.136   5.067   0.080  0.00  0.00    +0.159 HD
BRANCH   2  16
ATOM     10  C   UNL     1       8.380   7.952  -1.973  0.00  0.00    +0.009 C 
ATOM     11  C   UNL     1       9.030   7.806  -0.596  0.00  0.00    +0.006 C 
ATOM     12  C   UNL     1       8.331   8.733   0.400  0.00  0.00    +0.005 C 
ATOM     13  C   UNL     1       8.982   8.587   1.777  0.00  0.00    +0.000 C 
ATOM     14  C   UNL     1       8.852   7.138   2.251  0.00  0.00    +0.002 C 
ATOM     15  C   UNL     1       9.552   6.211   1.255  0.00  0.00    +0.022 C 
ATOM     16  C   UNL     1       8.901   6.357  -0.122  0.00  0.00    +0.077 C 
ENDBRANCH   2  16
ENDBRANCH   1   6
BRANCH   1  17
ATOM     17  S   UNL     1       3.791   0.923  -0.236  0.00  0.00    -0.075 S 
BRANCH  17  18
ATOM     18  C   UNL     1       2.041   0.776  -0.095  0.00  0.00    +0.209 A 
ATOM     19  N   UNL     1       1.188   1.760   0.085  0.00  0.00    -0.121 NA
ATOM     20  N   UNL     1      -0.010   1.299   0.144  0.00  0.00    -0.127 NA
ATOM     21  C   UNL     1       0.004  -0.006   0.005  0.00  0.00    +0.183 A 
ATOM     22  N   UNL     1       1.318  -0.381  -0.152  0.00  0.00    -0.224 N 
BRANCH  21  23
ATOM     23  C   UNL     1      -1.171  -0.904   0.016  0.00  0.00    +0.035 A 
ATOM     24  C   UNL     1      -1.157  -2.068   0.787  0.00  0.00    +0.013 A 
ATOM     25  C   UNL     1      -2.256  -2.901   0.793  0.00  0.00    +0.001 A 
ATOM     26  C   UNL     1      -3.372  -2.585   0.037  0.00  0.00    +0.001 A 
ATOM     27  C   UNL     1      -3.393  -1.434  -0.729  0.00  0.00    +0.016 A 
ATOM     28  C   UNL     1      -2.301  -0.588  -0.740  0.00  0.00    +0.029 A 
ATOM     29 BR   UNL     1      -2.335   0.990  -1.782  0.00  0.00    -0.050 Br
ENDBRANCH  21  23
BRANCH  22  30
ATOM     30  N   UNL     1       1.800  -1.647  -0.329  0.00  0.00    -0.295 N 
ATOM     31  H   UNL     1       1.923  -1.854  -1.308  0.00  0.00    +0.163 HD
ATOM     32  H   UNL     1       2.660  -1.781   0.181  0.00  0.00    +0.163 HD
ENDBRANCH  22  30
ENDBRANCH  17  18
ENDBRANCH   1  17
TORSDOF 6
