REMARK  Name = ZINC19352854
REMARK  14 active torsions:
REMARK  status: ('A' for Active; 'I' for Inactive)
REMARK    1  A    between atoms: C_1  and  C_2
REMARK    2  A    between atoms: C_5  and  C_34
REMARK    3  A    between atoms: C_6  and  O_8
REMARK    4  A    between atoms: O_8  and  C_9
REMARK    5  A    between atoms: C_9  and  C_10
REMARK    6  A    between atoms: C_13  and  S_16
REMARK    7  A    between atoms: N_14  and  N_15
REMARK    8  A    between atoms: S_16  and  C_17
REMARK    9  A    between atoms: C_17  and  C_18
REMARK   10  A    between atoms: N_20  and  C_21
REMARK   11  A    between atoms: C_21  and  C_23
REMARK   12  A    between atoms: C_21  and  C_24
REMARK   13  A    between atoms: C_34  and  C_35
REMARK   14  A    between atoms: C_34  and  C_36
REMARK                            x       y       z     vdW  Elec       q    Type
REMARK                         _______ _______ _______ _____ _____    ______ ____
ROOT
ATOM      1  C   UNL     1      10.713   5.833  -4.263  0.00  0.00    +0.189 A 
ATOM      2  N   UNL     1       9.880   6.672  -3.714  0.00  0.00    -0.128 NA
ATOM      3  N   UNL     1       8.918   6.034  -3.150  0.00  0.00    -0.121 NA
ATOM      4  C   UNL     1       9.090   4.741  -3.303  0.00  0.00    +0.209 A 
ATOM      5  N   UNL     1      10.239   4.573  -4.021  0.00  0.00    -0.225 N 
ENDROOT
BRANCH   5   6
ATOM      6  N   UNL     1      10.800   3.392  -4.415  0.00  0.00    -0.295 N 
ATOM      7  H   UNL     1      10.316   2.439  -4.155  0.00  0.00    +0.163 HD
ATOM      8  H   UNL     1      11.736   3.393  -4.994  0.00  0.00    +0.163 HD
ENDBRANCH   5   6
BRANCH   1   9
ATOM      9  C   UNL     1      11.965   6.186  -5.023  0.00  0.00    +0.306 C 
BRANCH   9  10
ATOM     10  O   UNL     1      11.653   6.344  -6.408  0.00  0.00    -0.484 OA
BRANCH  10  16
ATOM     11  C   UNL     1      16.393   7.328  -7.027  0.00  0.00    +0.044 C 
ATOM     12  C   UNL     1      15.002   7.154  -7.578  0.00  0.00    -0.047 A 
ATOM     13  C   UNL     1      14.768   7.321  -8.931  0.00  0.00    +0.004 A 
ATOM     14  C   UNL     1      13.492   7.162  -9.439  0.00  0.00    +0.008 A 
ATOM     15  C   UNL     1      12.448   6.829  -8.597  0.00  0.00    -0.003 A 
ATOM     16  C   UNL     1      12.679   6.666  -7.239  0.00  0.00    +0.125 A 
ATOM     17  C   UNL     1      13.960   6.827  -6.731  0.00  0.00    +0.049 A 
BRANCH  15  18
ATOM     18  C   UNL     1      11.059   6.649  -9.153  0.00  0.00    +0.016 C 
ATOM     19  C   UNL     1      10.604   7.950  -9.818  0.00  0.00    +0.012 C 
ATOM     20  C   UNL     1      11.066   5.522 -10.188  0.00  0.00    +0.012 C 
ENDBRANCH  15  18
ENDBRANCH  10  16
ENDBRANCH   9  10
ENDBRANCH   1   9
BRANCH   4  21
ATOM     21  S   UNL     1       8.034   3.465  -2.703  0.00  0.00    -0.075 S 
BRANCH  21  22
ATOM     22  C   UNL     1       6.769   4.465  -1.880  0.00  0.00    +0.173 C 
BRANCH  22  23
ATOM     23  C   UNL     1       5.729   3.559  -1.274  0.00  0.00    +0.224 C 
ATOM     24  O   UNL     1       5.832   2.356  -1.387  0.00  0.00    -0.275 OA
ATOM     25  N   UNL     1       4.683   4.086  -0.606  0.00  0.00    -0.308 N 
ATOM     26  H   UNL     1       4.590   5.177  -0.503  0.00  0.00    +0.149 HD
BRANCH  25  27
ATOM     27  C   UNL     1       3.671   3.205  -0.017  0.00  0.00    +0.101 C 
ATOM     28  C   UNL     1       4.111   2.793   1.390  0.00  0.00    +0.033 C 
BRANCH  27  29
ATOM     29  C   UNL     1       2.355   3.934   0.062  0.00  0.00    -0.020 A 
ATOM     30  C   UNL     1       2.330   5.292   0.160  0.00  0.00    +0.006 A 
ATOM     31  C   UNL     1       1.122   5.983   0.234  0.00  0.00    +0.001 A 
ATOM     32  C   UNL     1      -0.067   5.322   0.209  0.00  0.00    +0.008 A 
ATOM     33  C   UNL     1      -0.081   3.920   0.108  0.00  0.00    -0.018 A 
ATOM     34  C   UNL     1       1.147   3.217   0.033  0.00  0.00    -0.013 A 
ATOM     35  C   UNL     1       1.133   1.815  -0.068  0.00  0.00    +0.009 A 
ATOM     36  C   UNL     1      -0.056   1.154  -0.093  0.00  0.00    +0.001 A 
ATOM     37  C   UNL     1      -1.264   1.846  -0.025  0.00  0.00    +0.001 A 
ATOM     38  C   UNL     1      -1.289   3.203   0.079  0.00  0.00    +0.008 A 
ENDBRANCH  27  29
ENDBRANCH  25  27
ENDBRANCH  22  23
ENDBRANCH  21  22
ENDBRANCH   4  21
TORSDOF 10
