REMARK  Name = ZINC52839842
REMARK  6 active torsions:
REMARK  status: ('A' for Active; 'I' for Inactive)
REMARK    1  A    between atoms: C_1  and  C_2
REMARK    2  A    between atoms: C_5  and  C_21
REMARK    3  A    between atoms: C_6  and  C_8
REMARK    4  A    between atoms: C_9  and  N_20
REMARK    5  A    between atoms: N_10  and  N_19
REMARK    6  A    between atoms: C_11  and  C_13
REMARK                            x       y       z     vdW  Elec       q    Type
REMARK                         _______ _______ _______ _____ _____    ______ ____
ROOT
ATOM      1  C   UNL     1       0.052  -2.846   2.460  0.00  0.00    +0.088 A 
ATOM      2  C   UNL     1       1.068  -3.640   2.916  0.00  0.00    +0.139 A 
ATOM      3  N   UNL     1       0.665  -4.135   4.126  0.00  0.00    -0.240 N 
ATOM      4  C   UNL     1      -0.577  -3.633   4.375  0.00  0.00    +0.110 A 
ATOM      5  N   UNL     1      -0.932  -2.866   3.385  0.00  0.00    -0.340 N 
ATOM      6  H   UNL     1      -1.772  -2.385   3.320  0.00  0.00    +0.167 HD
ENDROOT
BRANCH   1  12
ATOM      7  C   UNL     1      -0.018   1.503   0.010  0.00  0.00    +0.044 C 
ATOM      8  C   UNL     1       0.002  -0.004   0.002  0.00  0.00    -0.050 A 
ATOM      9  C   UNL     1       0.006  -0.688  -1.201  0.00  0.00    +0.003 A 
ATOM     10  C   UNL     1       0.025  -2.071  -1.217  0.00  0.00    +0.004 A 
ATOM     11  C   UNL     1       0.040  -2.777  -0.031  0.00  0.00    -0.041 A 
ATOM     12  C   UNL     1       0.036  -2.094   1.184  0.00  0.00    +0.005 A 
ATOM     13  C   UNL     1       0.023  -0.699   1.194  0.00  0.00    +0.013 A 
ATOM     14  C   UNL     1       0.060  -4.284  -0.050  0.00  0.00    +0.044 C 
ENDBRANCH   1  12
BRANCH   4  15
ATOM     15  C   UNL     1      -1.405  -3.917   5.602  0.00  0.00    +0.055 C 
ATOM     16  C   UNL     1      -2.367  -5.072   5.312  0.00  0.00    +0.011 C 
ATOM     17  C   UNL     1      -3.207  -5.360   6.558  0.00  0.00    +0.001 C 
ATOM     18  C   UNL     1      -4.008  -4.112   6.932  0.00  0.00    +0.000 C 
ATOM     19  C   UNL     1      -3.047  -2.957   7.222  0.00  0.00    +0.001 C 
ATOM     20  C   UNL     1      -2.207  -2.669   5.976  0.00  0.00    +0.011 C 
ENDBRANCH   4  15
BRANCH   3  21
ATOM     21  N   UNL     1       1.376  -4.975   4.935  0.00  0.00    -0.295 N 
ATOM     22  H   UNL     1       1.950  -4.455   5.581  0.00  0.00    +0.163 HD
ATOM     23  H   UNL     1       0.763  -5.610   5.425  0.00  0.00    +0.163 HD
ENDBRANCH   3  21
BRANCH   2  24
ATOM     24  N   UNL     1       2.275  -3.894   2.274  0.00  0.00    -0.342 N 
ATOM     25  H   UNL     1       2.461  -3.490   1.412  0.00  0.00    +0.144 HD
ATOM     26  H   UNL     1       2.931  -4.477   2.688  0.00  0.00    +0.144 HD
ENDBRANCH   2  24
TORSDOF 4
