REMARK  Name = ZINC14732503
REMARK  10 active torsions:
REMARK  status: ('A' for Active; 'I' for Inactive)
REMARK    1  A    between atoms: C_1  and  O_2
REMARK    2  A    between atoms: O_2  and  C_3
REMARK    3  A    between atoms: C_3  and  C_4
REMARK    4  A    between atoms: C_4  and  C_5
REMARK    5  A    between atoms: C_5  and  N_6
REMARK    6  A    between atoms: N_9  and  C_25
REMARK    7  A    between atoms: C_17  and  C_18
REMARK    8  A    between atoms: C_17  and  N_69
REMARK    9  A    between atoms: C_21  and  O_24
REMARK   10  A    between atoms: C_25  and  C_26
REMARK                            x       y       z     vdW  Elec       q    Type
REMARK                         _______ _______ _______ _____ _____    ______ ____
ROOT
ATOM      1  N   UNL     1      -0.593   2.900   1.174  0.00  0.00    -0.271 N 
ATOM      2  C   UNL     1       0.013   2.954   2.376  0.00  0.00    +0.312 C 
ATOM      3  O   UNL     1       0.177   3.981   3.004  0.00  0.00    -0.252 OA
ATOM      4  N   UNL     1       0.414   1.749   2.800  0.00  0.00    -0.220 N 
ATOM      5  C   UNL     1       0.107   0.782   1.910  0.00  0.00    +0.247 C 
ATOM      6  O   UNL     1       0.338  -0.405   2.007  0.00  0.00    -0.273 OA
ATOM      7  C   UNL     1      -0.584   1.489   0.768  0.00  0.00    +0.112 C 
ATOM      8  C   UNL     1       0.203   1.309  -0.526  0.00  0.00    +0.017 C 
ATOM      9  C   UNL     1      -0.534   2.013  -1.670  0.00  0.00    -0.076 C 
ATOM     10  C   UNL     1      -2.675   1.685  -0.578  0.00  0.00    -0.076 C 
ATOM     11  C   UNL     1      -2.010   0.971   0.602  0.00  0.00    +0.017 C 
ATOM     12  N   UNL     1      -1.885   1.425  -1.801  0.00  0.00    +0.382 N 
ATOM     13  H   UNL     1      -1.795   0.410  -1.930  0.00  0.00    -0.081 HD
ENDROOT
BRANCH   1  14
ATOM     14  C   UNL     1      -1.150   4.026   0.421  0.00  0.00    +0.112 C 
BRANCH  14  15
ATOM     15  C   UNL     1      -0.017   4.956  -0.018  0.00  0.00    +0.047 C 
BRANCH  15  16
ATOM     16  C   UNL     1      -0.582   6.062  -0.912  0.00  0.00    +0.161 C 
BRANCH  16  18
ATOM     17  C   UNL     1       0.053   8.004  -2.166  0.00  0.00    +0.193 C 
ATOM     18  O   UNL     1       0.476   6.931  -1.322  0.00  0.00    -0.383 OA
ENDBRANCH  16  18
ENDBRANCH  15  16
ENDBRANCH  14  15
ENDBRANCH   1  14
BRANCH  12  19
ATOM     19  C   UNL     1      -2.572   1.998  -2.977  0.00  0.00    -0.043 C 
BRANCH  19  20
ATOM     20  C   UNL     1      -4.025   1.602  -2.941  0.00  0.00    -0.064 A 
ATOM     21  C   UNL     1      -4.434   0.424  -3.538  0.00  0.00    +0.005 A 
ATOM     22  C   UNL     1      -5.765   0.055  -3.502  0.00  0.00    +0.045 A 
ATOM     23  C   UNL     1      -6.693   0.874  -2.875  0.00  0.00    +0.117 A 
ATOM     24  C   UNL     1      -6.282   2.058  -2.281  0.00  0.00    +0.045 A 
ATOM     25  C   UNL     1      -4.949   2.419  -2.315  0.00  0.00    +0.005 A 
BRANCH  23  26
ATOM     26  O   UNL     1      -8.004   0.516  -2.842  0.00  0.00    -0.507 OA
ATOM     27  H   UNL     1      -8.519   0.841  -3.593  0.00  0.00    +0.292 HD
ENDBRANCH  23  26
ENDBRANCH  19  20
ENDBRANCH  12  19
BRANCH   4  28
ATOM     28  C   UNL     1       1.101   1.510   4.072  0.00  0.00    +0.153 C 
BRANCH  28  29
ATOM     29  C   UNL     1       2.590   1.620   3.867  0.00  0.00    -0.029 A 
ATOM     30  C   UNL     1       3.215   2.856   4.025  0.00  0.00    +0.006 A 
ATOM     31  C   UNL     1       4.557   2.990   3.847  0.00  0.00    +0.009 A 
ATOM     32  C   UNL     1       5.328   1.867   3.499  0.00  0.00    -0.018 A 
ATOM     33  C   UNL     1       6.717   1.966   3.308  0.00  0.00    +0.008 A 
ATOM     34  C   UNL     1       7.431   0.858   2.972  0.00  0.00    +0.001 A 
ATOM     35  C   UNL     1       6.806  -0.378   2.814  0.00  0.00    +0.001 A 
ATOM     36  C   UNL     1       5.463  -0.512   2.992  0.00  0.00    +0.008 A 
ATOM     37  C   UNL     1       4.692   0.611   3.339  0.00  0.00    -0.018 A 
ATOM     38  C   UNL     1       3.304   0.510   3.536  0.00  0.00    +0.013 A 
ENDBRANCH  28  29
ENDBRANCH   4  28
TORSDOF 9
