REMARK  Name = ZINC39678284
REMARK  8 active torsions:
REMARK  status: ('A' for Active; 'I' for Inactive)
REMARK    1  A    between atoms: C_1  and  C_2
REMARK    2  A    between atoms: C_2  and  C_4
REMARK    3  A    between atoms: C_2  and  O_33
REMARK    4  A    between atoms: C_8  and  C_17
REMARK    5  A    between atoms: N_19  and  C_20
REMARK    6  A    between atoms: C_20  and  C_21
REMARK    7  A    between atoms: C_26  and  N_27
REMARK    8  A    between atoms: O_33  and  C_34
REMARK                            x       y       z     vdW  Elec       q    Type
REMARK                         _______ _______ _______ _____ _____    ______ ____
ROOT
ATOM      1  C   UNL     1       0.959  -0.502  -0.671  0.00  0.00    +0.256 C 
ATOM      2  O   UNL     1       0.675   0.143   0.316  0.00  0.00    -0.272 OA
ATOM      3  N   UNL     1       0.294  -0.295  -1.825  0.00  0.00    -0.297 N 
ATOM      4  C   UNL     1      -0.865   0.599  -2.059  0.00  0.00    +0.121 C 
ATOM      5  C   UNL     1      -0.600   1.228  -3.445  0.00  0.00    +0.100 C 
ATOM      6  C   UNL     1       0.333   0.233  -4.156  0.00  0.00    -0.004 C 
ATOM      7  C   UNL     1       0.562  -0.905  -3.150  0.00  0.00    +0.115 C 
ATOM      8  C   UNL     1       1.661   0.903  -4.496  0.00  0.00    -0.010 C 
ATOM      9  C   UNL     1       2.549  -0.089  -5.252  0.00  0.00    -0.082 C 
ATOM     10  N   UNL     1       1.868  -0.522  -6.479  0.00  0.00    +0.379 N 
ATOM     11  C   UNL     1       0.638  -1.247  -6.139  0.00  0.00    -0.082 C 
ATOM     12  C   UNL     1      -0.331  -0.304  -5.420  0.00  0.00    -0.010 C 
ATOM     13  H   UNL     1       1.637   0.286  -7.037  0.00  0.00    -0.086 HD
ATOM     14  H   UNL     1       2.479  -1.127  -7.005  0.00  0.00    -0.086 HD
ENDROOT
BRANCH   5  15
ATOM     15  C   UNL     1       0.075   2.567  -3.293  0.00  0.00    +0.218 C 
ATOM     16  O   UNL     1       0.847   2.756  -2.377  0.00  0.00    -0.275 OA
ATOM     17  N   UNL     1      -0.178   3.553  -4.176  0.00  0.00    -0.311 N 
ATOM     18  H   UNL     1      -0.847   3.426  -4.867  0.00  0.00    +0.149 HD
BRANCH  17  19
ATOM     19  C   UNL     1       0.558   4.817  -4.093  0.00  0.00    +0.141 C 
BRANCH  19  20
ATOM     20  C   UNL     1       0.007   5.787  -5.107  0.00  0.00    -0.009 A 
ATOM     21  C   UNL     1       0.673   5.994  -6.299  0.00  0.00    +0.007 A 
ATOM     22  C   UNL     1       0.168   6.883  -7.229  0.00  0.00    +0.000 A 
ATOM     23  C   UNL     1      -1.005   7.568  -6.970  0.00  0.00    +0.002 A 
ATOM     24  C   UNL     1      -1.677   7.365  -5.781  0.00  0.00    +0.023 A 
ATOM     25  C   UNL     1      -1.175   6.468  -4.846  0.00  0.00    +0.034 A 
BRANCH  25  26
ATOM     26  N   UNL     1      -1.854   6.257  -3.644  0.00  0.00    -0.330 N 
ATOM     27  C   UNL     1      -1.626   7.137  -2.490  0.00  0.00    +0.105 C 
ATOM     28  C   UNL     1      -2.975   7.676  -2.006  0.00  0.00    +0.019 C 
ATOM     29  C   UNL     1      -3.917   6.503  -1.725  0.00  0.00    +0.003 C 
ATOM     30  C   UNL     1      -4.148   5.711  -3.014  0.00  0.00    +0.019 C 
ATOM     31  C   UNL     1      -2.816   5.154  -3.512  0.00  0.00    +0.105 C 
ENDBRANCH  25  26
ENDBRANCH  19  20
ENDBRANCH  17  19
ENDBRANCH   5  15
BRANCH   1  33
ATOM     32  C   UNL     1       1.450  -2.930  -0.777  0.00  0.00    +0.062 C 
ATOM     33  C   UNL     1       2.054  -1.535  -0.607  0.00  0.00    +0.256 C 
BRANCH  33  34
ATOM     34  O   UNL     1       2.713  -1.452   0.658  0.00  0.00    -0.480 OA
BRANCH  34  35
ATOM     35  C   UNL     1       3.711  -0.537   0.776  0.00  0.00    +0.122 A 
ATOM     36  C   UNL     1       3.986   0.330  -0.272  0.00  0.00    +0.045 A 
ATOM     37  C   UNL     1       5.001   1.259  -0.150  0.00  0.00    +0.004 A 
ATOM     38  C   UNL     1       5.743   1.325   1.015  0.00  0.00    +0.000 A 
ATOM     39  C   UNL     1       5.471   0.462   2.060  0.00  0.00    +0.004 A 
ATOM     40  C   UNL     1       4.453  -0.465   1.946  0.00  0.00    +0.045 A 
ENDBRANCH  34  35
ENDBRANCH  33  34
ENDBRANCH   1  33
TORSDOF 7
