REMARK  Name = ZINC08918215
REMARK  8 active torsions:
REMARK  status: ('A' for Active; 'I' for Inactive)
REMARK    1  A    between atoms: C_1  and  C_2
REMARK    2  A    between atoms: C_2  and  C_4
REMARK    3  A    between atoms: C_2  and  N_12
REMARK    4  A    between atoms: C_4  and  C_5
REMARK    5  A    between atoms: C_5  and  C_6
REMARK    6  A    between atoms: C_13  and  C_15
REMARK    7  A    between atoms: C_20  and  N_21
REMARK    8  A    between atoms: C_24  and  C_40
REMARK                            x       y       z     vdW  Elec       q    Type
REMARK                         _______ _______ _______ _____ _____    ______ ____
ROOT
ATOM      1  C   UNL     1       8.666  -0.545   0.208  0.00  0.00    +0.059 A 
ATOM      2  C   UNL     1       8.532   0.845   0.184  0.00  0.00    +0.015 A 
ATOM      3  C   UNL     1       9.515   1.640   0.734  0.00  0.00    +0.001 A 
ATOM      4  C   UNL     1      10.641   1.067   1.302  0.00  0.00    +0.002 A 
ATOM      5  C   UNL     1      10.789  -0.305   1.328  0.00  0.00    +0.025 A 
ATOM      6  C   UNL     1       9.807  -1.121   0.784  0.00  0.00    +0.058 A 
ENDROOT
BRANCH   6   7
ATOM      7  N   UNL     1       9.955  -2.509   0.811  0.00  0.00    -0.191 N 
ATOM      8  C   UNL     1      10.548  -3.230  -0.167  0.00  0.00    +0.257 C 
ATOM      9  O   UNL     1      10.986  -2.817  -1.219  0.00  0.00    -0.272 OA
ATOM     10  C   UNL     1      10.555  -4.656   0.331  0.00  0.00    +0.153 C 
ATOM     11  C   UNL     1       9.860  -5.581  -0.640  0.00  0.00    +0.053 A 
ATOM     12  C   UNL     1       8.824  -6.375  -0.285  0.00  0.00    -0.015 A 
ATOM     13  C   UNL     1       8.461  -7.133  -1.470  0.00  0.00    +0.003 A 
ATOM     14  C   UNL     1       7.483  -8.104  -1.705  0.00  0.00    +0.010 A 
ATOM     15  C   UNL     1       7.417  -8.622  -2.976  0.00  0.00    +0.001 A 
ATOM     16  C   UNL     1       8.271  -8.208  -3.985  0.00  0.00    +0.002 A 
ATOM     17  C   UNL     1       9.247  -7.249  -3.779  0.00  0.00    +0.026 A 
ATOM     18  C   UNL     1       9.339  -6.707  -2.498  0.00  0.00    +0.047 A 
ATOM     19  N   UNL     1      10.168  -5.766  -1.960  0.00  0.00    -0.356 N 
ATOM     20  H   UNL     1      10.869  -5.299  -2.440  0.00  0.00    +0.166 HD
ATOM     21  C   UNL     1       8.179  -6.450   1.075  0.00  0.00    +0.056 C 
ATOM     22  C   UNL     1       9.076  -5.781   2.127  0.00  0.00    +0.115 C 
ATOM     23  N   UNL     1       9.666  -4.589   1.517  0.00  0.00    -0.265 N 
ATOM     24  C   UNL     1       9.520  -3.296   1.808  0.00  0.00    +0.317 C 
ATOM     25  O   UNL     1       9.051  -2.881   2.850  0.00  0.00    -0.252 OA
ATOM     26  C   UNL     1      11.958  -5.150   0.687  0.00  0.00    +0.048 C 
ENDBRANCH   6   7
BRANCH   1  28
ATOM     27  N   UNL     1       6.520  -0.844  -0.926  0.00  0.00    -0.309 N 
ATOM     28  C   UNL     1       7.615  -1.402  -0.374  0.00  0.00    +0.246 C 
ATOM     29  O   UNL     1       7.738  -2.612  -0.355  0.00  0.00    -0.270 OA
ATOM     30  H   UNL     1       6.423   0.121  -0.941  0.00  0.00    +0.149 HD
BRANCH  27  32
ATOM     31  C   UNL     1       5.846  -2.046  -2.947  0.00  0.00    +0.028 C 
ATOM     32  C   UNL     1       5.477  -1.695  -1.504  0.00  0.00    +0.070 C 
BRANCH  32  33
ATOM     33  C   UNL     1       4.142  -0.948  -1.487  0.00  0.00    +0.026 C 
BRANCH  33  34
ATOM     34  C   UNL     1       3.711  -0.707  -0.039  0.00  0.00    +0.037 C 
BRANCH  34  35
ATOM     35  C   UNL     1       2.396   0.029  -0.022  0.00  0.00    -0.047 A 
ATOM     36  C   UNL     1       1.208  -0.679  -0.014  0.00  0.00    +0.003 A 
ATOM     37  C   UNL     1       0.002  -0.004   0.002  0.00  0.00    +0.000 A 
ATOM     38  C   UNL     1      -0.017   1.378   0.010  0.00  0.00    +0.000 A 
ATOM     39  C   UNL     1       1.171   2.086   0.002  0.00  0.00    +0.000 A 
ATOM     40  C   UNL     1       2.377   1.411  -0.014  0.00  0.00    +0.003 A 
ENDBRANCH  34  35
ENDBRANCH  33  34
ENDBRANCH  32  33
ENDBRANCH  27  32
ENDBRANCH   1  28
TORSDOF 6
