REMARK  Name = ZINC63270943
REMARK  8 active torsions:
REMARK  status: ('A' for Active; 'I' for Inactive)
REMARK    1  A    between atoms: C_1  and  C_2
REMARK    2  A    between atoms: C_2  and  C_4
REMARK    3  A    between atoms: C_2  and  N_18
REMARK    4  A    between atoms: N_6  and  C_7
REMARK    5  A    between atoms: C_7  and  C_8
REMARK    6  A    between atoms: C_8  and  C_9
REMARK    7  A    between atoms: C_19  and  C_21
REMARK    8  A    between atoms: C_21  and  C_22
REMARK                            x       y       z     vdW  Elec       q    Type
REMARK                         _______ _______ _______ _____ _____    ______ ____
ROOT
ATOM      1  C   UNL     1      -0.019   1.526   0.010  0.00  0.00    +0.038 C 
ATOM      2  C   UNL     1       0.002  -0.004   0.002  0.00  0.00    +0.156 C 
ENDROOT
BRANCH   2   3
ATOM      3  C   UNL     1       0.707  -0.490  -1.238  0.00  0.00    +0.233 C 
ATOM      4  O   UNL     1       1.704  -1.174  -1.140  0.00  0.00    -0.274 OA
ATOM      5  N   UNL     1       0.231  -0.164  -2.456  0.00  0.00    -0.313 N 
ATOM      6  H   UNL     1      -0.566   0.383  -2.534  0.00  0.00    +0.149 HD
BRANCH   5   7
ATOM      7  C   UNL     1       0.917  -0.637  -3.661  0.00  0.00    +0.108 C 
BRANCH   7   8
ATOM      8  C   UNL     1       0.177  -0.130  -4.901  0.00  0.00    +0.052 C 
BRANCH   8   9
ATOM      9  C   UNL     1       0.882  -0.616  -6.141  0.00  0.00    -0.040 C 
ATOM     10  C   UNL     1       0.586  -1.719  -6.865  0.00  0.00    -0.001 A 
ATOM     11  C   UNL     1      -0.442  -2.757  -6.721  0.00  0.00    +0.010 A 
ATOM     12  C   UNL     1      -0.490  -3.762  -7.624  0.00  0.00    +0.001 A 
ATOM     13  C   UNL     1       0.414  -3.837  -8.692  0.00  0.00    +0.002 A 
ATOM     14  C   UNL     1       1.386  -2.921  -8.891  0.00  0.00    +0.026 A 
ATOM     15  C   UNL     1       1.529  -1.821  -8.002  0.00  0.00    +0.043 A 
ATOM     16  N   UNL     1       2.375  -0.820  -7.981  0.00  0.00    -0.380 N 
ATOM     17  C   UNL     1       2.060   0.035  -6.830  0.00  0.00    +0.144 C 
ATOM     18  H   UNL     1       3.088  -0.668  -8.621  0.00  0.00    +0.160 HD
ENDBRANCH   8   9
ENDBRANCH   7   8
ENDBRANCH   5   7
ENDBRANCH   2   3
BRANCH   2  19
ATOM     19  N   UNL     1       0.711  -0.489   1.189  0.00  0.00    -0.304 N 
ATOM     20  C   UNL     1       0.051  -0.633   2.355  0.00  0.00    +0.216 C 
ATOM     21  O   UNL     1      -1.129  -0.361   2.423  0.00  0.00    -0.276 OA
ATOM     22  H   UNL     1       1.654  -0.707   1.135  0.00  0.00    +0.149 HD
BRANCH  20  23
ATOM     23  C   UNL     1       0.780  -1.133   3.576  0.00  0.00    +0.126 C 
BRANCH  23  24
ATOM     24  C   UNL     1      -0.191  -1.204   4.756  0.00  0.00    +0.136 C 
ATOM     25  C   UNL     1       0.511  -1.908   5.893  0.00  0.00    -0.011 A 
ATOM     26  C   UNL     1       1.021  -3.175   5.776  0.00  0.00    +0.006 A 
ATOM     27  C   UNL     1       1.655  -3.760   6.862  0.00  0.00    +0.000 A 
ATOM     28  C   UNL     1       1.774  -3.074   8.058  0.00  0.00    +0.001 A 
ATOM     29  C   UNL     1       1.263  -1.797   8.187  0.00  0.00    +0.013 A 
ATOM     30  C   UNL     1       0.627  -1.203   7.100  0.00  0.00    +0.045 A 
ATOM     31  C   UNL     1       0.060   0.156   7.167  0.00  0.00    +0.283 C 
ATOM     32  O   UNL     1       0.145   0.790   8.200  0.00  0.00    -0.267 OA
ATOM     33  N   UNL     1      -0.549   0.703   6.104  0.00  0.00    -0.105 NA
ATOM     34  N   UNL     1      -0.691   0.155   5.012  0.00  0.00    -0.306 N 
ATOM     35  H   UNL     1      -1.146   0.632   4.301  0.00  0.00    +0.181 HD
ENDBRANCH  23  24
ENDBRANCH  20  23
ENDBRANCH   2  19
TORSDOF 7
