REMARK  Name = ZINC63807366
REMARK  8 active torsions:
REMARK  status: ('A' for Active; 'I' for Inactive)
REMARK    1  A    between atoms: C_1  and  N_2
REMARK    2  A    between atoms: C_6  and  C_8
REMARK    3  A    between atoms: C_8  and  C_10
REMARK    4  A    between atoms: C_13  and  N_16
REMARK    5  A    between atoms: C_17  and  C_19
REMARK    6  A    between atoms: N_21  and  C_22
REMARK    7  A    between atoms: C_22  and  C_23
REMARK    8  A    between atoms: C_23  and  C_24
REMARK                            x       y       z     vdW  Elec       q    Type
REMARK                         _______ _______ _______ _____ _____    ______ ____
ROOT
ATOM      1  N   UNL     1       1.068  -4.770   6.119  0.00  0.00    -0.278 N 
ATOM      2  C   UNL     1       0.223  -5.030   7.136  0.00  0.00    +0.303 C 
ATOM      3  O   UNL     1      -0.866  -4.497   7.171  0.00  0.00    -0.265 OA
ATOM      4  H   UNL     1       1.907  -5.253   6.048  0.00  0.00    +0.155 HD
ENDROOT
BRANCH   1   8
ATOM      5  C   UNL     1       0.083  -1.898   3.283  0.00  0.00    +0.021 A 
ATOM      6  C   UNL     1      -0.317  -1.735   4.615  0.00  0.00    +0.013 A 
ATOM      7  C   UNL     1       0.009  -2.682   5.545  0.00  0.00    +0.024 A 
ATOM      8  C   UNL     1       0.738  -3.808   5.169  0.00  0.00    +0.034 A 
ATOM      9  C   UNL     1       1.138  -3.973   3.845  0.00  0.00    +0.024 A 
ATOM     10  C   UNL     1       0.811  -3.034   2.908  0.00  0.00    +0.013 A 
BRANCH   5  11
ATOM     11  C   UNL     1      -0.265  -0.883   2.281  0.00  0.00    +0.202 C 
ATOM     12  O   UNL     1       0.078  -1.028   1.126  0.00  0.00    -0.288 OA
BRANCH  11  18
ATOM     13  C   UNL     1      -1.826   1.543   0.721  0.00  0.00    +0.107 C 
ATOM     14  N   UNL     1      -0.779   1.454   1.747  0.00  0.00    -0.273 NA
ATOM     15  C   UNL     1      -0.815   2.635   2.647  0.00  0.00    +0.133 C 
ATOM     16  C   UNL     1      -0.470   2.079   4.011  0.00  0.00    +0.095 C 
ATOM     17  N   UNL     1      -0.606   0.810   4.004  0.00  0.00    -0.268 NA
ATOM     18  C   UNL     1      -1.049   0.339   2.686  0.00  0.00    +0.246 C 
ENDBRANCH  11  18
ENDBRANCH   5  11
ENDBRANCH   1   8
BRANCH   2  19
ATOM     19  C   UNL     1       0.628  -5.975   8.219  0.00  0.00    +0.299 C 
ATOM     20  O   UNL     1       1.717  -6.509   8.184  0.00  0.00    -0.265 OA
ATOM     21  N   UNL     1      -0.217  -6.236   9.236  0.00  0.00    -0.307 N 
ATOM     22  H   UNL     1      -1.088  -5.809   9.265  0.00  0.00    +0.149 HD
BRANCH  21  23
ATOM     23  C   UNL     1       0.179  -7.163  10.299  0.00  0.00    +0.109 C 
BRANCH  23  24
ATOM     24  C   UNL     1      -0.952  -7.280  11.322  0.00  0.00    +0.052 C 
BRANCH  24  25
ATOM     25  C   UNL     1      -0.544  -8.234  12.415  0.00  0.00    -0.040 C 
ATOM     26  C   UNL     1       0.007  -7.916  13.608  0.00  0.00    +0.002 A 
ATOM     27  C   UNL     1       0.379  -6.635  14.221  0.00  0.00    +0.048 A 
ATOM     28  C   UNL     1       0.926  -6.633  15.459  0.00  0.00    +0.124 A 
ATOM     29  C   UNL     1       1.147  -7.825  16.169  0.00  0.00    +0.040 A 
ATOM     30  C   UNL     1       0.832  -9.039  15.671  0.00  0.00    +0.029 A 
ATOM     31  C   UNL     1       0.250  -9.157  14.378  0.00  0.00    +0.043 A 
ATOM     32  N   UNL     1      -0.136 -10.202  13.687  0.00  0.00    -0.380 N 
ATOM     33  C   UNL     1      -0.675  -9.741  12.403  0.00  0.00    +0.144 C 
ATOM     34  F   UNL     1       1.270  -5.456  16.026  0.00  0.00    -0.205 F 
ATOM     35  H   UNL     1      -0.080 -11.125  13.979  0.00  0.00    +0.160 HD
ENDBRANCH  24  25
ENDBRANCH  23  24
ENDBRANCH  21  23
ENDBRANCH   2  19
TORSDOF 7
