REMARK  Name = ZINC43737166
REMARK  8 active torsions:
REMARK  status: ('A' for Active; 'I' for Inactive)
REMARK    1  A    between atoms: C_1  and  C_2
REMARK    2  A    between atoms: C_7  and  C_38
REMARK    3  A    between atoms: C_18  and  C_20
REMARK    4  A    between atoms: C_20  and  N_21
REMARK    5  A    between atoms: N_21  and  C_22
REMARK    6  A    between atoms: C_26  and  C_36
REMARK    7  A    between atoms: C_26  and  C_37
REMARK    8  A    between atoms: C_28  and  C_30
REMARK                            x       y       z     vdW  Elec       q    Type
REMARK                         _______ _______ _______ _____ _____    ______ ____
ROOT
ATOM      1  C   UNL     1       3.994   1.049   4.493  0.00  0.00    -0.067 C 
ENDROOT
BRANCH   1  16
ATOM      2  C   UNL     1      -0.019   1.526   0.010  0.00  0.00    +0.012 C 
ATOM      3  C   UNL     1       0.002  -0.004   0.002  0.00  0.00    +0.012 C 
ATOM      4  C   UNL     1       0.751  -0.514  -1.240  0.00  0.00    +0.007 C 
ATOM      5  C   UNL     1       0.883  -2.035  -1.196  0.00  0.00    +0.001 C 
ATOM      6  C   UNL     1       1.676  -2.483   0.038  0.00  0.00    +0.011 C 
ATOM      7  C   UNL     1       0.928  -2.018   1.281  0.00  0.00    -0.007 C 
ATOM      8  C   UNL     1       0.766  -0.522   1.211  0.00  0.00    -0.064 C 
ATOM      9  C   UNL     1       1.241   0.286   2.092  0.00  0.00    -0.019 C 
ATOM     10  C   UNL     1       2.109  -0.107   3.252  0.00  0.00    +0.064 C 
ATOM     11  C   UNL     1       2.603  -1.557   3.091  0.00  0.00    +0.185 C 
ATOM     12  C   UNL     1       1.535  -2.477   2.582  0.00  0.00    +0.056 C 
ATOM     13  O   UNL     1       3.698  -1.467   2.177  0.00  0.00    -0.461 OA
ATOM     14  C   UNL     1       4.366  -0.322   2.407  0.00  0.00    +0.309 C 
ATOM     15  O   UNL     1       5.517  -0.113   2.104  0.00  0.00    -0.251 OA
ATOM     16  C   UNL     1       3.443   0.681   3.114  0.00  0.00    +0.091 C 
ATOM     17  C   UNL     1      -0.480  -2.611   1.206  0.00  0.00    +0.016 C 
ENDBRANCH   1  16
BRANCH   1  18
ATOM     18  N   UNL     1       5.186   1.892   4.335  0.00  0.00    +0.385 N 
ATOM     19  H   UNL     1       5.889   1.387   3.816  0.00  0.00    -0.085 HD
ATOM     20  H   UNL     1       4.940   2.733   3.836  0.00  0.00    -0.085 HD
BRANCH  18  21
ATOM     21  C   UNL     1       5.715   2.245   5.659  0.00  0.00    -0.012 C 
ATOM     22  C   UNL     1       6.212   0.981   6.368  0.00  0.00    +0.150 C 
ATOM     23  O   UNL     1       7.328   0.451   5.645  0.00  0.00    -0.351 OA
ATOM     24  C   UNL     1       8.414   1.369   5.508  0.00  0.00    +0.165 C 
ATOM     25  O   UNL     1       7.962   2.546   4.832  0.00  0.00    -0.343 OA
ATOM     26  C   UNL     1       6.888   3.220   5.500  0.00  0.00    +0.140 C 
ATOM     27  C   UNL     1       9.536   0.716   4.697  0.00  0.00    +0.074 C 
ATOM     28  C   UNL     1       8.941   1.748   6.894  0.00  0.00    +0.074 C 
BRANCH  26  29
ATOM     29  C   UNL     1       6.448   4.409   4.685  0.00  0.00    -0.020 A 
ATOM     30  C   UNL     1       6.379   4.315   3.308  0.00  0.00    +0.006 A 
ATOM     31  C   UNL     1       5.976   5.405   2.560  0.00  0.00    +0.000 A 
ATOM     32  C   UNL     1       5.642   6.590   3.189  0.00  0.00    +0.000 A 
ATOM     33  C   UNL     1       5.710   6.683   4.567  0.00  0.00    +0.000 A 
ATOM     34  C   UNL     1       6.109   5.591   5.315  0.00  0.00    +0.006 A 
ENDBRANCH  26  29
ENDBRANCH  18  21
ENDBRANCH   1  18
TORSDOF 4
