REMARK  Name = ZINC19326925
REMARK  1 active torsions:
REMARK  status: ('A' for Active; 'I' for Inactive)
REMARK    1  A    between atoms: C_10  and  N_11
REMARK                            x       y       z     vdW  Elec       q    Type
REMARK                         _______ _______ _______ _____ _____    ______ ____
ROOT
ATOM      1  N   UNL     1       4.871   0.098  -0.043  0.00  0.00    -0.287 N 
ATOM      2  C   UNL     1       6.067  -0.573  -0.162  0.00  0.00    +0.188 C 
ATOM      3  N   UNL     1       7.170   0.106  -0.162  0.00  0.00    -0.230 NA
ATOM      4  C   UNL     1       8.482  -0.509  -0.324  0.00  0.00    +0.130 C 
ATOM      5  C   UNL     1       9.478   0.095   0.683  0.00  0.00    +0.050 C 
ATOM      6  C   UNL     1      10.813   0.165  -0.100  0.00  0.00    +0.004 C 
ATOM      7  C   UNL     1      10.354   0.558  -1.527  0.00  0.00    +0.004 C 
ATOM      8  C   UNL     1       9.035  -0.219  -1.728  0.00  0.00    +0.050 C 
ATOM      9  N   UNL     1       8.395  -1.960  -0.117  0.00  0.00    -0.293 N 
ATOM     10  C   UNL     1       7.251  -2.582  -0.609  0.00  0.00    +0.181 C 
ATOM     11  N   UNL     1       6.056  -1.950  -0.272  0.00  0.00    -0.260 N 
ATOM     12  N   UNL     1       7.295  -3.670  -1.323  0.00  0.00    -0.272 NA
ATOM     13  H   UNL     1       4.034  -0.385  -0.130  0.00  0.00    +0.155 HD
ATOM     14  H   UNL     1       5.244  -2.458  -0.123  0.00  0.00    +0.157 HD
ATOM     15  H   UNL     1       6.473  -4.071  -1.647  0.00  0.00    +0.189 HD
ATOM     16  H   UNL     1       9.095  -2.457   0.336  0.00  0.00    +0.151 HD
ENDROOT
BRANCH   1  26
ATOM     17  C   UNL     1       1.861   3.923  -1.379  0.00  0.00    +0.001 A 
ATOM     18  C   UNL     1       1.852   2.553  -1.636  0.00  0.00    +0.001 A 
ATOM     19  C   UNL     1       2.819   1.739  -1.130  0.00  0.00    +0.010 A 
ATOM     20  C   UNL     1       3.842   2.284  -0.339  0.00  0.00    +0.003 A 
ATOM     21  C   UNL     1       3.853   3.676  -0.077  0.00  0.00    -0.016 A 
ATOM     22  C   UNL     1       2.838   4.486  -0.616  0.00  0.00    +0.008 A 
ATOM     23  C   UNL     1       4.877   4.223   0.714  0.00  0.00    +0.008 A 
ATOM     24  C   UNL     1       5.848   3.416   1.223  0.00  0.00    +0.002 A 
ATOM     25  C   UNL     1       5.848   2.047   0.973  0.00  0.00    +0.024 A 
ATOM     26  C   UNL     1       4.862   1.471   0.201  0.00  0.00    +0.041 A 
ENDBRANCH   1  26
TORSDOF 1
