REMARK  Name = ZINC09610584
REMARK  8 active torsions:
REMARK  status: ('A' for Active; 'I' for Inactive)
REMARK    1  A    between atoms: C_1  and  C_2
REMARK    2  A    between atoms: C_2  and  C_4
REMARK    3  A    between atoms: C_2  and  N_10
REMARK    4  A    between atoms: C_11  and  C_13
REMARK    5  A    between atoms: C_13  and  C_15
REMARK    6  A    between atoms: C_13  and  N_21
REMARK    7  A    between atoms: N_21  and  S_22
REMARK    8  A    between atoms: S_22  and  C_25
REMARK                            x       y       z     vdW  Elec       q    Type
REMARK                         _______ _______ _______ _____ _____    ______ ____
ROOT
ATOM      1  C   UNL     1       2.314   4.046   2.442  0.00  0.00    +0.192 C 
ENDROOT
BRANCH   1   2
ATOM      2  C   UNL     1       3.232   5.241   2.449  0.00  0.00    -0.020 A 
ATOM      3  C   UNL     1       2.704   6.518   2.495  0.00  0.00    +0.006 A 
ATOM      4  C   UNL     1       3.546   7.614   2.506  0.00  0.00    +0.000 A 
ATOM      5  C   UNL     1       4.916   7.433   2.461  0.00  0.00    +0.000 A 
ATOM      6  C   UNL     1       5.444   6.157   2.410  0.00  0.00    +0.000 A 
ATOM      7  C   UNL     1       4.601   5.060   2.403  0.00  0.00    +0.006 A 
ENDBRANCH   1   2
BRANCH   1   9
ATOM      8  N   UNL     1       2.756   3.469   4.806  0.00  0.00    -0.307 N 
ATOM      9  C   UNL     1       1.853   3.758   3.847  0.00  0.00    +0.237 C 
ATOM     10  O   UNL     1       0.671   3.785   4.116  0.00  0.00    -0.274 OA
ATOM     11  H   UNL     1       3.701   3.447   4.591  0.00  0.00    +0.149 HD
BRANCH   8  13
ATOM     12  C   UNL     1       1.928   1.712   6.292  0.00  0.00    +0.033 C 
ATOM     13  C   UNL     1       2.308   3.189   6.173  0.00  0.00    +0.100 C 
BRANCH  13  14
ATOM     14  C   UNL     1       3.422   3.500   7.139  0.00  0.00    -0.027 A 
ATOM     15  C   UNL     1       4.726   3.169   6.822  0.00  0.00    +0.005 A 
ATOM     16  C   UNL     1       5.747   3.459   7.707  0.00  0.00    +0.000 A 
ATOM     17  C   UNL     1       5.464   4.072   8.913  0.00  0.00    +0.000 A 
ATOM     18  C   UNL     1       4.159   4.398   9.233  0.00  0.00    +0.000 A 
ATOM     19  C   UNL     1       3.138   4.112   8.346  0.00  0.00    +0.005 A 
ENDBRANCH  13  14
ENDBRANCH   8  13
ENDBRANCH   1   9
BRANCH   1  20
ATOM     20  N   UNL     1       1.151   4.328   1.596  0.00  0.00    -0.174 NA
ATOM     21  H   UNL     1       0.386   4.797   1.963  0.00  0.00    +0.149 HD
BRANCH  20  22
ATOM     22  S   UNL     1       1.144   3.847   0.011  0.00  0.00    +0.059 S 
ATOM     23  O   UNL     1       2.378   4.275  -0.549  0.00  0.00    -0.153 OA
ATOM     24  O   UNL     1      -0.112   4.236  -0.526  0.00  0.00    -0.153 OA
BRANCH  22  25
ATOM     25  C   UNL     1       1.171   2.085   0.002  0.00  0.00    +0.106 A 
ATOM     26  C   UNL     1       2.380   1.413  -0.014  0.00  0.00    +0.030 A 
ATOM     27  C   UNL     1       2.405   0.033  -0.021  0.00  0.00    +0.025 A 
ATOM     28  C   UNL     1       1.214  -0.681  -0.014  0.00  0.00    +0.037 A 
ATOM     29  C   UNL     1       0.002  -0.004   0.002  0.00  0.00    -0.024 A 
ATOM     30  C   UNL     1      -0.017   1.377   0.010  0.00  0.00    +0.034 A 
ATOM     31  C   UNL     1      -1.290  -0.779   0.011  0.00  0.00    +0.046 C 
ATOM     32  C   UNL     1      -1.121  -2.063  -0.802  0.00  0.00    +0.101 C 
ATOM     33  C   UNL     1       0.137  -2.774  -0.383  0.00  0.00    +0.218 C 
ATOM     34  O   UNL     1       0.166  -3.986  -0.370  0.00  0.00    -0.275 OA
ATOM     35  N   UNL     1       1.232  -2.079  -0.022  0.00  0.00    -0.285 N 
ATOM     36  H   UNL     1       2.039  -2.552   0.235  0.00  0.00    +0.155 HD
ENDBRANCH  22  25
ENDBRANCH  20  22
ENDBRANCH   1  20
TORSDOF 7
