REMARK  Name = ZINC09610574
REMARK  5 active torsions:
REMARK  status: ('A' for Active; 'I' for Inactive)
REMARK    1  A    between atoms: C_4  and  C_7
REMARK    2  A    between atoms: C_7  and  C_9
REMARK    3  A    between atoms: C_7  and  N_21
REMARK    4  A    between atoms: N_21  and  S_22
REMARK    5  A    between atoms: S_22  and  C_25
REMARK                            x       y       z     vdW  Elec       q    Type
REMARK                         _______ _______ _______ _____ _____    ______ ____
ROOT
ATOM      1  C   UNL     1      -1.299   1.837   0.036  0.00  0.00    +0.192 C 
ENDROOT
BRANCH   1   2
ATOM      2  C   UNL     1       0.029   1.126  -0.015  0.00  0.00    +0.243 C 
ATOM      3  O   UNL     1       0.141   0.015   0.459  0.00  0.00    -0.273 OA
ATOM      4  N   UNL     1       1.091   1.722  -0.592  0.00  0.00    -0.270 N 
ATOM      5  C   UNL     1       0.938   3.006  -1.291  0.00  0.00    +0.114 C 
ATOM      6  C   UNL     1       1.708   2.921  -2.611  0.00  0.00    +0.024 C 
ATOM      7  C   UNL     1       3.193   2.723  -2.308  0.00  0.00    +0.038 C 
ATOM      8  C   UNL     1       3.388   1.577  -1.352  0.00  0.00    -0.026 A 
ATOM      9  C   UNL     1       2.358   1.125  -0.542  0.00  0.00    +0.039 A 
ATOM     10  C   UNL     1       2.574   0.068   0.334  0.00  0.00    +0.024 A 
ATOM     11  C   UNL     1       3.814  -0.535   0.397  0.00  0.00    +0.002 A 
ATOM     12  C   UNL     1       4.841  -0.087  -0.413  0.00  0.00    +0.000 A 
ATOM     13  C   UNL     1       4.629   0.965  -1.284  0.00  0.00    +0.005 A 
ENDBRANCH   1   2
BRANCH   1  17
ATOM     14  C   UNL     1      -1.307   4.610   3.285  0.00  0.00    +0.000 A 
ATOM     15  C   UNL     1      -1.202   5.068   1.986  0.00  0.00    +0.000 A 
ATOM     16  C   UNL     1      -1.200   4.171   0.934  0.00  0.00    +0.006 A 
ATOM     17  C   UNL     1      -1.302   2.815   1.182  0.00  0.00    -0.020 A 
ATOM     18  C   UNL     1      -1.411   2.357   2.482  0.00  0.00    +0.006 A 
ATOM     19  C   UNL     1      -1.409   3.253   3.534  0.00  0.00    +0.000 A 
ENDBRANCH   1  17
BRANCH   1  20
ATOM     20  N   UNL     1      -2.371   0.857   0.228  0.00  0.00    -0.174 NA
ATOM     21  H   UNL     1      -2.217   0.072   0.776  0.00  0.00    +0.149 HD
BRANCH  20  22
ATOM     22  S   UNL     1      -3.844   1.089  -0.491  0.00  0.00    +0.059 S 
ATOM     23  O   UNL     1      -4.648  -0.030  -0.142  0.00  0.00    -0.153 OA
ATOM     24  O   UNL     1      -4.231   2.425  -0.201  0.00  0.00    -0.153 OA
BRANCH  22  25
ATOM     25  C   UNL     1      -3.593   1.004  -2.233  0.00  0.00    +0.106 A 
ATOM     26  C   UNL     1      -3.300   2.154  -2.945  0.00  0.00    +0.030 A 
ATOM     27  C   UNL     1      -3.099   2.091  -4.310  0.00  0.00    +0.025 A 
ATOM     28  C   UNL     1      -3.200   0.872  -4.968  0.00  0.00    +0.037 A 
ATOM     29  C   UNL     1      -3.499  -0.279  -4.252  0.00  0.00    -0.024 A 
ATOM     30  C   UNL     1      -3.695  -0.210  -2.886  0.00  0.00    +0.034 A 
ATOM     31  C   UNL     1      -3.607  -1.600  -4.967  0.00  0.00    +0.046 C 
ATOM     32  C   UNL     1      -4.182  -1.378  -6.366  0.00  0.00    +0.101 C 
ATOM     33  C   UNL     1      -3.447  -0.258  -7.051  0.00  0.00    +0.218 C 
ATOM     34  O   UNL     1      -3.253  -0.310  -8.247  0.00  0.00    -0.275 OA
ATOM     35  N   UNL     1      -3.002   0.802  -6.351  0.00  0.00    -0.285 N 
ATOM     36  H   UNL     1      -2.540   1.522  -6.808  0.00  0.00    +0.155 HD
ENDBRANCH  22  25
ENDBRANCH  20  22
ENDBRANCH   1  20
TORSDOF 5
