REMARK  Name = ZINC10512574
REMARK  13 active torsions:
REMARK  status: ('A' for Active; 'I' for Inactive)
REMARK    1  A    between atoms: C_1  and  C_2
REMARK    2  A    between atoms: C_2  and  C_3
REMARK    3  A    between atoms: C_2  and  S_4
REMARK    4  A    between atoms: S_4  and  C_7
REMARK    5  A    between atoms: C_10  and  C_13
REMARK    6  A    between atoms: N_15  and  C_16
REMARK    7  A    between atoms: C_16  and  C_17
REMARK    8  A    between atoms: C_17  and  C_18
REMARK    9  A    between atoms: C_18  and  N_61
REMARK   10  A    between atoms: C_19  and  N_61
REMARK   11  A    between atoms: C_20  and  N_61
REMARK   12  A    between atoms: C_24  and  O_31
REMARK   13  A    between atoms: O_31  and  C_32
REMARK                            x       y       z     vdW  Elec       q    Type
REMARK                         _______ _______ _______ _____ _____    ______ ____
ROOT
ATOM      1  C   UNL     1      -2.628   2.855   5.224  0.00  0.00    +0.252 C 
ATOM      2  O   UNL     1      -3.491   2.132   5.683  0.00  0.00    -0.270 OA
ATOM      3  N   UNL     1      -2.340   4.026   5.826  0.00  0.00    -0.246 N 
ATOM      4  C   UNL     1      -2.930   4.346   7.037  0.00  0.00    +0.169 A 
ATOM      5  N   UNL     1      -3.788   3.650   7.745  0.00  0.00    -0.221 NA
ATOM      6  C   UNL     1      -4.282   4.088   8.924  0.00  0.00    +0.123 A 
ATOM      7  C   UNL     1      -5.204   3.436   9.783  0.00  0.00    +0.147 A 
ATOM      8  C   UNL     1      -5.611   4.030  10.953  0.00  0.00    +0.049 A 
ATOM      9  C   UNL     1      -5.139   5.278  11.334  0.00  0.00    +0.025 A 
ATOM     10  C   UNL     1      -4.239   5.941  10.519  0.00  0.00    +0.057 A 
ATOM     11  C   UNL     1      -3.825   5.355   9.346  0.00  0.00    +0.063 A 
ATOM     12  S   UNL     1      -2.722   5.817   8.032  0.00  0.00    -0.050 S 
ATOM     13 CL   UNL     1      -3.635   7.503  10.974  0.00  0.00    -0.082 Cl
ENDROOT
BRANCH   1  17
ATOM     14  C   UNL     1      -0.519   1.688   1.727  0.00  0.00    +0.088 A 
ATOM     15  C   UNL     1      -0.705   3.031   2.003  0.00  0.00    +0.028 A 
ATOM     16  C   UNL     1      -1.394   3.417   3.135  0.00  0.00    +0.015 A 
ATOM     17  C   UNL     1      -1.894   2.449   4.007  0.00  0.00    +0.037 A 
ATOM     18  C   UNL     1      -1.698   1.096   3.725  0.00  0.00    +0.015 A 
ATOM     19  C   UNL     1      -1.012   0.724   2.588  0.00  0.00    +0.028 A 
BRANCH  14  20
ATOM     20  S   UNL     1       0.355   1.204   0.276  0.00  0.00    -0.001 S 
ATOM     21  O   UNL     1       0.897  -0.071   0.588  0.00  0.00    -0.169 OA
ATOM     22  O   UNL     1       1.209   2.303  -0.016  0.00  0.00    -0.169 OA
BRANCH  20  24
ATOM     23  C   UNL     1      -1.625   2.390  -1.192  0.00  0.00    +0.032 C 
ATOM     24  C   UNL     1      -0.919   1.046  -1.005  0.00  0.00    +0.130 C 
ATOM     25  C   UNL     1      -0.267   0.625  -2.324  0.00  0.00    +0.032 C 
ENDBRANCH  20  24
ENDBRANCH  14  20
ENDBRANCH   1  17
BRANCH   7  26
ATOM     26  O   UNL     1      -5.689   2.212   9.444  0.00  0.00    -0.493 OA
ATOM     27  C   UNL     1      -6.614   1.608  10.351  0.00  0.00    +0.277 C 
ENDBRANCH   7  26
BRANCH   3  28
ATOM     28  C   UNL     1      -1.403   4.961   5.198  0.00  0.00    +0.114 C 
BRANCH  28  29
ATOM     29  C   UNL     1      -2.185   6.041   4.447  0.00  0.00    +0.001 C 
BRANCH  29  30
ATOM     30  C   UNL     1      -1.206   7.017   3.792  0.00  0.00    -0.078 C 
BRANCH  30  33
ATOM     31  C   UNL     1      -1.069   9.137   2.630  0.00  0.00    -0.097 C 
ATOM     32  C   UNL     1      -2.692   7.479   1.936  0.00  0.00    -0.097 C 
ATOM     33  N   UNL     1      -1.977   8.065   3.090  0.00  0.00    +0.376 N 
ATOM     34  H   UNL     1      -2.664   8.465   3.739  0.00  0.00    -0.083 HD
ENDBRANCH  30  33
ENDBRANCH  29  30
ENDBRANCH  28  29
ENDBRANCH   3  28
TORSDOF 8
