REMARK  Name = ZINC13031119
REMARK  11 active torsions:
REMARK  status: ('A' for Active; 'I' for Inactive)
REMARK    1  A    between atoms: C_1  and  C_2
REMARK    2  A    between atoms: C_2  and  C_3
REMARK    3  A    between atoms: C_2  and  C_4
REMARK    4  A    between atoms: C_4  and  C_5
REMARK    5  A    between atoms: C_5  and  N_6
REMARK    6  A    between atoms: C_7  and  C_9
REMARK    7  A    between atoms: C_9  and  C_11
REMARK    8  A    between atoms: C_9  and  N_17
REMARK    9  A    between atoms: N_17  and  C_18
REMARK   10  A    between atoms: C_28  and  C_30
REMARK   11  A    between atoms: C_30  and  N_31
REMARK                            x       y       z     vdW  Elec       q    Type
REMARK                         _______ _______ _______ _____ _____    ______ ____
ROOT
ATOM      1  N   UNL     1       3.797   1.809  -0.026  0.00  0.00    -0.254 N 
ATOM      2  C   UNL     1       4.445   2.095   1.120  0.00  0.00    +0.242 C 
ATOM      3  O   UNL     1       5.408   2.833   1.105  0.00  0.00    -0.273 OA
ENDROOT
BRANCH   1   4
ATOM      4  C   UNL     1       2.687   0.958  -0.009  0.00  0.00    +0.041 A 
ATOM      5  C   UNL     1       1.432   1.468   0.282  0.00  0.00    +0.024 A 
ATOM      6  C   UNL     1       0.338   0.626   0.299  0.00  0.00    +0.002 A 
ATOM      7  C   UNL     1       0.501  -0.718   0.029  0.00  0.00    +0.004 A 
ATOM      8  C   UNL     1       1.757  -1.235  -0.263  0.00  0.00    -0.042 A 
ATOM      9  C   UNL     1       2.850  -0.400  -0.285  0.00  0.00    -0.023 A 
ATOM     10  C   UNL     1       4.239  -0.889  -0.602  0.00  0.00    +0.037 C 
ATOM     11  C   UNL     1       4.322  -2.407  -0.451  0.00  0.00    +0.005 C 
ATOM     12  C   UNL     1       3.174  -3.035  -1.250  0.00  0.00    +0.005 C 
ATOM     13  C   UNL     1       1.860  -2.712  -0.541  0.00  0.00    +0.035 C 
ENDBRANCH   1   4
BRANCH   1  14
ATOM     14  C   UNL     1       4.256   2.390  -1.291  0.00  0.00    +0.197 C 
BRANCH  14  15
ATOM     15  C   UNL     1       3.451   1.816  -2.428  0.00  0.00    -0.015 A 
ATOM     16  C   UNL     1       2.075   1.975  -2.476  0.00  0.00    +0.025 A 
ATOM     17  C   UNL     1       1.370   1.438  -3.537  0.00  0.00    +0.111 A 
ATOM     18  N   UNL     1       1.992   0.772  -4.490  0.00  0.00    -0.263 NA
ATOM     19  C   UNL     1       3.299   0.597  -4.476  0.00  0.00    +0.111 A 
ATOM     20  C   UNL     1       4.069   1.110  -3.449  0.00  0.00    +0.025 A 
ENDBRANCH  14  15
BRANCH  14  22
ATOM     21  N   UNL     1       4.429   4.636  -2.314  0.00  0.00    -0.313 N 
ATOM     22  C   UNL     1       4.073   3.886  -1.252  0.00  0.00    +0.238 C 
ATOM     23  O   UNL     1       3.607   4.414  -0.265  0.00  0.00    -0.273 OA
ATOM     24  H   UNL     1       4.852   4.156  -3.209  0.00  0.00    +0.149 HD
BRANCH  21  25
ATOM     25  C   UNL     1       4.252   6.089  -2.276  0.00  0.00    +0.104 C 
BRANCH  25  26
ATOM     26  C   UNL     1       4.730   6.696  -3.596  0.00  0.00    +0.022 C 
BRANCH  26  28
ATOM     27  C   UNL     1       5.457   8.811  -2.483  0.00  0.00    +0.007 C 
ATOM     28  C   UNL     1       4.545   8.214  -3.557  0.00  0.00    -0.016 C 
ATOM     29  C   UNL     1       4.906   8.808  -4.920  0.00  0.00    +0.007 C 
ENDBRANCH  26  28
ENDBRANCH  25  26
ENDBRANCH  21  25
ENDBRANCH  14  22
ENDBRANCH   1  14
BRANCH   2  30
ATOM     30  C   UNL     1       3.974   1.498   2.421  0.00  0.00    +0.242 C 
BRANCH  30  31
ATOM     31  N   UNL     1       4.837   1.959   3.511  0.00  0.00    -0.235 N 
ATOM     32  C   UNL     1       4.660   3.083   4.282  0.00  0.00    +0.090 A 
ATOM     33  C   UNL     1       3.704   4.093   4.312  0.00  0.00    +0.029 A 
ATOM     34  C   UNL     1       3.812   5.103   5.226  0.00  0.00    +0.002 A 
ATOM     35  C   UNL     1       4.870   5.133   6.126  0.00  0.00    +0.002 A 
ATOM     36  C   UNL     1       5.821   4.155   6.116  0.00  0.00    +0.032 A 
ATOM     37  C   UNL     1       5.733   3.107   5.189  0.00  0.00    +0.113 A 
ATOM     38  N   UNL     1       6.501   2.026   4.944  0.00  0.00    -0.129 NA
ATOM     39  N   UNL     1       6.004   1.336   3.979  0.00  0.00    -0.064 NA
ENDBRANCH  30  31
ENDBRANCH   2  30
TORSDOF 9
