REMARK  Name = ZINC36610145
REMARK  8 active torsions:
REMARK  status: ('A' for Active; 'I' for Inactive)
REMARK    1  A    between atoms: C_4  and  N_7
REMARK    2  A    between atoms: N_7  and  C_8
REMARK    3  A    between atoms: C_8  and  C_10
REMARK    4  A    between atoms: C_8  and  C_15
REMARK    5  A    between atoms: N_17  and  C_18
REMARK    6  A    between atoms: C_24  and  C_26
REMARK    7  A    between atoms: C_27  and  O_33
REMARK    8  A    between atoms: C_31  and  O_32
REMARK                            x       y       z     vdW  Elec       q    Type
REMARK                         _______ _______ _______ _____ _____    ______ ____
ROOT
ATOM      1  N   UNL     1       3.625  -0.650  -0.003  0.00  0.00    -0.248 N 
ATOM      2  C   UNL     1       4.775   0.038  -0.146  0.00  0.00    +0.259 C 
ATOM      3  O   UNL     1       5.827  -0.558  -0.281  0.00  0.00    -0.269 OA
ENDROOT
BRANCH   1   7
ATOM      4  C   UNL     1       0.016   1.388   0.409  0.00  0.00    +0.000 A 
ATOM      5  C   UNL     1       0.022   0.009   0.313  0.00  0.00    +0.002 A 
ATOM      6  C   UNL     1       1.217  -0.670   0.177  0.00  0.00    +0.023 A 
ATOM      7  C   UNL     1       2.413   0.034   0.135  0.00  0.00    +0.038 A 
ATOM      8  C   UNL     1       2.403   1.420   0.231  0.00  0.00    +0.023 A 
ATOM      9  C   UNL     1       1.205   2.093   0.368  0.00  0.00    +0.002 A 
ENDBRANCH   1   7
BRANCH   2  10
ATOM     10  C   UNL     1       4.758   1.510  -0.138  0.00  0.00    +0.120 A 
ATOM     11  C   UNL     1       4.978   2.212   1.056  0.00  0.00    +0.133 A 
ATOM     12  C   UNL     1       4.960   3.598   1.052  0.00  0.00    +0.046 A 
ATOM     13  C   UNL     1       4.726   4.287  -0.123  0.00  0.00    +0.007 A 
ATOM     14  C   UNL     1       4.509   3.605  -1.306  0.00  0.00    +0.046 A 
ATOM     15  C   UNL     1       4.528   2.220  -1.326  0.00  0.00    +0.133 A 
BRANCH  15  16
ATOM     16  O   UNL     1       4.319   1.552  -2.488  0.00  0.00    -0.506 OA
ATOM     17  H   UNL     1       3.390   1.348  -2.663  0.00  0.00    +0.292 HD
ENDBRANCH  15  16
BRANCH  11  18
ATOM     18  O   UNL     1       5.206   1.538   2.211  0.00  0.00    -0.506 OA
ATOM     19  H   UNL     1       6.140   1.353   2.380  0.00  0.00    +0.292 HD
ENDBRANCH  11  18
ENDBRANCH   2  10
BRANCH   1  20
ATOM     20  C   UNL     1       3.644  -2.115   0.007  0.00  0.00    +0.233 C 
BRANCH  20  21
ATOM     21  C   UNL     1       2.800  -2.637  -1.127  0.00  0.00    +0.135 A 
ATOM     22  C   UNL     1       3.096  -3.692  -1.907  0.00  0.00    +0.047 A 
ATOM     23  C   UNL     1       2.037  -3.825  -2.835  0.00  0.00    +0.041 A 
ATOM     24  C   UNL     1       1.158  -2.843  -2.566  0.00  0.00    +0.195 A 
ATOM     25  O   UNL     1       1.622  -2.130  -1.527  0.00  0.00    -0.465 OA
ENDBRANCH  20  21
BRANCH  20  26
ATOM     26  C   UNL     1       3.090  -2.615   1.316  0.00  0.00    +0.242 C 
ATOM     27  O   UNL     1       2.716  -1.826   2.158  0.00  0.00    -0.273 OA
ATOM     28  N   UNL     1       3.010  -3.940   1.552  0.00  0.00    -0.311 N 
ATOM     29  H   UNL     1       3.309  -4.571   0.879  0.00  0.00    +0.149 HD
BRANCH  28  30
ATOM     30  C   UNL     1       2.472  -4.426   2.825  0.00  0.00    +0.073 C 
ATOM     31  C   UNL     1       3.587  -4.456   3.872  0.00  0.00    +0.022 C 
ATOM     32  C   UNL     1       3.025  -4.964   5.201  0.00  0.00    +0.002 C 
ATOM     33  C   UNL     1       2.465  -6.375   5.012  0.00  0.00    +0.000 C 
ATOM     34  C   UNL     1       1.350  -6.346   3.965  0.00  0.00    +0.002 C 
ATOM     35  C   UNL     1       1.913  -5.838   2.636  0.00  0.00    +0.022 C 
ENDBRANCH  28  30
ENDBRANCH  20  26
ENDBRANCH   1  20
TORSDOF 8
