REMARK  Name = ZINC39675370
REMARK  12 active torsions:
REMARK  status: ('A' for Active; 'I' for Inactive)
REMARK    1  A    between atoms: C_1  and  C_2
REMARK    2  A    between atoms: C_2  and  S_3
REMARK    3  A    between atoms: S_3  and  C_4
REMARK    4  A    between atoms: C_5  and  C_10
REMARK    5  A    between atoms: C_14  and  C_23
REMARK    6  A    between atoms: N_25  and  C_26
REMARK    7  A    between atoms: C_26  and  C_28
REMARK    8  A    between atoms: C_26  and  C_29
REMARK    9  A    between atoms: C_29  and  C_30
REMARK   10  A    between atoms: C_30  and  C_31
REMARK   11  A    between atoms: C_34  and  O_37
REMARK   12  A    between atoms: O_37  and  C_38
REMARK                            x       y       z     vdW  Elec       q    Type
REMARK                         _______ _______ _______ _____ _____    ______ ____
ROOT
ATOM      1  C   UNL     1      -3.824  -2.771   0.098  0.00  0.00    +0.249 C 
ATOM      2  O   UNL     1      -3.919  -1.559   0.123  0.00  0.00    -0.270 OA
ATOM      3  N   UNL     1      -4.927  -3.530  -0.060  0.00  0.00    -0.296 N 
ATOM      4  C   UNL     1      -5.026  -5.008  -0.010  0.00  0.00    +0.121 C 
ATOM      5  C   UNL     1      -6.352  -5.285   0.734  0.00  0.00    +0.100 C 
ATOM      6  C   UNL     1      -7.193  -4.014   0.524  0.00  0.00    -0.004 C 
ATOM      7  C   UNL     1      -6.314  -3.075  -0.316  0.00  0.00    +0.115 C 
ATOM      8  C   UNL     1      -7.514  -3.366   1.867  0.00  0.00    -0.010 C 
ATOM      9  C   UNL     1      -8.398  -2.137   1.636  0.00  0.00    -0.082 C 
ATOM     10  N   UNL     1      -9.635  -2.542   0.957  0.00  0.00    +0.379 N 
ATOM     11  C   UNL     1      -9.323  -3.080  -0.373  0.00  0.00    -0.082 C 
ATOM     12  C   UNL     1      -8.478  -4.349  -0.227  0.00  0.00    -0.010 C 
ATOM     13  H   UNL     1     -10.101  -3.250   1.504  0.00  0.00    -0.086 HD
ATOM     14  H   UNL     1     -10.242  -1.742   0.861  0.00  0.00    -0.086 HD
ENDROOT
BRANCH   1  16
ATOM     15  C   UNL     1      -1.526  -2.854   1.085  0.00  0.00    +0.109 A 
ATOM     16  C   UNL     1      -2.504  -3.410   0.240  0.00  0.00    +0.069 A 
ATOM     17  C   UNL     1      -2.199  -4.581  -0.463  0.00  0.00    +0.017 A 
ATOM     18  C   UNL     1      -0.945  -5.142  -0.295  0.00  0.00    +0.020 A 
ATOM     19  C   UNL     1      -0.036  -4.537   0.554  0.00  0.00    +0.112 A 
ATOM     20  N   UNL     1      -0.339  -3.430   1.204  0.00  0.00    -0.248 NA
BRANCH  15  21
ATOM     21  S   UNL     1      -1.879  -1.380   1.982  0.00  0.00    -0.105 S 
BRANCH  21  23
ATOM     22  C   UNL     1      -0.523   0.221   3.738  0.00  0.00    +0.015 C 
ATOM     23  C   UNL     1      -0.352  -1.050   2.904  0.00  0.00    +0.072 C 
ENDBRANCH  21  23
ENDBRANCH  15  21
ENDBRANCH   1  16
BRANCH   5  24
ATOM     24  C   UNL     1      -7.048  -6.482   0.138  0.00  0.00    +0.218 C 
ATOM     25  O   UNL     1      -6.926  -6.729  -1.043  0.00  0.00    -0.275 OA
ATOM     26  N   UNL     1      -7.807  -7.277   0.918  0.00  0.00    -0.312 N 
ATOM     27  H   UNL     1      -7.905  -7.080   1.862  0.00  0.00    +0.149 HD
BRANCH  26  28
ATOM     28  C   UNL     1      -8.483  -8.441   0.338  0.00  0.00    +0.070 C 
ATOM     29  C   UNL     1      -7.521  -9.630   0.313  0.00  0.00    +0.028 C 
BRANCH  28  30
ATOM     30  C   UNL     1      -9.707  -8.793   1.186  0.00  0.00    +0.026 C 
BRANCH  30  31
ATOM     31  C   UNL     1     -10.725  -7.653   1.110  0.00  0.00    +0.037 C 
BRANCH  31  32
ATOM     32  C   UNL     1     -11.931  -8.000   1.944  0.00  0.00    -0.047 A 
ATOM     33  C   UNL     1     -12.991  -8.683   1.376  0.00  0.00    +0.007 A 
ATOM     34  C   UNL     1     -14.097  -9.002   2.139  0.00  0.00    +0.046 A 
ATOM     35  C   UNL     1     -14.145  -8.637   3.476  0.00  0.00    +0.120 A 
ATOM     36  C   UNL     1     -13.080  -7.952   4.045  0.00  0.00    +0.046 A 
ATOM     37  C   UNL     1     -11.974  -7.640   3.279  0.00  0.00    +0.007 A 
BRANCH  35  38
ATOM     38  O   UNL     1     -15.233  -8.949   4.229  0.00  0.00    -0.495 OA
ATOM     39  C   UNL     1     -15.213  -8.542   5.598  0.00  0.00    +0.277 C 
ENDBRANCH  35  38
ENDBRANCH  31  32
ENDBRANCH  30  31
ENDBRANCH  28  30
ENDBRANCH  26  28
ENDBRANCH   5  24
TORSDOF 9
