REMARK  Name = ZINC12563072
REMARK  8 active torsions:
REMARK  status: ('A' for Active; 'I' for Inactive)
REMARK    1  A    between atoms: C_1  and  C_2
REMARK    2  A    between atoms: C_2  and  C_4
REMARK    3  A    between atoms: C_2  and  N_15
REMARK    4  A    between atoms: C_4  and  C_6
REMARK    5  A    between atoms: C_4  and  N_65
REMARK    6  A    between atoms: C_16  and  C_18
REMARK    7  A    between atoms: C_22  and  S_24
REMARK    8  A    between atoms: S_24  and  N_27
REMARK                            x       y       z     vdW  Elec       q    Type
REMARK                         _______ _______ _______ _____ _____    ______ ____
ROOT
ATOM      1  N   UNL     1       2.284  -3.266  -3.688  0.00  0.00    -0.310 N 
ATOM      2  C   UNL     1       1.163  -2.523  -3.591  0.00  0.00    +0.244 C 
ATOM      3  O   UNL     1       0.938  -1.652  -4.408  0.00  0.00    -0.270 OA
ATOM      4  H   UNL     1       2.463  -3.961  -3.036  0.00  0.00    +0.149 HD
ENDROOT
BRANCH   2   5
ATOM      5  C   UNL     1       0.206  -2.769  -2.490  0.00  0.00    +0.039 A 
ATOM      6  C   UNL     1       0.461  -3.769  -1.550  0.00  0.00    +0.013 A 
ATOM      7  C   UNL     1      -0.435  -3.993  -0.526  0.00  0.00    +0.003 A 
ATOM      8  C   UNL     1      -1.585  -3.229  -0.430  0.00  0.00    +0.028 A 
ATOM      9  C   UNL     1      -1.844  -2.237  -1.358  0.00  0.00    +0.106 A 
ATOM     10  C   UNL     1      -0.958  -2.006  -2.391  0.00  0.00    +0.041 A 
BRANCH   9  11
ATOM     11  S   UNL     1      -3.312  -1.271  -1.226  0.00  0.00    +0.061 S 
ATOM     12  O   UNL     1      -4.246  -2.050  -0.492  0.00  0.00    -0.153 OA
ATOM     13  O   UNL     1      -3.590  -0.775  -2.529  0.00  0.00    -0.153 OA
BRANCH  11  14
ATOM     14  N   UNL     1      -2.950   0.043  -0.287  0.00  0.00    -0.177 NA
ATOM     15  C   UNL     1      -2.465   1.254  -0.883  0.00  0.00    +0.109 C 
ATOM     16  C   UNL     1      -0.930   1.356  -1.066  0.00  0.00    +0.017 C 
ATOM     17  C   UNL     1      -0.206   0.799   0.184  0.00  0.00    +0.001 C 
ATOM     18  C   UNL     1      -0.933   1.188   1.439  0.00  0.00    +0.001 C 
ATOM     19  C   UNL     1      -1.789  -0.020   1.803  0.00  0.00    +0.017 C 
ATOM     20  C   UNL     1      -3.123  -0.013   1.204  0.00  0.00    +0.109 C 
ENDBRANCH  11  14
ENDBRANCH   9  11
ENDBRANCH   2   5
BRANCH   1  22
ATOM     21  C   UNL     1       2.805  -3.821  -6.012  0.00  0.00    +0.026 C 
ATOM     22  C   UNL     1       3.231  -3.022  -4.779  0.00  0.00    +0.061 C 
BRANCH  22  23
ATOM     23  C   UNL     1       4.631  -3.461  -4.345  0.00  0.00    -0.010 C 
BRANCH  23  28
ATOM     24  C   UNL     1       5.616  -1.891  -5.924  0.00  0.00    -0.078 C 
ATOM     25  C   UNL     1       6.960  -1.814  -6.690  0.00  0.00    -0.020 C 
ATOM     26  C   UNL     1       7.889  -2.719  -5.848  0.00  0.00    -0.020 C 
ATOM     27  C   UNL     1       6.944  -3.648  -5.065  0.00  0.00    -0.078 C 
ATOM     28  N   UNL     1       5.587  -3.294  -5.481  0.00  0.00    +0.386 N 
ATOM     29  H   UNL     1       5.294  -3.897  -6.259  0.00  0.00    -0.081 HD
ENDBRANCH  23  28
BRANCH  23  30
ATOM     30  C   UNL     1       4.596  -4.906  -3.920  0.00  0.00    -0.022 A 
ATOM     31  C   UNL     1       4.550  -5.428  -2.670  0.00  0.00    +0.009 A 
ATOM     32  C   UNL     1       4.520  -6.801  -2.517  0.00  0.00    +0.008 A 
ATOM     33  C   UNL     1       4.548  -7.586  -3.622  0.00  0.00    +0.045 A 
ATOM     34  S   UNL     1       4.611  -6.377  -4.933  0.00  0.00    -0.103 S 
ENDBRANCH  23  30
ENDBRANCH  22  23
ENDBRANCH   1  22
TORSDOF 7
