REMARK  Name = ZINC31635904
REMARK  5 active torsions:
REMARK  status: ('A' for Active; 'I' for Inactive)
REMARK    1  A    between atoms: C_1  and  C_2
REMARK    2  A    between atoms: N_11  and  C_15
REMARK    3  A    between atoms: C_15  and  C_16
REMARK    4  A    between atoms: N_18  and  C_19
REMARK    5  A    between atoms: C_20  and  C_28
REMARK                            x       y       z     vdW  Elec       q    Type
REMARK                         _______ _______ _______ _____ _____    ______ ____
ROOT
ATOM      1  C   UNL     1      -4.421  -2.566   2.451  0.00  0.00    +0.236 C 
ATOM      2  O   UNL     1      -5.084  -1.846   1.734  0.00  0.00    -0.274 OA
ATOM      3  N   UNL     1      -4.867  -3.797   2.768  0.00  0.00    -0.278 N 
ATOM      4  H   UNL     1      -4.265  -4.450   3.417  0.00  0.00    +0.155 HD
ENDROOT
BRANCH   3   5
ATOM      5  C   UNL     1      -6.084  -4.242   2.274  0.00  0.00    +0.084 A 
ATOM      6  C   UNL     1      -6.703  -5.467   2.481  0.00  0.00    +0.068 A 
ATOM      7  C   UNL     1      -7.992  -5.683   1.848  0.00  0.00    -0.023 A 
ATOM      8  C   UNL     1      -8.448  -4.652   1.105  0.00  0.00    -0.004 A 
ATOM      9  S   UNL     1      -7.198  -3.406   1.244  0.00  0.00    -0.077 S 
ATOM     10  C   UNL     1      -9.733  -4.591   0.337  0.00  0.00    +0.043 C 
ATOM     11  C   UNL     1     -10.289  -6.016   0.210  0.00  0.00    +0.005 C 
ATOM     12  C   UNL     1     -10.248  -6.686   1.587  0.00  0.00    +0.005 C 
ATOM     13  C   UNL     1      -8.798  -6.969   1.984  0.00  0.00    +0.037 C 
BRANCH   6  14
ATOM     14  C   UNL     1      -6.080  -6.502   3.312  0.00  0.00    +0.244 C 
ATOM     15  O   UNL     1      -6.308  -6.543   4.507  0.00  0.00    -0.270 OA
ATOM     16  N   UNL     1      -5.255  -7.409   2.752  0.00  0.00    -0.325 N 
ATOM     17  H   UNL     1      -4.787  -8.186   3.375  0.00  0.00    +0.145 HD
ATOM     18  H   UNL     1      -5.048  -7.372   1.672  0.00  0.00    +0.145 HD
ENDBRANCH   6  14
ENDBRANCH   3   5
BRANCH   1  19
ATOM     19  C   UNL     1      -3.098  -2.082   2.987  0.00  0.00    +0.214 C 
BRANCH  19  29
ATOM     20  C   UNL     1      -0.001   1.056   2.507  0.00  0.00    +0.010 C 
ATOM     21  C   UNL     1      -0.730   1.580   1.267  0.00  0.00    +0.018 C 
ATOM     22  C   UNL     1      -0.013   1.086   0.008  0.00  0.00    +0.006 C 
ATOM     23  C   UNL     1      -0.753   1.593  -1.231  0.00  0.00    +0.000 C 
ATOM     24  C   UNL     1      -2.185   1.054  -1.227  0.00  0.00    +0.003 C 
ATOM     25  C   UNL     1      -2.911   1.548   0.027  0.00  0.00    +0.035 C 
ATOM     26  C   UNL     1      -2.167   1.071   1.270  0.00  0.00    +0.115 C 
ATOM     27  C   UNL     1      -2.193  -0.438   1.354  0.00  0.00    +0.247 C 
ATOM     28  O   UNL     1      -1.729  -1.226   0.558  0.00  0.00    -0.273 OA
ATOM     29  N   UNL     1      -2.842  -0.724   2.502  0.00  0.00    -0.215 N 
ATOM     30  C   UNL     1      -3.222   0.388   3.143  0.00  0.00    +0.310 C 
ATOM     31  O   UNL     1      -3.823   0.387   4.199  0.00  0.00    -0.252 OA
ATOM     32  N   UNL     1      -2.865   1.508   2.486  0.00  0.00    -0.285 N 
ATOM     33  H   UNL     1      -2.996   2.581   2.689  0.00  0.00    +0.151 HD
ENDBRANCH  19  29
ENDBRANCH   1  19
TORSDOF 4
