REMARK  Name = ZINC39482849
REMARK  11 active torsions:
REMARK  status: ('A' for Active; 'I' for Inactive)
REMARK    1  A    between atoms: C_1  and  C_2
REMARK    2  A    between atoms: C_2  and  C_3
REMARK    3  A    between atoms: C_2  and  S_4
REMARK    4  A    between atoms: S_4  and  C_7
REMARK    5  A    between atoms: C_10  and  N_27
REMARK    6  A    between atoms: C_11  and  N_13
REMARK    7  A    between atoms: C_17  and  C_20
REMARK    8  A    between atoms: C_25  and  O_26
REMARK    9  A    between atoms: N_27  and  S_28
REMARK   10  A    between atoms: S_28  and  C_31
REMARK   11  A    between atoms: C_31  and  C_32
REMARK                            x       y       z     vdW  Elec       q    Type
REMARK                         _______ _______ _______ _____ _____    ______ ____
ROOT
ATOM      1  C   UNL     1      -1.907   0.002  -1.777  0.00  0.00    +0.090 A 
ATOM      2  C   UNL     1      -2.593   1.191  -1.609  0.00  0.00    +0.029 A 
ATOM      3  C   UNL     1      -3.345   1.712  -2.646  0.00  0.00    +0.028 A 
ATOM      4  C   UNL     1      -3.412   1.042  -3.858  0.00  0.00    +0.069 A 
ATOM      5  C   UNL     1      -2.720  -0.157  -4.027  0.00  0.00    +0.054 A 
ATOM      6  C   UNL     1      -1.964  -0.669  -2.984  0.00  0.00    +0.052 A 
ENDROOT
BRANCH   5   7
ATOM      7  N   UNL     1      -2.784  -0.839  -5.249  0.00  0.00    -0.331 N 
ATOM      8  C   UNL     1      -1.807  -0.571  -6.316  0.00  0.00    +0.086 C 
ATOM      9  C   UNL     1      -1.234  -1.909  -6.796  0.00  0.00    -0.063 C 
ATOM     10  N   UNL     1      -2.334  -2.798  -7.190  0.00  0.00    +0.386 N 
ATOM     11  C   UNL     1      -3.160  -3.120  -6.019  0.00  0.00    -0.020 C 
ATOM     12  C   UNL     1      -3.826  -1.847  -5.499  0.00  0.00    +0.094 C 
ATOM     13  H   UNL     1      -2.903  -2.340  -7.886  0.00  0.00    -0.085 HD
ATOM     14  H   UNL     1      -1.955  -3.650  -7.576  0.00  0.00    -0.085 HD
BRANCH  11  15
ATOM     15  C   UNL     1      -4.220  -4.118  -6.411  0.00  0.00    -0.018 A 
ATOM     16  C   UNL     1      -4.564  -4.276  -7.740  0.00  0.00    +0.005 A 
ATOM     17  C   UNL     1      -5.535  -5.191  -8.100  0.00  0.00    +0.000 A 
ATOM     18  C   UNL     1      -6.165  -5.951  -7.131  0.00  0.00    +0.004 A 
ATOM     19  C   UNL     1      -5.824  -5.797  -5.801  0.00  0.00    +0.045 A 
ATOM     20  C   UNL     1      -4.846  -4.883  -5.438  0.00  0.00    +0.118 A 
BRANCH  20  21
ATOM     21  O   UNL     1      -4.505  -4.734  -4.131  0.00  0.00    -0.507 OA
ATOM     22  H   UNL     1      -5.026  -4.069  -3.662  0.00  0.00    +0.292 HD
ENDBRANCH  20  21
ENDBRANCH  11  15
ENDBRANCH   5   7
BRANCH   1  23
ATOM     23  S   UNL     1      -0.951  -0.654  -0.450  0.00  0.00    -0.001 S 
ATOM     24  O   UNL     1      -0.908  -2.054  -0.692  0.00  0.00    -0.169 OA
ATOM     25  O   UNL     1      -1.561  -0.141   0.726  0.00  0.00    -0.169 OA
BRANCH  23  27
ATOM     26  C   UNL     1       0.603   1.592  -0.591  0.00  0.00    +0.032 C 
ATOM     27  C   UNL     1       0.700   0.067  -0.664  0.00  0.00    +0.130 C 
ATOM     28  C   UNL     1       1.625  -0.439   0.445  0.00  0.00    +0.032 C 
ENDBRANCH  23  27
ENDBRANCH   1  23
BRANCH   4  29
ATOM     29  N   UNL     1      -4.174   1.567  -4.910  0.00  0.00    -0.219 N 
ATOM     30  H   UNL     1      -4.649   0.971  -5.509  0.00  0.00    +0.173 HD
BRANCH  29  31
ATOM     31  S   UNL     1      -4.262   3.206  -5.129  0.00  0.00    +0.047 S 
ATOM     32  O   UNL     1      -5.027   3.372  -6.316  0.00  0.00    -0.155 OA
ATOM     33  O   UNL     1      -4.731   3.714  -3.888  0.00  0.00    -0.155 OA
BRANCH  31  34
ATOM     34  C   UNL     1      -2.549   3.732  -5.412  0.00  0.00    +0.223 C 
BRANCH  34  35
ATOM     35  C   UNL     1      -2.510   5.223  -5.626  0.00  0.00    -0.025 A 
ATOM     36  C   UNL     1      -2.640   5.741  -6.901  0.00  0.00    +0.005 A 
ATOM     37  C   UNL     1      -2.604   7.109  -7.098  0.00  0.00    +0.000 A 
ATOM     38  C   UNL     1      -2.438   7.958  -6.020  0.00  0.00    +0.000 A 
ATOM     39  C   UNL     1      -2.308   7.440  -4.745  0.00  0.00    +0.000 A 
ATOM     40  C   UNL     1      -2.348   6.072  -4.548  0.00  0.00    +0.005 A 
ENDBRANCH  34  35
ENDBRANCH  31  34
ENDBRANCH  29  31
ENDBRANCH   4  29
TORSDOF 9
