REMARK  Name = ZINC39684615
REMARK  11 active torsions:
REMARK  status: ('A' for Active; 'I' for Inactive)
REMARK    1  A    between atoms: C_1  and  C_2
REMARK    2  A    between atoms: C_2  and  N_3
REMARK    3  A    between atoms: C_4  and  C_10
REMARK    4  A    between atoms: C_6  and  C_8
REMARK    5  A    between atoms: C_14  and  C_23
REMARK    6  A    between atoms: N_25  and  C_26
REMARK    7  A    between atoms: C_26  and  C_28
REMARK    8  A    between atoms: C_26  and  C_29
REMARK    9  A    between atoms: C_29  and  C_30
REMARK   10  A    between atoms: C_29  and  C_31
REMARK   11  A    between atoms: C_29  and  C_32
REMARK                            x       y       z     vdW  Elec       q    Type
REMARK                         _______ _______ _______ _____ _____    ______ ____
ROOT
ATOM      1  C   UNL     1      -1.788  -0.487   2.691  0.00  0.00    +0.266 C 
ATOM      2  O   UNL     1      -2.575  -0.830   3.553  0.00  0.00    -0.268 OA
ATOM      3  N   UNL     1      -0.619   0.088   3.035  0.00  0.00    -0.295 N 
ATOM      4  C   UNL     1       0.500   0.476   2.145  0.00  0.00    +0.121 C 
ATOM      5  C   UNL     1       0.999   1.825   2.710  0.00  0.00    +0.100 C 
ATOM      6  C   UNL     1       0.563   1.818   4.185  0.00  0.00    -0.004 C 
ATOM      7  C   UNL     1      -0.165   0.482   4.391  0.00  0.00    +0.115 C 
ATOM      8  C   UNL     1      -0.389   2.978   4.460  0.00  0.00    -0.010 C 
ATOM      9  C   UNL     1      -0.764   2.984   5.945  0.00  0.00    -0.082 C 
ATOM     10  N   UNL     1       0.452   3.119   6.757  0.00  0.00    +0.379 N 
ATOM     11  C   UNL     1       1.320   1.952   6.556  0.00  0.00    -0.082 C 
ATOM     12  C   UNL     1       1.782   1.903   5.097  0.00  0.00    -0.010 C 
ATOM     13  H   UNL     1       0.946   3.955   6.484  0.00  0.00    -0.086 HD
ATOM     14  H   UNL     1       0.198   3.183   7.731  0.00  0.00    -0.086 HD
ENDROOT
BRANCH   1  16
ATOM     15  N   UNL     1      -2.609   0.221   0.395  0.00  0.00    -0.258 N 
ATOM     16  C   UNL     1      -2.111  -0.702   1.272  0.00  0.00    +0.138 A 
ATOM     17  C   UNL     1      -1.973  -1.880   0.556  0.00  0.00    +0.071 A 
ATOM     18  C   UNL     1      -2.408  -1.579  -0.738  0.00  0.00    +0.075 A 
ATOM     19  N   UNL     1      -2.773  -0.323  -0.757  0.00  0.00    -0.175 NA
ATOM     20  C   UNL     1      -2.454  -2.534  -1.903  0.00  0.00    +0.069 C 
ATOM     21 BR   UNL     1      -1.331  -3.540   1.194  0.00  0.00    -0.046 Br
BRANCH  15  23
ATOM     22  C   UNL     1      -4.324   1.704   1.312  0.00  0.00    +0.029 C 
ATOM     23  C   UNL     1      -2.915   1.616   0.721  0.00  0.00    +0.141 C 
ENDBRANCH  15  23
ENDBRANCH   1  16
BRANCH   5  24
ATOM     24  C   UNL     1       2.499   1.916   2.604  0.00  0.00    +0.218 C 
ATOM     25  O   UNL     1       3.168   0.904   2.593  0.00  0.00    -0.275 OA
ATOM     26  N   UNL     1       3.098   3.121   2.523  0.00  0.00    -0.312 N 
ATOM     27  H   UNL     1       2.571   3.931   2.609  0.00  0.00    +0.149 HD
BRANCH  26  28
ATOM     28  C   UNL     1       4.544   3.207   2.303  0.00  0.00    +0.075 C 
ATOM     29  C   UNL     1       4.838   3.123   0.804  0.00  0.00    +0.028 C 
BRANCH  28  30
ATOM     30  C   UNL     1       5.064   4.537   2.851  0.00  0.00    -0.020 C 
ATOM     31  C   UNL     1       4.770   4.622   4.350  0.00  0.00    +0.012 C 
ATOM     32  C   UNL     1       6.574   4.628   2.621  0.00  0.00    +0.012 C 
ATOM     33  C   UNL     1       4.369   5.693   2.129  0.00  0.00    +0.012 C 
ENDBRANCH  28  30
ENDBRANCH  26  28
ENDBRANCH   5  24
TORSDOF 5
