REMARK  Name = ZINC48839674
REMARK  5 active torsions:
REMARK  status: ('A' for Active; 'I' for Inactive)
REMARK    1  A    between atoms: C_3  and  S_11
REMARK    2  A    between atoms: C_6  and  C_7
REMARK    3  A    between atoms: S_11  and  N_14
REMARK    4  A    between atoms: N_14  and  C_15
REMARK    5  A    between atoms: C_21  and  N_23
REMARK                            x       y       z     vdW  Elec       q    Type
REMARK                         _______ _______ _______ _____ _____    ______ ____
ROOT
ATOM      1  S   UNL     1       4.014   2.368  -0.070  0.00  0.00    +0.060 S 
ATOM      2  O   UNL     1       5.000   1.883  -0.972  0.00  0.00    -0.153 OA
ATOM      3  O   UNL     1       3.546   3.709  -0.102  0.00  0.00    -0.153 OA
ENDROOT
BRANCH   1   6
ATOM      4  C   UNL     1       1.522  -0.511  -1.347  0.00  0.00    +0.017 A 
ATOM      5  C   UNL     1       2.626   0.301  -1.187  0.00  0.00    +0.030 A 
ATOM      6  C   UNL     1       2.600   1.336  -0.268  0.00  0.00    +0.119 A 
ATOM      7  C   UNL     1       1.468   1.564   0.496  0.00  0.00    +0.045 A 
ATOM      8  C   UNL     1       0.357   0.760   0.346  0.00  0.00    +0.032 A 
ATOM      9  C   UNL     1       0.376  -0.287  -0.580  0.00  0.00    +0.064 A 
ATOM     10 BR   UNL     1       1.445   2.981   1.749  0.00  0.00    -0.048 Br
BRANCH   9  11
ATOM     11  C   UNL     1      -0.808  -1.151  -0.746  0.00  0.00    +0.387 C 
ATOM     12  O   UNL     1      -0.788  -2.066  -1.557  0.00  0.00    -0.241 OA
ATOM     13  O   UNL     1      -1.809  -0.952  -0.073  0.00  0.00    -0.241 OA
ENDBRANCH   9  11
ENDBRANCH   1   6
BRANCH   1  14
ATOM     14  N   UNL     1       4.601   2.108   1.456  0.00  0.00    -0.188 NA
ATOM     15  H   UNL     1       4.576   2.821   2.113  0.00  0.00    +0.148 HD
BRANCH  14  16
ATOM     16  C   UNL     1       5.157   0.800   1.814  0.00  0.00    +0.062 C 
ATOM     17  C   UNL     1       6.674   0.819   1.615  0.00  0.00    +0.019 C 
ATOM     18  C   UNL     1       7.292   1.898   2.506  0.00  0.00    +0.001 C 
ATOM     19  C   UNL     1       6.974   1.592   3.971  0.00  0.00    -0.001 C 
ATOM     20  C   UNL     1       5.457   1.573   4.171  0.00  0.00    -0.015 C 
ATOM     21  C   UNL     1       4.839   0.495   3.279  0.00  0.00    -0.056 C 
BRANCH  21  22
ATOM     22  N   UNL     1       3.382   0.477   3.471  0.00  0.00    +0.381 N 
ATOM     23  H   UNL     1       2.975  -0.235   2.883  0.00  0.00    -0.090 HD
ATOM     24  H   UNL     1       3.173   0.275   4.437  0.00  0.00    -0.090 HD
ATOM     25  H   UNL     1       2.999   1.377   3.224  0.00  0.00    -0.090 HD
ENDBRANCH  21  22
ENDBRANCH  14  16
ENDBRANCH   1  14
TORSDOF 5
