REMARK  Name = ZINC59972532
REMARK  5 active torsions:
REMARK  status: ('A' for Active; 'I' for Inactive)
REMARK    1  A    between atoms: C_1  and  C_2
REMARK    2  A    between atoms: C_2  and  C_4
REMARK    3  A    between atoms: C_2  and  N_9
REMARK    4  A    between atoms: C_10  and  C_12
REMARK    5  A    between atoms: C_18  and  N_22
REMARK                            x       y       z     vdW  Elec       q    Type
REMARK                         _______ _______ _______ _____ _____    ______ ____
ROOT
ATOM      1  C   UNL     1       0.762  -1.121   3.547  0.00  0.00    +0.103 A 
ATOM      2  C   UNL     1       0.208  -1.312   4.772  0.00  0.00    +0.041 A 
ATOM      3  C   UNL     1       1.224  -1.787   5.637  0.00  0.00    +0.002 A 
ATOM      4  C   UNL     1       1.243  -2.151   6.991  0.00  0.00    +0.010 A 
ATOM      5  C   UNL     1       2.403  -2.582   7.565  0.00  0.00    +0.002 A 
ATOM      6  C   UNL     1       3.573  -2.667   6.821  0.00  0.00    +0.025 A 
ATOM      7  C   UNL     1       3.582  -2.314   5.484  0.00  0.00    +0.049 A 
ATOM      8  C   UNL     1       2.404  -1.870   4.876  0.00  0.00    +0.068 A 
ATOM      9  N   UNL     1       2.099  -1.462   3.598  0.00  0.00    -0.349 N 
ATOM     10  H   UNL     1       2.722  -1.420   2.855  0.00  0.00    +0.166 HD
ENDROOT
BRANCH   1  12
ATOM     11  N   UNL     1       0.711  -0.489   1.189  0.00  0.00    -0.303 N 
ATOM     12  C   UNL     1       0.051  -0.633   2.355  0.00  0.00    +0.261 C 
ATOM     13  O   UNL     1      -1.132  -0.360   2.423  0.00  0.00    -0.269 OA
ATOM     14  H   UNL     1       1.654  -0.707   1.135  0.00  0.00    +0.150 HD
BRANCH  11  16
ATOM     15  C   UNL     1      -0.019   1.526   0.010  0.00  0.00    +0.033 C 
ATOM     16  C   UNL     1       0.002  -0.004   0.002  0.00  0.00    +0.107 C 
BRANCH  16  17
ATOM     17  C   UNL     1       0.707  -0.490  -1.238  0.00  0.00    +0.010 A 
ATOM     18  C   UNL     1       0.176  -0.943  -2.400  0.00  0.00    +0.013 A 
ATOM     19  C   UNL     1       1.026  -1.340  -3.415  0.00  0.00    +0.008 A 
ATOM     20  C   UNL     1       2.365  -1.266  -3.219  0.00  0.00    +0.045 A 
ATOM     21  S   UNL     1       2.459  -0.612  -1.560  0.00  0.00    -0.100 S 
ENDBRANCH  16  17
ENDBRANCH  11  16
ENDBRANCH   1  12
BRANCH   7  22
ATOM     22  N   UNL     1       4.765  -2.401   4.743  0.00  0.00    -0.356 N 
ATOM     23  H   UNL     1       5.582  -2.709   5.167  0.00  0.00    +0.142 HD
ATOM     24  H   UNL     1       4.770  -2.153   3.805  0.00  0.00    +0.142 HD
ENDBRANCH   7  22
TORSDOF 4
