REMARK  Name = ZINC02401216
REMARK  6 active torsions:
REMARK  status: ('A' for Active; 'I' for Inactive)
REMARK    1  A    between atoms: C_1  and  C_2
REMARK    2  A    between atoms: C_2  and  C_36
REMARK    3  A    between atoms: C_6  and  N_29
REMARK    4  A    between atoms: C_12  and  N_16
REMARK    5  A    between atoms: C_19  and  C_22
REMARK    6  A    between atoms: C_22  and  C_23
REMARK                            x       y       z     vdW  Elec       q    Type
REMARK                         _______ _______ _______ _____ _____    ______ ____
ROOT
ATOM      1  C   UNL     1      -6.572  -5.236  -1.198  0.00  0.00    +0.041 C 
ATOM      2  C   UNL     1      -6.528  -4.930   0.300  0.00  0.00    +0.068 C 
ATOM      3  C   UNL     1      -5.383  -3.958   0.594  0.00  0.00    +0.070 C 
ATOM      4  C   UNL     1      -4.064  -4.665   0.433  0.00  0.00    -0.024 A 
ATOM      5  C   UNL     1      -3.971  -6.022   0.411  0.00  0.00    +0.020 A 
ATOM      6  C   UNL     1      -2.721  -6.633   0.272  0.00  0.00    +0.105 A 
ATOM      7  C   UNL     1      -1.680  -4.584   0.170  0.00  0.00    +0.089 A 
ATOM      8  C   UNL     1      -2.890  -3.883   0.307  0.00  0.00    +0.035 A 
ATOM      9  C   UNL     1      -2.787  -2.412   0.303  0.00  0.00    +0.093 A 
ATOM     10  C   UNL     1      -1.495  -1.889   0.156  0.00  0.00    +0.080 A 
ATOM     11  S   UNL     1      -0.447  -3.312   0.040  0.00  0.00    -0.066 S 
ATOM     12  C   UNL     1      -1.278  -0.519   0.143  0.00  0.00    +0.139 A 
ATOM     13  N   UNL     1      -2.330   0.289   0.264  0.00  0.00    -0.220 NA
ATOM     14  C   UNL     1      -3.542  -0.219   0.397  0.00  0.00    +0.224 A 
ATOM     15  N   UNL     1      -3.784  -1.506   0.419  0.00  0.00    -0.234 NA
ATOM     16  C   UNL     1      -5.193  -6.896   0.531  0.00  0.00    +0.199 C 
ATOM     17  O   UNL     1      -6.295  -6.139   1.032  0.00  0.00    -0.369 OA
ATOM     18  C   UNL     1      -7.856  -4.310   0.739  0.00  0.00    +0.041 C 
ATOM     19  N   UNL     1      -1.557  -5.934   0.151  0.00  0.00    -0.337 N 
ATOM     20  H   UNL     1      -0.647  -6.399   0.051  0.00  0.00    +0.168 HD
ENDROOT
BRANCH  12  21
ATOM     21  N   UNL     1       0.002  -0.004   0.002  0.00  0.00    -0.314 N 
ATOM     22  C   UNL     1      -0.018   1.464   0.010  0.00  0.00    +0.107 C 
ATOM     23  C   UNL     1       1.417   1.995  -0.001  0.00  0.00    +0.023 C 
ATOM     24  C   UNL     1       2.137   1.483  -1.252  0.00  0.00    -0.004 C 
ATOM     25  C   UNL     1       2.101  -0.048  -1.260  0.00  0.00    +0.023 C 
ATOM     26  C   UNL     1       0.646  -0.520  -1.213  0.00  0.00    +0.107 C 
BRANCH  24  27
ATOM     27  C   UNL     1       3.590   1.960  -1.239  0.00  0.00    +0.038 C 
BRANCH  27  28
ATOM     28  C   UNL     1       3.626   3.462  -1.355  0.00  0.00    -0.047 A 
ATOM     29  C   UNL     1       3.689   4.059  -2.600  0.00  0.00    +0.003 A 
ATOM     30  C   UNL     1       3.718   5.437  -2.706  0.00  0.00    +0.000 A 
ATOM     31  C   UNL     1       3.694   6.218  -1.566  0.00  0.00    +0.000 A 
ATOM     32  C   UNL     1       3.635   5.622  -0.320  0.00  0.00    +0.000 A 
ATOM     33  C   UNL     1       3.602   4.244  -0.214  0.00  0.00    +0.003 A 
ENDBRANCH  27  28
ENDBRANCH  24  27
ENDBRANCH  12  21
BRANCH   6  34
ATOM     34  N   UNL     1      -2.628  -8.018   0.253  0.00  0.00    -0.316 N 
ATOM     35  C   UNL     1      -3.358  -8.584  -0.910  0.00  0.00    +0.106 C 
ATOM     36  C   UNL     1      -2.730  -9.992  -1.071  0.00  0.00    +0.020 C 
ATOM     37  C   UNL     1      -1.241  -9.745  -0.739  0.00  0.00    +0.020 C 
ATOM     38  C   UNL     1      -1.224  -8.453   0.099  0.00  0.00    +0.106 C 
ENDBRANCH   6  34
TORSDOF 4
