REMARK  Name = ZINC39217788
REMARK  5 active torsions:
REMARK  status: ('A' for Active; 'I' for Inactive)
REMARK    1  A    between atoms: C_1  and  C_2
REMARK    2  A    between atoms: C_2  and  C_3
REMARK    3  A    between atoms: C_3  and  C_5
REMARK    4  A    between atoms: C_3  and  C_11
REMARK    5  A    between atoms: C_20  and  C_24
REMARK                            x       y       z     vdW  Elec       q    Type
REMARK                         _______ _______ _______ _____ _____    ______ ____
ROOT
ATOM      1  C   UNL     1       2.222  -0.302  -1.079  0.00  0.00    +0.225 C 
ATOM      2  O   UNL     1       3.034  -1.202  -0.987  0.00  0.00    -0.275 OA
ATOM      3  N   UNL     1       2.615   0.965  -0.964  0.00  0.00    -0.283 N 
ATOM      4  C   UNL     1       3.571   1.441  -1.762  0.00  0.00    +0.061 C 
ATOM      5  C   UNL     1       4.084   0.667  -2.812  0.00  0.00    +0.025 C 
ATOM      6  C   UNL     1       5.068   1.158  -3.632  0.00  0.00    +0.004 C 
ATOM      7  C   UNL     1       5.609   2.433  -3.475  0.00  0.00    +0.027 C 
ATOM      8  C   UNL     1       5.183   3.268  -2.487  0.00  0.00    +0.077 C 
ATOM      9  N   UNL     1       5.547   4.548  -2.124  0.00  0.00    -0.213 NA
ATOM     10  C   UNL     1       4.713   4.898  -0.966  0.00  0.00    +0.314 C 
ATOM     11  N   UNL     1       3.858   3.738  -0.699  0.00  0.00    -0.247 NA
ATOM     12  C   UNL     1       4.120   2.812  -1.565  0.00  0.00    +0.105 C 
ATOM     13  H   UNL     1       2.206   1.541  -0.300  0.00  0.00    +0.155 HD
ENDROOT
BRANCH  10  14
ATOM     14  C   UNL     1       3.852   6.121  -1.291  0.00  0.00    +0.430 C 
ATOM     15  F   UNL     1       3.050   5.844  -2.403  0.00  0.00    -0.167 F 
ATOM     16  F   UNL     1       3.040   6.424  -0.193  0.00  0.00    -0.167 F 
ATOM     17  F   UNL     1       4.680   7.213  -1.574  0.00  0.00    -0.167 F 
ENDBRANCH  10  14
BRANCH   1  18
ATOM     18  C   UNL     1       0.769  -0.621  -1.324  0.00  0.00    +0.105 C 
BRANCH  18  19
ATOM     19  C   UNL     1       0.614  -1.241  -2.689  0.00  0.00    -0.036 A 
ATOM     20  C   UNL     1       1.266  -2.423  -2.989  0.00  0.00    +0.004 A 
ATOM     21  C   UNL     1       1.123  -2.991  -4.241  0.00  0.00    +0.000 A 
ATOM     22  C   UNL     1       0.329  -2.379  -5.192  0.00  0.00    +0.000 A 
ATOM     23  C   UNL     1      -0.323  -1.198  -4.891  0.00  0.00    +0.000 A 
ATOM     24  C   UNL     1      -0.184  -0.631  -3.638  0.00  0.00    +0.004 A 
ENDBRANCH  18  19
BRANCH  18  26
ATOM     25  C   UNL     1      -1.225  -1.838  -0.439  0.00  0.00    +0.005 C 
ATOM     26  C   UNL     1       0.276  -1.602  -0.259  0.00  0.00    +0.014 C 
ENDBRANCH  18  26
ENDBRANCH   1  18
TORSDOF 4
