REMARK  Name = ZINC63362457
REMARK  13 active torsions:
REMARK  status: ('A' for Active; 'I' for Inactive)
REMARK    1  A    between atoms: C_1  and  C_2
REMARK    2  A    between atoms: C_2  and  C_3
REMARK    3  A    between atoms: C_2  and  C_4
REMARK    4  A    between atoms: C_2  and  O_5
REMARK    5  A    between atoms: O_5  and  C_6
REMARK    6  A    between atoms: N_8  and  C_9
REMARK    7  A    between atoms: C_9  and  C_10
REMARK    8  A    between atoms: C_15  and  C_18
REMARK    9  A    between atoms: N_20  and  C_21
REMARK   10  A    between atoms: C_21  and  C_23
REMARK   11  A    between atoms: C_21  and  C_33
REMARK   12  A    between atoms: C_23  and  C_24
REMARK   13  A    between atoms: N_35  and  C_36
REMARK                            x       y       z     vdW  Elec       q    Type
REMARK                         _______ _______ _______ _____ _____    ______ ____
ROOT
ATOM      1  C   UNL     1       8.585   2.068  -6.334  0.00  0.00    +0.217 C 
ATOM      2  O   UNL     1       8.475   3.222  -5.976  0.00  0.00    -0.275 OA
ATOM      3  N   UNL     1       9.246   1.777  -7.472  0.00  0.00    -0.303 N 
ATOM      4  H   UNL     1       9.335   0.854  -7.758  0.00  0.00    +0.149 HD
ENDROOT
BRANCH   1  10
ATOM      5  C   UNL     1       4.570  -0.648  -3.886  0.00  0.00    +0.233 C 
ATOM      6  O   UNL     1       3.858  -1.337  -4.585  0.00  0.00    -0.274 OA
ATOM      7  N   UNL     1       5.841  -0.399  -4.259  0.00  0.00    -0.300 N 
ATOM      8  C   UNL     1       6.719   0.429  -3.420  0.00  0.00    +0.108 C 
ATOM      9  C   UNL     1       7.298   1.559  -4.277  0.00  0.00    +0.032 C 
ATOM     10  C   UNL     1       7.985   0.961  -5.506  0.00  0.00    +0.078 C 
ATOM     11  C   UNL     1       6.959   0.196  -6.345  0.00  0.00    +0.032 C 
ATOM     12  C   UNL     1       6.378  -0.954  -5.509  0.00  0.00    +0.108 C 
BRANCH   5  13
ATOM     13  C   UNL     1       4.035  -0.071  -2.601  0.00  0.00    +0.203 C 
BRANCH  13  16
ATOM     14  C   UNL     1       1.952  -0.085  -1.337  0.00  0.00    +0.401 C 
ATOM     15  O   UNL     1       2.488   0.619  -0.503  0.00  0.00    -0.226 OA
ATOM     16  N   UNL     1       2.641  -0.485  -2.424  0.00  0.00    -0.273 N 
ATOM     17  H   UNL     1       2.213  -1.047  -3.089  0.00  0.00    +0.153 HD
BRANCH  14  18
ATOM     18  O   UNL     1       0.671  -0.465  -1.174  0.00  0.00    -0.445 OA
BRANCH  18  20
ATOM     19  C   UNL     1      -0.019   1.526   0.010  0.00  0.00    +0.055 C 
ATOM     20  C   UNL     1       0.002  -0.004   0.002  0.00  0.00    +0.107 C 
ATOM     21  C   UNL     1       0.742  -0.511   1.242  0.00  0.00    +0.055 C 
ATOM     22  C   UNL     1      -1.433  -0.534   0.013  0.00  0.00    +0.055 C 
ENDBRANCH  18  20
ENDBRANCH  14  18
ENDBRANCH  13  16
ENDBRANCH   5  13
ENDBRANCH   1  10
BRANCH   3  23
ATOM     23  C   UNL     1       9.829   2.853  -8.277  0.00  0.00    +0.163 C 
BRANCH  23  24
ATOM     24  C   UNL     1       8.780   3.416  -9.200  0.00  0.00    +0.234 C 
ATOM     25  O   UNL     1       7.655   2.962  -9.187  0.00  0.00    -0.274 OA
ATOM     26  N   UNL     1       9.091   4.423 -10.040  0.00  0.00    -0.311 N 
ATOM     27  H   UNL     1       9.991   4.785 -10.050  0.00  0.00    +0.149 HD
BRANCH  26  28
ATOM     28  C   UNL     1       8.070   4.969 -10.938  0.00  0.00    +0.073 C 
ATOM     29  C   UNL     1       8.042   4.169 -12.256  0.00  0.00    +0.022 C 
ATOM     30  C   UNL     1       7.770   5.237 -13.344  0.00  0.00    +0.002 C 
ATOM     31  C   UNL     1       8.593   6.450 -12.845  0.00  0.00    +0.002 C 
ATOM     32  C   UNL     1       8.421   6.420 -11.312  0.00  0.00    +0.022 C 
ENDBRANCH  26  28
ENDBRANCH  23  24
BRANCH  23  33
ATOM     33  C   UNL     1      10.992   2.299  -9.103  0.00  0.00    +0.065 C 
BRANCH  33  34
ATOM     34  C   UNL     1      12.095   1.848  -8.180  0.00  0.00    -0.039 C 
ATOM     35  C   UNL     1      12.306   0.595  -7.718  0.00  0.00    -0.001 A 
ATOM     36  C   UNL     1      11.601  -0.675  -7.926  0.00  0.00    +0.010 A 
ATOM     37  C   UNL     1      12.060  -1.789  -7.314  0.00  0.00    +0.001 A 
ATOM     38  C   UNL     1      13.192  -1.763  -6.487  0.00  0.00    +0.002 A 
ATOM     39  C   UNL     1      13.893  -0.634  -6.247  0.00  0.00    +0.026 A 
ATOM     40  C   UNL     1      13.499   0.597  -6.840  0.00  0.00    +0.043 A 
ATOM     41  N   UNL     1      14.004   1.804  -6.763  0.00  0.00    -0.380 N 
ATOM     42  C   UNL     1      13.192   2.705  -7.588  0.00  0.00    +0.144 C 
ATOM     43  H   UNL     1      14.786   2.058  -6.249  0.00  0.00    +0.160 HD
ENDBRANCH  33  34
ENDBRANCH  23  33
ENDBRANCH   3  23
TORSDOF 10
