REMARK  Name = ZINC35060737
REMARK  3 active torsions:
REMARK  status: ('A' for Active; 'I' for Inactive)
REMARK    1  A    between atoms: C_5  and  N_7
REMARK    2  A    between atoms: N_7  and  C_8
REMARK    3  A    between atoms: C_13  and  N_14
REMARK                            x       y       z     vdW  Elec       q    Type
REMARK                         _______ _______ _______ _____ _____    ______ ____
ROOT
ATOM      1  C   UNL     1       0.067  -2.844   0.077  0.00  0.00    +0.054 A 
ATOM      2  C   UNL     1      -1.170  -2.205   0.080  0.00  0.00    +0.026 A 
ATOM      3  C   UNL     1      -2.325  -2.957   0.177  0.00  0.00    +0.019 A 
ATOM      4  C   UNL     1      -2.241  -4.326   0.268  0.00  0.00    +0.041 A 
ATOM      5  C   UNL     1      -1.006  -5.012   0.268  0.00  0.00    +0.101 A 
ATOM      6  C   UNL     1       0.162  -4.221   0.163  0.00  0.00    +0.073 A 
ATOM      7  N   UNL     1      -1.137  -6.352   0.365  0.00  0.00    -0.246 NA
ATOM      8  C   UNL     1      -2.300  -6.930   0.450  0.00  0.00    +0.157 A 
ATOM      9  S   UNL     1      -3.403  -5.660   0.404  0.00  0.00    -0.075 S 
ENDROOT
BRANCH   6  10
ATOM     10  N   UNL     1       1.421  -4.835   0.152  0.00  0.00    -0.355 N 
ATOM     11  H   UNL     1       2.223  -4.295   0.084  0.00  0.00    +0.142 HD
ATOM     12  H   UNL     1       1.490  -5.801   0.212  0.00  0.00    +0.142 HD
ENDBRANCH   6  10
BRANCH   1  13
ATOM     13  N   UNL     1       1.238  -2.077  -0.021  0.00  0.00    -0.312 N 
ATOM     14  H   UNL     1       1.956  -2.362  -0.608  0.00  0.00    +0.152 HD
BRANCH  13  19
ATOM     15  C   UNL     1       0.527   0.606   2.387  0.00  0.00    +0.002 A 
ATOM     16  C   UNL     1       1.630   1.421   2.203  0.00  0.00    +0.001 A 
ATOM     17  C   UNL     1       2.602   1.077   1.282  0.00  0.00    +0.016 A 
ATOM     18  C   UNL     1       2.476  -0.083   0.543  0.00  0.00    +0.034 A 
ATOM     19  C   UNL     1       1.370  -0.904   0.725  0.00  0.00    +0.045 A 
ATOM     20  C   UNL     1       0.395  -0.555   1.651  0.00  0.00    +0.024 A 
ATOM     21  I   UNL     1       3.950  -0.603  -0.853  0.00  0.00    -0.042 I 
ENDBRANCH  13  19
ENDBRANCH   1  13
TORSDOF 3
