REMARK  Name = ZINC02532002
REMARK  9 active torsions:
REMARK  status: ('A' for Active; 'I' for Inactive)
REMARK    1  A    between atoms: C_1  and  C_2
REMARK    2  A    between atoms: C_5  and  C_8
REMARK    3  A    between atoms: N_10  and  C_11
REMARK    4  A    between atoms: C_11  and  C_12
REMARK    5  A    between atoms: N_14  and  N_15
REMARK    6  A    between atoms: C_16  and  C_17
REMARK    7  A    between atoms: C_26  and  O_27
REMARK    8  A    between atoms: O_27  and  C_28
REMARK    9  A    between atoms: C_28  and  C_30
REMARK                            x       y       z     vdW  Elec       q    Type
REMARK                         _______ _______ _______ _____ _____    ______ ____
ROOT
ATOM      1  C   UNL     1       7.283   0.205  -0.050  0.00  0.00    +0.045 A 
ATOM      2  C   UNL     1       8.559  -0.509  -0.029  0.00  0.00    -0.006 A 
ATOM      3  C   UNL     1       9.777   0.175   0.062  0.00  0.00    +0.009 A 
ATOM      4  C   UNL     1      10.945  -0.528   0.079  0.00  0.00    +0.001 A 
ATOM      5  C   UNL     1      10.943  -1.919   0.007  0.00  0.00    +0.001 A 
ATOM      6  C   UNL     1       9.777  -2.615  -0.083  0.00  0.00    +0.008 A 
ATOM      7  C   UNL     1       8.553  -1.923  -0.104  0.00  0.00    -0.017 A 
ATOM      8  C   UNL     1       7.329  -2.608  -0.196  0.00  0.00    +0.012 A 
ATOM      9  C   UNL     1       6.152  -1.929  -0.208  0.00  0.00    +0.047 A 
ATOM     10  C   UNL     1       6.106  -0.537  -0.143  0.00  0.00    +0.141 A 
ENDROOT
BRANCH   1  12
ATOM     11  N   UNL     1       6.104   2.295  -0.047  0.00  0.00    -0.188 NA
ATOM     12  C   UNL     1       7.242   1.672   0.024  0.00  0.00    +0.142 C 
BRANCH  11  15
ATOM     13  C   UNL     1       4.891   4.343  -0.079  0.00  0.00    +0.249 C 
ATOM     14  O   UNL     1       3.860   3.722   0.068  0.00  0.00    -0.272 OA
ATOM     15  N   UNL     1       6.072   3.695  -0.092  0.00  0.00    -0.206 N 
ATOM     16  H   UNL     1       6.901   4.197  -0.132  0.00  0.00    +0.177 HD
BRANCH  13  17
ATOM     17  C   UNL     1       4.851   5.840  -0.248  0.00  0.00    +0.202 C 
BRANCH  17  20
ATOM     18  C   UNL     1       3.181   7.613  -0.328  0.00  0.00    +0.244 C 
ATOM     19  O   UNL     1       4.082   8.414  -0.486  0.00  0.00    -0.270 OA
ATOM     20  N   UNL     1       3.462   6.301  -0.198  0.00  0.00    -0.303 N 
ATOM     21  H   UNL     1       2.743   5.661  -0.072  0.00  0.00    +0.150 HD
BRANCH  18  26
ATOM     22  C   UNL     1      -2.278   9.421  -0.135  0.00  0.00    +0.044 C 
ATOM     23  C   UNL     1      -0.849   8.947  -0.185  0.00  0.00    -0.050 A 
ATOM     24  C   UNL     1       0.174   9.862  -0.364  0.00  0.00    +0.004 A 
ATOM     25  C   UNL     1       1.485   9.435  -0.411  0.00  0.00    +0.013 A 
ATOM     26  C   UNL     1       1.779   8.077  -0.278  0.00  0.00    +0.037 A 
ATOM     27  C   UNL     1       0.742   7.159  -0.102  0.00  0.00    +0.013 A 
ATOM     28  C   UNL     1      -0.564   7.600  -0.052  0.00  0.00    +0.004 A 
ENDBRANCH  18  26
ENDBRANCH  17  20
ENDBRANCH  13  17
ENDBRANCH  11  15
ENDBRANCH   1  12
BRANCH  10  29
ATOM     29  O   UNL     1       4.907   0.100  -0.164  0.00  0.00    -0.422 OA
BRANCH  29  30
ATOM     30  C   UNL     1       4.450   0.505  -1.365  0.00  0.00    +0.344 C 
ATOM     31  O   UNL     1       5.143   0.374  -2.354  0.00  0.00    -0.245 OA
BRANCH  30  32
ATOM     32  C   UNL     1       3.107   1.108  -1.479  0.00  0.00    +0.059 A 
ATOM     33  C   UNL     1       2.667   1.614  -2.704  0.00  0.00    +0.015 A 
ATOM     34  C   UNL     1       1.411   2.176  -2.804  0.00  0.00    +0.001 A 
ATOM     35  C   UNL     1       0.587   2.238  -1.694  0.00  0.00    +0.000 A 
ATOM     36  C   UNL     1       1.016   1.738  -0.477  0.00  0.00    +0.001 A 
ATOM     37  C   UNL     1       2.270   1.174  -0.363  0.00  0.00    +0.015 A 
ENDBRANCH  30  32
ENDBRANCH  29  30
ENDBRANCH  10  29
TORSDOF 8
