REMARK  Name = ZINC35926826
REMARK  10 active torsions:
REMARK  status: ('A' for Active; 'I' for Inactive)
REMARK    1  A    between atoms: C_1  and  O_2
REMARK    2  A    between atoms: O_2  and  C_3
REMARK    3  A    between atoms: C_6  and  O_39
REMARK    4  A    between atoms: C_7  and  C_9
REMARK    5  A    between atoms: C_9  and  N_10
REMARK    6  A    between atoms: C_22  and  C_24
REMARK    7  A    between atoms: C_24  and  N_25
REMARK    8  A    between atoms: N_28  and  C_31
REMARK    9  A    between atoms: C_36  and  C_37
REMARK   10  A    between atoms: O_39  and  C_40
REMARK                            x       y       z     vdW  Elec       q    Type
REMARK                         _______ _______ _______ _____ _____    ______ ____
ROOT
ATOM      1  N   UNL     1      -2.722  -4.517  -1.422  0.00  0.00    +0.384 N 
ATOM      2  C   UNL     1      -1.753  -4.111  -2.448  0.00  0.00    -0.059 C 
ATOM      3  C   UNL     1      -2.188  -4.664  -3.809  0.00  0.00    +0.089 C 
ATOM      4  N   UNL     1      -2.368  -6.119  -3.685  0.00  0.00    -0.305 N 
ATOM      5  C   UNL     1      -3.196  -6.623  -2.579  0.00  0.00    +0.089 C 
ATOM      6  C   UNL     1      -2.713  -5.978  -1.276  0.00  0.00    -0.059 C 
ATOM      7  C   UNL     1      -1.780  -6.978  -4.574  0.00  0.00    +0.198 A 
ATOM      8  N   UNL     1      -2.061  -8.307  -4.503  0.00  0.00    -0.295 N 
ATOM      9  H   UNL     1      -2.673  -8.640  -3.829  0.00  0.00    +0.172 HD
ATOM     10  C   UNL     1      -1.485  -9.162  -5.377  0.00  0.00    +0.253 A 
ATOM     11  O   UNL     1      -1.727 -10.357  -5.328  0.00  0.00    -0.268 OA
ATOM     12  C   UNL     1      -0.603  -8.647  -6.343  0.00  0.00    +0.091 A 
ATOM     13  C   UNL     1      -0.359  -7.305  -6.365  0.00  0.00    +0.034 A 
ATOM     14  N   UNL     1      -0.955  -6.503  -5.486  0.00  0.00    -0.223 NA
ATOM     15  H   UNL     1      -3.645  -4.213  -1.696  0.00  0.00    -0.081 HD
ENDROOT
BRANCH   1  16
ATOM     16  C   UNL     1      -2.365  -3.896  -0.140  0.00  0.00    -0.039 C 
BRANCH  16  21
ATOM     17  C   UNL     1      -1.486  -0.245  -0.559  0.00  0.00    +0.121 A 
ATOM     18  C   UNL     1      -2.733   0.354  -0.462  0.00  0.00    +0.049 A 
ATOM     19  C   UNL     1      -3.858  -0.422  -0.261  0.00  0.00    +0.049 A 
ATOM     20  C   UNL     1      -3.740  -1.800  -0.157  0.00  0.00    +0.122 A 
ATOM     21  C   UNL     1      -2.493  -2.399  -0.254  0.00  0.00    -0.019 A 
ATOM     22  C   UNL     1      -1.369  -1.623  -0.460  0.00  0.00    +0.051 A 
BRANCH  17  24
ATOM     23  C   UNL     1      -0.573   1.932  -0.849  0.00  0.00    +0.277 C 
ATOM     24  O   UNL     1      -0.379   0.519  -0.756  0.00  0.00    -0.495 OA
ENDBRANCH  17  24
BRANCH  20  25
ATOM     25  O   UNL     1      -4.848  -2.564   0.042  0.00  0.00    -0.495 OA
ATOM     26  C   UNL     1      -6.099  -1.881   0.133  0.00  0.00    +0.277 C 
ENDBRANCH  20  25
ENDBRANCH  16  21
ENDBRANCH   1  16
BRANCH  13  27
ATOM     27  C   UNL     1       0.583  -6.728  -7.391  0.00  0.00    -0.022 C 
BRANCH  27  28
ATOM     28  N   UNL     1      -0.162  -5.844  -8.297  0.00  0.00    +0.385 N 
ATOM     29  C   UNL     1      -0.680  -4.696  -7.542  0.00  0.00    -0.059 C 
ATOM     30  C   UNL     1      -1.552  -3.833  -8.460  0.00  0.00    +0.086 C 
ATOM     31  N   UNL     1      -0.763  -3.472  -9.648  0.00  0.00    -0.332 N 
ATOM     32  C   UNL     1      -0.072  -4.548 -10.374  0.00  0.00    +0.086 C 
ATOM     33  C   UNL     1       0.731  -5.378  -9.366  0.00  0.00    -0.059 C 
ATOM     34  H   UNL     1      -0.933  -6.352  -8.702  0.00  0.00    -0.081 HD
BRANCH  31  35
ATOM     35  C   UNL     1      -0.674  -2.151 -10.072  0.00  0.00    +0.047 A 
ATOM     36  C   UNL     1       0.344  -1.334  -9.598  0.00  0.00    +0.024 A 
ATOM     37  C   UNL     1       0.431  -0.022 -10.021  0.00  0.00    +0.002 A 
ATOM     38  C   UNL     1      -0.493   0.488 -10.918  0.00  0.00    +0.001 A 
ATOM     39  C   UNL     1      -1.510  -0.307 -11.399  0.00  0.00    +0.021 A 
ATOM     40  C   UNL     1      -1.608  -1.639 -10.986  0.00  0.00    +0.073 A 
BRANCH  40  41
ATOM     41  C   UNL     1      -2.658  -2.473 -11.486  0.00  0.00    +0.101 C 
ATOM     42  N   UNL     1      -3.492  -3.135 -11.884  0.00  0.00    -0.191 NA
ENDBRANCH  40  41
ENDBRANCH  31  35
ENDBRANCH  27  28
ENDBRANCH  13  27
TORSDOF 8
