REMARK  Name = ZINC08842983
REMARK  9 active torsions:
REMARK  status: ('A' for Active; 'I' for Inactive)
REMARK    1  A    between atoms: C_1  and  C_2
REMARK    2  A    between atoms: C_2  and  O_3
REMARK    3  A    between atoms: O_3  and  C_4
REMARK    4  A    between atoms: C_6  and  C_20
REMARK    5  A    between atoms: C_9  and  O_10
REMARK    6  A    between atoms: O_10  and  C_11
REMARK    7  A    between atoms: C_11  and  C_13
REMARK    8  A    between atoms: C_25  and  C_29
REMARK    9  A    between atoms: C_26  and  C_28
REMARK                            x       y       z     vdW  Elec       q    Type
REMARK                         _______ _______ _______ _____ _____    ______ ____
ROOT
ATOM      1  C   UNL     1      -0.030   1.389  -0.020  0.00  0.00    +0.163 A 
ATOM      2  C   UNL     1      -0.020   0.004  -0.029  0.00  0.00    +0.056 A 
ATOM      3  C   UNL     1       1.182  -0.679  -0.017  0.00  0.00    -0.006 A 
ATOM      4  C   UNL     1       2.376   0.018   0.003  0.00  0.00    +0.011 A 
ATOM      5  C   UNL     1       2.374   1.400   0.012  0.00  0.00    +0.050 A 
ATOM      6  C   UNL     1       1.172   2.091   0.001  0.00  0.00    +0.173 A 
ENDROOT
BRANCH   3   7
ATOM      7  C   UNL     1       1.191  -2.186  -0.026  0.00  0.00    +0.190 C 
ATOM      8  N   UNL     1       2.391  -2.666   0.684  0.00  0.00    -0.316 N 
ATOM      9  C   UNL     1       2.313  -2.722   2.051  0.00  0.00    +0.080 A 
ATOM     10  C   UNL     1       1.094  -2.842   2.739  0.00  0.00    +0.068 A 
ATOM     11  C   UNL     1       1.205  -2.877   4.178  0.00  0.00    -0.027 A 
ATOM     12  C   UNL     1       2.438  -2.800   4.712  0.00  0.00    -0.008 A 
ATOM     13  S   UNL     1       3.500  -2.674   3.283  0.00  0.00    -0.078 S 
ATOM     14  C   UNL     1       2.829  -2.816   6.167  0.00  0.00    +0.052 C 
ATOM     15  C   UNL     1      -0.017  -2.996   5.052  0.00  0.00    +0.045 C 
ATOM     16  C   UNL     1      -0.142  -2.920   1.927  0.00  0.00    +0.248 C 
ATOM     17  O   UNL     1      -1.216  -3.195   2.432  0.00  0.00    -0.270 OA
ATOM     18  N   UNL     1      -0.030  -2.675   0.605  0.00  0.00    -0.289 N 
ATOM     19  H   UNL     1       3.194  -2.929   0.208  0.00  0.00    +0.149 HD
ATOM     20  H   UNL     1      -0.805  -2.831   0.042  0.00  0.00    +0.151 HD
ENDBRANCH   3   7
BRANCH   1  21
ATOM     21  O   UNL     1      -1.211   2.062  -0.038  0.00  0.00    -0.489 OA
BRANCH  21  23
ATOM     22  C   UNL     1      -3.623   2.202  -0.081  0.00  0.00    +0.048 C 
ATOM     23  C   UNL     1      -2.405   1.277  -0.065  0.00  0.00    +0.226 C 
ENDBRANCH  21  23
ENDBRANCH   1  21
BRANCH   6  24
ATOM     24  O   UNL     1       1.168   3.450   0.009  0.00  0.00    -0.419 OA
BRANCH  24  25
ATOM     25  C   UNL     1       0.966   4.054   1.196  0.00  0.00    +0.346 C 
ATOM     26  O   UNL     1       0.896   3.390   2.211  0.00  0.00    -0.244 OA
BRANCH  25  27
ATOM     27  C   UNL     1       0.829   5.522   1.264  0.00  0.00    +0.078 A 
ATOM     28  C   UNL     1       0.914   6.290   0.100  0.00  0.00    +0.016 A 
ATOM     29  C   UNL     1       0.780   7.660   0.170  0.00  0.00    +0.001 A 
ATOM     30  C   UNL     1       0.571   8.278   1.391  0.00  0.00    +0.001 A 
ATOM     31  C   UNL     1       0.491   7.527   2.549  0.00  0.00    +0.021 A 
ATOM     32  C   UNL     1       0.619   6.152   2.494  0.00  0.00    +0.055 A 
ATOM     33 CL   UNL     1       0.518   5.210   3.948  0.00  0.00    -0.083 Cl
ENDBRANCH  25  27
ENDBRANCH  24  25
ENDBRANCH   6  24
TORSDOF 6
