REMARK  Name = ZINC12502704
REMARK  7 active torsions:
REMARK  status: ('A' for Active; 'I' for Inactive)
REMARK    1  A    between atoms: C_4  and  C_7
REMARK    2  A    between atoms: C_7  and  C_8
REMARK    3  A    between atoms: C_7  and  C_14
REMARK    4  A    between atoms: N_16  and  C_17
REMARK    5  A    between atoms: C_17  and  N_19
REMARK    6  A    between atoms: N_19  and  N_20
REMARK    7  A    between atoms: C_21  and  C_23
REMARK                            x       y       z     vdW  Elec       q    Type
REMARK                         _______ _______ _______ _____ _____    ______ ____
ROOT
ATOM      1  C   UNL     1      -0.470  -2.820   2.382  0.00  0.00    +0.153 C 
ATOM      2  S   UNL     1      -1.100  -2.013   3.754  0.00  0.00    -0.017 S 
ENDROOT
BRANCH   1   5
ATOM      3  C   UNL     1      -0.345  -0.786   1.243  0.00  0.00    +0.230 C 
ATOM      4  O   UNL     1      -0.791  -0.214   2.215  0.00  0.00    -0.274 OA
ATOM      5  N   UNL     1      -0.159  -2.120   1.272  0.00  0.00    -0.266 N 
ATOM      6  H   UNL     1       0.198  -2.578   0.495  0.00  0.00    +0.157 HD
BRANCH   3   7
ATOM      7  C   UNL     1       0.002  -0.004   0.002  0.00  0.00    +0.135 C 
BRANCH   7  11
ATOM      8  C   UNL     1      -0.846   4.133   0.642  0.00  0.00    +0.000 A 
ATOM      9  C   UNL     1       0.406   3.744   0.204  0.00  0.00    +0.000 A 
ATOM     10  C   UNL     1       0.680   2.405  -0.003  0.00  0.00    +0.005 A 
ATOM     11  C   UNL     1      -0.297   1.456   0.228  0.00  0.00    -0.031 A 
ATOM     12  C   UNL     1      -1.551   1.845   0.661  0.00  0.00    +0.005 A 
ATOM     13  C   UNL     1      -1.824   3.184   0.873  0.00  0.00    +0.000 A 
ENDBRANCH   7  11
BRANCH   7  14
ATOM     14  C   UNL     1      -0.817  -0.511  -1.157  0.00  0.00    -0.031 A 
ATOM     15  C   UNL     1      -2.184  -0.668  -1.021  0.00  0.00    +0.005 A 
ATOM     16  C   UNL     1      -2.936  -1.129  -2.086  0.00  0.00    +0.000 A 
ATOM     17  C   UNL     1      -2.320  -1.442  -3.283  0.00  0.00    +0.000 A 
ATOM     18  C   UNL     1      -0.952  -1.291  -3.417  0.00  0.00    +0.000 A 
ATOM     19  C   UNL     1      -0.201  -0.825  -2.354  0.00  0.00    +0.005 A 
ENDBRANCH   7  14
ENDBRANCH   3   7
ENDBRANCH   1   5
BRANCH   1  20
ATOM     20  N   UNL     1      -0.284  -4.154   2.411  0.00  0.00    -0.245 N 
ATOM     21  H   UNL     1      -0.507  -4.658   3.210  0.00  0.00    +0.172 HD
BRANCH  20  22
ATOM     22  N   UNL     1       0.232  -4.815   1.288  0.00  0.00    -0.231 N 
ATOM     23  C   UNL     1       0.417  -6.149   1.318  0.00  0.00    +0.268 C 
ATOM     24  O   UNL     1       0.137  -6.781   2.319  0.00  0.00    -0.268 OA
ATOM     25  H   UNL     1       0.455  -4.312   0.490  0.00  0.00    +0.173 HD
BRANCH  23  26
ATOM     26  C   UNL     1       0.958  -6.841   0.141  0.00  0.00    +0.095 A 
ATOM     27  C   UNL     1       1.218  -8.168  -0.018  0.00  0.00    +0.068 A 
ATOM     28  C   UNL     1       1.736  -8.640  -1.239  0.00  0.00    +0.008 A 
ATOM     29  C   UNL     1       2.065  -9.973  -1.596  0.00  0.00    +0.010 A 
ATOM     30  C   UNL     1       2.566 -10.258  -2.825  0.00  0.00    +0.001 A 
ATOM     31  C   UNL     1       2.774  -9.267  -3.776  0.00  0.00    +0.001 A 
ATOM     32  C   UNL     1       2.467  -7.956  -3.470  0.00  0.00    +0.016 A 
ATOM     33  C   UNL     1       1.958  -7.651  -2.225  0.00  0.00    +0.021 A 
ATOM     34  S   UNL     1       1.442  -6.150  -1.431  0.00  0.00    -0.082 S 
ATOM     35 CL   UNL     1       0.907  -9.276   1.282  0.00  0.00    -0.082 Cl
ENDBRANCH  23  26
ENDBRANCH  20  22
ENDBRANCH   1  20
TORSDOF 7
