REMARK  Name = ZINC09542555
REMARK  11 active torsions:
REMARK  status: ('A' for Active; 'I' for Inactive)
REMARK    1  A    between atoms: C_1  and  C_2
REMARK    2  A    between atoms: C_2  and  O_3
REMARK    3  A    between atoms: O_3  and  C_4
REMARK    4  A    between atoms: C_8  and  C_11
REMARK    5  A    between atoms: C_9  and  O_10
REMARK    6  A    between atoms: C_14  and  C_26
REMARK    7  A    between atoms: C_16  and  C_18
REMARK    8  A    between atoms: C_22  and  O_24
REMARK    9  A    between atoms: O_24  and  C_25
REMARK   10  A    between atoms: C_30  and  O_32
REMARK   11  A    between atoms: O_32  and  C_33
REMARK                            x       y       z     vdW  Elec       q    Type
REMARK                         _______ _______ _______ _____ _____    ______ ____
ROOT
ATOM      1  C   UNL     1      -1.217   7.486   0.440  0.00  0.00    -0.028 C 
ATOM      2  C   UNL     1      -1.410   6.019   0.039  0.00  0.00    +0.044 C 
ATOM      3  C   UNL     1      -0.076   5.324   0.029  0.00  0.00    +0.040 C 
ATOM      4  N   UNL     1       1.039   5.953   0.022  0.00  0.00    -0.299 NA
ATOM      5  C   UNL     1       1.159   7.405   0.037  0.00  0.00    +0.081 C 
ATOM      6  N   UNL     1      -0.107   8.038  -0.360  0.00  0.00    +0.401 N 
ATOM      7  H   UNL     1      -0.045   9.051  -0.204  0.00  0.00    -0.081 HD
ATOM      8  H   UNL     1      -0.281   7.856  -1.356  0.00  0.00    -0.081 HD
ENDROOT
BRANCH   1  13
ATOM      9  C   UNL     1      -4.655   9.022   0.833  0.00  0.00    +0.162 A 
ATOM     10  C   UNL     1      -4.795   9.685  -0.376  0.00  0.00    +0.049 A 
ATOM     11  C   UNL     1      -3.780   9.636  -1.313  0.00  0.00    +0.004 A 
ATOM     12  C   UNL     1      -2.622   8.929  -1.046  0.00  0.00    +0.006 A 
ATOM     13  C   UNL     1      -2.478   8.260   0.155  0.00  0.00    -0.016 A 
ATOM     14  C   UNL     1      -3.492   8.306   1.099  0.00  0.00    +0.160 A 
BRANCH  14  15
ATOM     15  O   UNL     1      -3.349   7.653   2.284  0.00  0.00    -0.503 OA
ATOM     16  H   UNL     1      -2.945   8.187   2.981  0.00  0.00    +0.292 HD
ENDBRANCH  14  15
BRANCH   9  17
ATOM     17  O   UNL     1      -5.652   9.070   1.756  0.00  0.00    -0.489 OA
BRANCH  17  19
ATOM     18  C   UNL     1      -7.820   9.763   2.568  0.00  0.00    +0.048 C 
ATOM     19  C   UNL     1      -6.817   9.824   1.414  0.00  0.00    +0.226 C 
ENDBRANCH  17  19
ENDBRANCH   9  17
ENDBRANCH   1  13
BRANCH   5  20
ATOM     20  C   UNL     1       2.242   7.824  -0.923  0.00  0.00    -0.037 A 
ATOM     21  C   UNL     1       2.165   9.048  -1.561  0.00  0.00    +0.004 A 
ATOM     22  C   UNL     1       3.157   9.435  -2.443  0.00  0.00    +0.004 A 
ATOM     23  C   UNL     1       4.229   8.599  -2.689  0.00  0.00    +0.045 A 
ATOM     24  C   UNL     1       4.309   7.370  -2.050  0.00  0.00    +0.120 A 
ATOM     25  C   UNL     1       3.314   6.986  -1.162  0.00  0.00    +0.049 A 
BRANCH  24  26
ATOM     26  O   UNL     1       5.363   6.546  -2.290  0.00  0.00    -0.495 OA
ATOM     27  C   UNL     1       6.352   7.009  -3.212  0.00  0.00    +0.277 C 
ENDBRANCH  24  26
ENDBRANCH   5  20
BRANCH   3  28
ATOM     28  C   UNL     1      -0.052   3.848   0.022  0.00  0.00    -0.001 A 
ATOM     29  C   UNL     1      -1.248   3.127   0.030  0.00  0.00    +0.010 A 
ATOM     30  C   UNL     1      -1.221   1.748   0.017  0.00  0.00    +0.004 A 
ATOM     31  C   UNL     1      -0.013   1.076   0.008  0.00  0.00    +0.045 A 
ATOM     32  C   UNL     1       1.182   1.784   0.000  0.00  0.00    +0.121 A 
ATOM     33  C   UNL     1       1.167   3.168   0.007  0.00  0.00    +0.055 A 
BRANCH  32  34
ATOM     34  O   UNL     1       2.366   1.117  -0.014  0.00  0.00    -0.495 OA
ATOM     35  C   UNL     1       2.307  -0.311  -0.020  0.00  0.00    +0.277 C 
ENDBRANCH  32  34
ENDBRANCH   3  28
TORSDOF 8
