REMARK  Name = ZINC58759383
REMARK  13 active torsions:
REMARK  status: ('A' for Active; 'I' for Inactive)
REMARK    1  A    between atoms: C_1  and  C_2
REMARK    2  A    between atoms: C_7  and  C_8
REMARK    3  A    between atoms: C_8  and  C_9
REMARK    4  A    between atoms: C_8  and  C_10
REMARK    5  A    between atoms: C_11  and  C_14
REMARK    6  A    between atoms: C_14  and  C_15
REMARK    7  A    between atoms: N_17  and  C_18
REMARK    8  A    between atoms: C_18  and  C_19
REMARK    9  A    between atoms: C_19  and  C_20
REMARK   10  A    between atoms: C_20  and  C_21
REMARK   11  A    between atoms: C_22  and  C_33
REMARK   12  A    between atoms: C_23  and  N_32
REMARK   13  A    between atoms: N_24  and  C_26
REMARK                            x       y       z     vdW  Elec       q    Type
REMARK                         _______ _______ _______ _____ _____    ______ ____
ROOT
ATOM      1  C   UNL     1      -1.512  -7.437   2.623  0.00  0.00    +0.104 C 
ENDROOT
BRANCH   1   4
ATOM      2  C   UNL     1      -0.409  -5.856   1.132  0.00  0.00    +0.217 C 
ATOM      3  O   UNL     1      -1.494  -5.367   0.896  0.00  0.00    -0.275 OA
ATOM      4  N   UNL     1      -0.310  -6.896   1.983  0.00  0.00    -0.315 N 
ATOM      5  H   UNL     1       0.558  -7.287   2.172  0.00  0.00    +0.149 HD
BRANCH   2   6
ATOM      6  C   UNL     1       0.827  -5.299   0.474  0.00  0.00    +0.134 C 
BRANCH   6  14
ATOM      7  C   UNL     1      -0.485   1.457   0.078  0.00  0.00    +0.044 C 
ATOM      8  C   UNL     1      -0.222  -0.026   0.035  0.00  0.00    -0.044 A 
ATOM      9  C   UNL     1      -0.327  -0.702  -1.162  0.00  0.00    +0.050 A 
ATOM     10  C   UNL     1      -0.086  -2.069  -1.210  0.00  0.00    +0.135 A 
ATOM     11  C   UNL     1       0.264  -2.748  -0.030  0.00  0.00    +0.024 A 
ATOM     12  C   UNL     1       0.366  -2.052   1.174  0.00  0.00    +0.016 A 
ATOM     13  C   UNL     1       0.128  -0.695   1.198  0.00  0.00    -0.041 A 
ATOM     14  C   UNL     1       0.445  -4.150  -0.423  0.00  0.00    +0.007 A 
ATOM     15  C   UNL     1       0.203  -4.203  -1.740  0.00  0.00    +0.200 A 
ATOM     16  O   UNL     1      -0.109  -2.980  -2.203  0.00  0.00    -0.463 OA
BRANCH  13  17
ATOM     17  C   UNL     1       0.243   0.064   2.495  0.00  0.00    +0.013 C 
ATOM     18  C   UNL     1      -0.844  -0.411   3.462  0.00  0.00    +0.012 C 
ATOM     19  C   UNL     1       1.620  -0.188   3.112  0.00  0.00    +0.012 C 
ENDBRANCH  13  17
ENDBRANCH   6  14
ENDBRANCH   2   6
ENDBRANCH   1   4
BRANCH   1  20
ATOM     20  C   UNL     1      -1.124  -8.603   3.534  0.00  0.00    +0.025 C 
BRANCH  20  21
ATOM     21  C   UNL     1      -2.379  -9.168   4.202  0.00  0.00    +0.060 C 
BRANCH  21  22
ATOM     22  C   UNL     1      -1.997 -10.317   5.098  0.00  0.00    +0.083 A 
ATOM     23  C   UNL     1      -1.919 -11.677   4.716  0.00  0.00    +0.114 A 
ATOM     24  C   UNL     1      -1.533 -12.396   5.844  0.00  0.00    +0.138 A 
ATOM     25  N   UNL     1      -1.387 -11.506   6.852  0.00  0.00    -0.217 N 
ATOM     26  N   UNL     1      -1.676 -10.228   6.359  0.00  0.00    -0.168 NA
BRANCH  25  27
ATOM     27  C   UNL     1      -1.007 -11.810   8.166  0.00  0.00    +0.067 A 
ATOM     28  C   UNL     1      -1.413 -13.003   8.749  0.00  0.00    +0.028 A 
ATOM     29  C   UNL     1      -1.035 -13.301  10.043  0.00  0.00    +0.002 A 
ATOM     30  C   UNL     1      -0.254 -12.412  10.759  0.00  0.00    +0.000 A 
ATOM     31  C   UNL     1       0.151 -11.223  10.181  0.00  0.00    +0.002 A 
ATOM     32  C   UNL     1      -0.218 -10.922   8.885  0.00  0.00    +0.028 A 
ENDBRANCH  25  27
BRANCH  24  33
ATOM     33  N   UNL     1      -1.335 -13.761   5.920  0.00  0.00    -0.342 N 
ATOM     34  H   UNL     1      -1.467 -14.314   5.134  0.00  0.00    +0.144 HD
ATOM     35  H   UNL     1      -1.065 -14.166   6.759  0.00  0.00    +0.144 HD
ENDBRANCH  24  33
BRANCH  23  36
ATOM     36  C   UNL     1      -2.187 -12.212   3.415  0.00  0.00    +0.104 C 
ATOM     37  N   UNL     1      -2.399 -12.637   2.383  0.00  0.00    -0.191 NA
ENDBRANCH  23  36
ENDBRANCH  21  22
ENDBRANCH  20  21
ENDBRANCH   1  20
TORSDOF 10
