REMARK  Name = ZINC08774754
REMARK  12 active torsions:
REMARK  status: ('A' for Active; 'I' for Inactive)
REMARK    1  A    between atoms: C_1  and  N_2
REMARK    2  A    between atoms: N_2  and  C_3
REMARK    3  A    between atoms: N_2  and  S_4
REMARK    4  A    between atoms: S_4  and  C_7
REMARK    5  A    between atoms: C_11  and  C_13
REMARK    6  A    between atoms: C_13  and  O_15
REMARK    7  A    between atoms: O_15  and  C_16
REMARK    8  A    between atoms: C_16  and  C_17
REMARK    9  A    between atoms: C_20  and  C_31
REMARK   10  A    between atoms: C_23  and  C_25
REMARK   11  A    between atoms: C_34  and  O_37
REMARK   12  A    between atoms: O_37  and  C_38
REMARK                            x       y       z     vdW  Elec       q    Type
REMARK                         _______ _______ _______ _____ _____    ______ ____
ROOT
ATOM      1  C   UNL     1       7.771  -4.980  -1.853  0.00  0.00    +0.273 C 
ATOM      2  O   UNL     1       8.192  -4.063  -2.527  0.00  0.00    -0.270 OA
ATOM      3  N   UNL     1       8.574  -6.018  -1.549  0.00  0.00    -0.182 N 
ATOM      4  C   UNL     1       9.979  -6.163  -1.963  0.00  0.00    +0.137 C 
ATOM      5  C   UNL     1      10.400  -7.512  -1.348  0.00  0.00    +0.087 C 
ATOM      6  C   UNL     1       9.155  -7.992  -0.636  0.00  0.00    +0.069 C 
ATOM      7  N   UNL     1       8.213  -7.127  -0.787  0.00  0.00    -0.181 NA
ENDROOT
BRANCH   6   8
ATOM      8  C   UNL     1       9.040  -9.254   0.118  0.00  0.00    -0.002 A 
ATOM      9  C   UNL     1      10.137 -10.112   0.223  0.00  0.00    +0.010 A 
ATOM     10  C   UNL     1      10.021 -11.291   0.930  0.00  0.00    +0.001 A 
ATOM     11  C   UNL     1       8.822 -11.624   1.535  0.00  0.00    +0.000 A 
ATOM     12  C   UNL     1       7.731 -10.779   1.435  0.00  0.00    +0.001 A 
ATOM     13  C   UNL     1       7.834  -9.594   0.737  0.00  0.00    +0.010 A 
ENDBRANCH   6   8
BRANCH   4  14
ATOM     14  C   UNL     1      10.088  -6.205  -3.466  0.00  0.00    -0.024 A 
ATOM     15  C   UNL     1       9.132  -6.873  -4.208  0.00  0.00    +0.009 A 
ATOM     16  C   UNL     1       9.229  -6.914  -5.586  0.00  0.00    +0.046 A 
ATOM     17  C   UNL     1      10.287  -6.282  -6.224  0.00  0.00    +0.120 A 
ATOM     18  C   UNL     1      11.244  -5.611  -5.477  0.00  0.00    +0.046 A 
ATOM     19  C   UNL     1      11.139  -5.570  -4.100  0.00  0.00    +0.009 A 
BRANCH  17  20
ATOM     20  O   UNL     1      10.385  -6.321  -7.579  0.00  0.00    -0.495 OA
ATOM     21  C   UNL     1      11.500  -5.648  -8.168  0.00  0.00    +0.277 C 
ENDBRANCH  17  20
ENDBRANCH   4  14
BRANCH   1  22
ATOM     22  C   UNL     1       6.348  -4.957  -1.356  0.00  0.00    +0.330 C 
BRANCH  22  23
ATOM     23  O   UNL     1       5.705  -3.764  -1.806  0.00  0.00    -0.452 OA
BRANCH  23  24
ATOM     24  C   UNL     1       4.419  -3.588  -1.444  0.00  0.00    +0.340 C 
ATOM     25  O   UNL     1       3.859  -4.426  -0.766  0.00  0.00    -0.245 OA
BRANCH  24  30
ATOM     26  C   UNL     1       1.682  -1.059  -1.905  0.00  0.00    +0.106 A 
ATOM     27  C   UNL     1       2.323  -0.107  -2.678  0.00  0.00    +0.028 A 
ATOM     28  C   UNL     1       3.643  -0.284  -3.050  0.00  0.00    +0.003 A 
ATOM     29  C   UNL     1       4.330  -1.412  -2.653  0.00  0.00    +0.015 A 
ATOM     30  C   UNL     1       3.690  -2.377  -1.873  0.00  0.00    +0.061 A 
ATOM     31  C   UNL     1       2.358  -2.189  -1.496  0.00  0.00    +0.043 A 
BRANCH  26  32
ATOM     32  S   UNL     1      -0.000  -0.824  -1.437  0.00  0.00    +0.060 S 
ATOM     33  O   UNL     1      -0.531  -2.115  -1.167  0.00  0.00    -0.153 OA
ATOM     34  O   UNL     1      -0.572   0.049  -2.401  0.00  0.00    -0.153 OA
BRANCH  32  36
ATOM     35  C   UNL     1      -0.018   1.461   0.010  0.00  0.00    +0.131 C 
ATOM     36  N   UNL     1       0.002  -0.004   0.002  0.00  0.00    -0.183 NA
ATOM     37  C   UNL     1       0.024  -0.743   1.267  0.00  0.00    +0.131 C 
ENDBRANCH  32  36
ENDBRANCH  26  32
ENDBRANCH  24  30
ENDBRANCH  23  24
ENDBRANCH  22  23
ENDBRANCH   1  22
TORSDOF 9
