REMARK  Name = ZINC39653125
REMARK  9 active torsions:
REMARK  status: ('A' for Active; 'I' for Inactive)
REMARK    1  A    between atoms: C_1  and  O_2
REMARK    2  A    between atoms: O_2  and  C_3
REMARK    3  A    between atoms: C_5  and  C_11
REMARK    4  A    between atoms: C_7  and  O_9
REMARK    5  A    between atoms: O_9  and  C_10
REMARK    6  A    between atoms: C_11  and  C_12
REMARK    7  A    between atoms: C_12  and  N_13
REMARK    8  A    between atoms: C_14  and  C_16
REMARK    9  A    between atoms: C_27  and  C_29
REMARK                            x       y       z     vdW  Elec       q    Type
REMARK                         _______ _______ _______ _____ _____    ______ ____
ROOT
ATOM      1  C   UNL     1       3.796  -8.310   1.061  0.00  0.00    +0.100 C 
ATOM      2  C   UNL     1       2.531  -8.893   0.391  0.00  0.00    +0.121 C 
ATOM      3  N   UNL     1       2.940  -9.164  -1.007  0.00  0.00    -0.297 N 
ATOM      4  C   UNL     1       4.321  -9.690  -0.892  0.00  0.00    +0.115 C 
ATOM      5  C   UNL     1       4.969  -8.838   0.218  0.00  0.00    -0.004 C 
ATOM      6  C   UNL     1       5.744  -7.676  -0.395  0.00  0.00    -0.010 C 
ATOM      7  C   UNL     1       6.938  -8.224  -1.182  0.00  0.00    -0.082 C 
ATOM      8  N   UNL     1       7.804  -8.998  -0.284  0.00  0.00    +0.379 N 
ATOM      9  C   UNL     1       7.079 -10.166   0.228  0.00  0.00    -0.082 C 
ATOM     10  C   UNL     1       5.891  -9.700   1.075  0.00  0.00    -0.010 C 
ATOM     11  C   UNL     1       2.218  -8.976  -2.130  0.00  0.00    +0.260 C 
ATOM     12  O   UNL     1       1.130  -8.443  -2.069  0.00  0.00    -0.271 OA
ATOM     13  H   UNL     1       8.621  -9.306  -0.791  0.00  0.00    -0.086 HD
ATOM     14  H   UNL     1       8.091  -8.416   0.488  0.00  0.00    -0.086 HD
ENDROOT
BRANCH  11  15
ATOM     15  C   UNL     1       2.763  -9.426  -3.460  0.00  0.00    +0.296 C 
ATOM     16  C   UNL     1       2.800 -10.960  -3.512  0.00  0.00    +0.283 C 
ATOM     17  O   UNL     1       3.308 -11.353  -4.792  0.00  0.00    -0.484 OA
ATOM     18  C   UNL     1       2.785 -10.721  -5.878  0.00  0.00    +0.162 A 
ATOM     19  C   UNL     1       2.949 -11.282  -7.136  0.00  0.00    +0.049 A 
ATOM     20  C   UNL     1       2.426 -10.651  -8.249  0.00  0.00    +0.004 A 
ATOM     21  C   UNL     1       1.739  -9.459  -8.111  0.00  0.00    +0.004 A 
ATOM     22  C   UNL     1       1.571  -8.896  -6.861  0.00  0.00    +0.049 A 
ATOM     23  C   UNL     1       2.092  -9.525  -5.739  0.00  0.00    +0.163 A 
ATOM     24  O   UNL     1       1.912  -8.961  -4.513  0.00  0.00    -0.473 OA
ENDBRANCH  11  15
BRANCH   1  26
ATOM     25  N   UNL     1       4.362  -6.094   2.002  0.00  0.00    -0.315 N 
ATOM     26  C   UNL     1       3.761  -6.804   1.027  0.00  0.00    +0.218 C 
ATOM     27  O   UNL     1       3.192  -6.231   0.122  0.00  0.00    -0.275 OA
ATOM     28  H   UNL     1       4.817  -6.552   2.726  0.00  0.00    +0.149 HD
BRANCH  25  29
ATOM     29  C   UNL     1       4.329  -4.630   1.969  0.00  0.00    +0.109 C 
BRANCH  29  30
ATOM     30  C   UNL     1       5.079  -4.075   3.182  0.00  0.00    +0.054 C 
BRANCH  30  33
ATOM     31  C   UNL     1       3.978  -0.501   3.735  0.00  0.00    +0.124 A 
ATOM     32  C   UNL     1       4.012  -1.888   3.765  0.00  0.00    +0.049 A 
ATOM     33  C   UNL     1       5.044  -2.568   3.147  0.00  0.00    -0.039 A 
ATOM     34  C   UNL     1       6.045  -1.870   2.499  0.00  0.00    +0.049 A 
ATOM     35  C   UNL     1       6.015  -0.483   2.466  0.00  0.00    +0.124 A 
ATOM     36  C   UNL     1       4.977   0.202   3.080  0.00  0.00    +0.091 A 
BRANCH  31  38
ATOM     37  C   UNL     1       2.989   1.594   4.268  0.00  0.00    +0.277 C 
ATOM     38  O   UNL     1       2.963   0.167   4.343  0.00  0.00    -0.495 OA
ENDBRANCH  31  38
BRANCH  35  39
ATOM     39  O   UNL     1       6.999   0.203   1.829  0.00  0.00    -0.495 OA
ATOM     40  C   UNL     1       6.904   1.629   1.835  0.00  0.00    +0.277 C 
ENDBRANCH  35  39
ENDBRANCH  30  33
ENDBRANCH  29  30
ENDBRANCH  25  29
ENDBRANCH   1  26
TORSDOF 7
