REMARK  Name = ZINC41635252
REMARK  8 active torsions:
REMARK  status: ('A' for Active; 'I' for Inactive)
REMARK    1  A    between atoms: C_1  and  C_2
REMARK    2  A    between atoms: C_7  and  O_28
REMARK    3  A    between atoms: C_8  and  C_10
REMARK    4  A    between atoms: C_10  and  C_12
REMARK    5  A    between atoms: C_10  and  N_19
REMARK    6  A    between atoms: N_19  and  C_20
REMARK    7  A    between atoms: N_19  and  C_21
REMARK    8  A    between atoms: N_24  and  C_27
REMARK                            x       y       z     vdW  Elec       q    Type
REMARK                         _______ _______ _______ _____ _____    ______ ____
ROOT
ATOM      1  C   UNL     1       0.067  -5.857   0.851  0.00  0.00    +0.132 C 
ENDROOT
BRANCH   1   9
ATOM      2  C   UNL     1      -1.532   1.376  -0.021  0.00  0.00    +0.090 C 
ATOM      3  C   UNL     1      -1.200  -0.094  -0.007  0.00  0.00    +0.150 A 
ATOM      4  N   UNL     1      -0.981  -0.845  -1.085  0.00  0.00    -0.205 NA
ATOM      5  C   UNL     1      -0.721  -2.069  -0.712  0.00  0.00    +0.199 A 
ATOM      6  N   UNL     1      -0.763  -2.151   0.646  0.00  0.00    -0.173 N 
ATOM      7  N   UNL     1      -1.076  -0.831   1.064  0.00  0.00    -0.147 NA
ATOM      8  C   UNL     1      -0.511  -3.379   1.211  0.00  0.00    +0.228 A 
ATOM      9  C   UNL     1      -0.237  -4.439   0.442  0.00  0.00    +0.076 A 
ATOM     10  S   UNL     1      -0.323  -3.731  -1.196  0.00  0.00    -0.047 S 
BRANCH   8  11
ATOM     11  O   UNL     1      -0.541  -3.517   2.564  0.00  0.00    -0.492 OA
ATOM     12  H   UNL     1      -0.748  -2.700   3.038  0.00  0.00    +0.294 HD
ENDBRANCH   8  11
ENDBRANCH   1   9
BRANCH   1  13
ATOM     13  C   UNL     1       1.483  -6.199   0.465  0.00  0.00    +0.010 A 
ATOM     14  C   UNL     1       1.743  -6.794  -0.755  0.00  0.00    +0.008 A 
ATOM     15  C   UNL     1       3.042  -7.107  -1.109  0.00  0.00    +0.000 A 
ATOM     16  C   UNL     1       4.083  -6.826  -0.242  0.00  0.00    +0.003 A 
ATOM     17  C   UNL     1       3.825  -6.231   0.978  0.00  0.00    +0.039 A 
ATOM     18  C   UNL     1       2.525  -5.912   1.331  0.00  0.00    +0.128 A 
ATOM     19  F   UNL     1       2.272  -5.326   2.522  0.00  0.00    -0.205 F 
ENDBRANCH   1  13
BRANCH   1  20
ATOM     20  N   UNL     1      -0.860  -6.772   0.170  0.00  0.00    -0.291 NA
ATOM     21  C   UNL     1      -0.690  -8.149   0.653  0.00  0.00    +0.106 C 
BRANCH  20  22
ATOM     22  C   UNL     1      -2.251  -6.326   0.329  0.00  0.00    +0.054 C 
ATOM     23  C   UNL     1      -2.671  -6.472   1.794  0.00  0.00    +0.000 C 
ATOM     24  C   UNL     1      -4.144  -6.082   1.938  0.00  0.00    -0.078 C 
ATOM     25  N   UNL     1      -4.970  -6.959   1.101  0.00  0.00    +0.378 N 
ATOM     26  C   UNL     1      -4.622  -6.772  -0.312  0.00  0.00    -0.078 C 
ATOM     27  C   UNL     1      -3.167  -7.189  -0.543  0.00  0.00    +0.000 C 
ATOM     28  C   UNL     1      -6.388  -6.632   1.302  0.00  0.00    -0.096 C 
ATOM     29  H   UNL     1      -4.809  -7.921   1.362  0.00  0.00    -0.082 HD
ENDBRANCH  20  22
ENDBRANCH   1  20
TORSDOF 5
