REMARK  Name = ZINC07755953
REMARK  8 active torsions:
REMARK  status: ('A' for Active; 'I' for Inactive)
REMARK    1  A    between atoms: C_1  and  C_2
REMARK    2  A    between atoms: C_2  and  O_3
REMARK    3  A    between atoms: O_3  and  C_4
REMARK    4  A    between atoms: C_4  and  C_6
REMARK    5  A    between atoms: C_7  and  C_26
REMARK    6  A    between atoms: C_12  and  C_14
REMARK    7  A    between atoms: C_19  and  O_24
REMARK    8  A    between atoms: O_24  and  C_25
REMARK                            x       y       z     vdW  Elec       q    Type
REMARK                         _______ _______ _______ _____ _____    ______ ____
ROOT
ATOM      1  C   UNL     1       2.490   0.103  -0.157  0.00  0.00    +0.078 C 
ATOM      2  C   UNL     1       2.393   1.448  -0.239  0.00  0.00    +0.019 C 
ATOM      3  N   UNL     1       1.193   2.079  -0.087  0.00  0.00    -0.300 N 
ATOM      4  C   UNL     1       0.042   1.438   0.150  0.00  0.00    +0.135 C 
ATOM      5  S   UNL     1      -1.397   2.352   0.313  0.00  0.00    -0.019 S 
ATOM      6  N   UNL     1      -0.023   0.096   0.258  0.00  0.00    -0.315 N 
ATOM      7  C   UNL     1       1.220  -0.680   0.110  0.00  0.00    +0.141 C 
ATOM      8  C   UNL     1       3.632   2.265  -0.503  0.00  0.00    +0.061 C 
ATOM      9  H   UNL     1       1.173   3.046  -0.154  0.00  0.00    +0.154 HD
ATOM     10  H   UNL     1      -0.868  -0.348   0.430  0.00  0.00    +0.149 HD
ENDROOT
BRANCH   7  11
ATOM     11  C   UNL     1       1.422  -1.478   1.372  0.00  0.00    -0.022 A 
ATOM     12  C   UNL     1       1.136  -0.897   2.606  0.00  0.00    +0.006 A 
ATOM     13  C   UNL     1       1.308  -1.590   3.764  0.00  0.00    +0.009 A 
ATOM     14  C   UNL     1       1.782  -2.913   3.719  0.00  0.00    -0.014 A 
ATOM     15  C   UNL     1       1.971  -3.659   4.894  0.00  0.00    +0.054 A 
ATOM     16  C   UNL     1       2.432  -4.942   4.811  0.00  0.00    +0.121 A 
ATOM     17  C   UNL     1       2.718  -5.524   3.572  0.00  0.00    +0.046 A 
ATOM     18  C   UNL     1       2.545  -4.828   2.417  0.00  0.00    +0.012 A 
ATOM     19  C   UNL     1       2.072  -3.505   2.464  0.00  0.00    -0.017 A 
ATOM     20  C   UNL     1       1.877  -2.759   1.289  0.00  0.00    +0.014 A 
BRANCH  16  21
ATOM     21  O   UNL     1       2.615  -5.663   5.949  0.00  0.00    -0.495 OA
ATOM     22  C   UNL     1       3.099  -6.999   5.799  0.00  0.00    +0.277 C 
ENDBRANCH  16  21
ENDBRANCH   7  11
BRANCH   1  23
ATOM     23  C   UNL     1       3.733  -0.552  -0.313  0.00  0.00    +0.339 C 
ATOM     24  O   UNL     1       4.755   0.099  -0.416  0.00  0.00    -0.245 OA
BRANCH  23  25
ATOM     25  O   UNL     1       3.786  -1.900  -0.349  0.00  0.00    -0.462 OA
BRANCH  25  27
ATOM     26  C   UNL     1       4.935  -4.019  -0.527  0.00  0.00    +0.048 C 
ATOM     27  C   UNL     1       5.075  -2.495  -0.509  0.00  0.00    +0.229 C 
ENDBRANCH  25  27
ENDBRANCH  23  25
ENDBRANCH   1  23
TORSDOF 5
