REMARK  Name = ZINC39882023
REMARK  12 active torsions:
REMARK  status: ('A' for Active; 'I' for Inactive)
REMARK    1  A    between atoms: C_1  and  C_2
REMARK    2  A    between atoms: C_2  and  C_3
REMARK    3  A    between atoms: C_2  and  C_4
REMARK    4  A    between atoms: C_2  and  C_5
REMARK    5  A    between atoms: N_7  and  C_8
REMARK    6  A    between atoms: C_8  and  C_19
REMARK    7  A    between atoms: C_9  and  C_10
REMARK    8  A    between atoms: C_13  and  N_16
REMARK    9  A    between atoms: N_16  and  C_17
REMARK   10  A    between atoms: N_16  and  C_18
REMARK   11  A    between atoms: N_21  and  C_22
REMARK   12  A    between atoms: C_27  and  N_28
REMARK                            x       y       z     vdW  Elec       q    Type
REMARK                         _______ _______ _______ _____ _____    ______ ____
ROOT
ATOM      1  C   UNL     1       1.319  -2.288  -2.697  0.00  0.00    +0.097 C 
ATOM      2  C   UNL     1       1.489  -3.602  -2.975  0.00  0.00    +0.036 C 
ENDROOT
BRANCH   2   3
ATOM      3  C   UNL     1       2.411  -4.015  -4.041  0.00  0.00    -0.023 A 
ATOM      4  C   UNL     1       3.551  -3.250  -4.319  0.00  0.00    +0.010 A 
ATOM      5  C   UNL     1       4.412  -3.640  -5.318  0.00  0.00    +0.023 A 
ATOM      6  C   UNL     1       4.152  -4.793  -6.053  0.00  0.00    +0.029 A 
ATOM      7  C   UNL     1       3.020  -5.556  -5.782  0.00  0.00    +0.023 A 
ATOM      8  C   UNL     1       2.156  -5.177  -4.780  0.00  0.00    +0.010 A 
BRANCH   6   9
ATOM      9  N   UNL     1       5.027  -5.184  -7.064  0.00  0.00    -0.336 N 
ATOM     10  C   UNL     1       6.218  -4.383  -7.353  0.00  0.00    +0.129 C 
ATOM     11  C   UNL     1       4.755  -6.397  -7.839  0.00  0.00    +0.129 C 
ENDBRANCH   6   9
ENDBRANCH   2   3
BRANCH   1  14
ATOM     12  C   UNL     1       0.298  -0.593  -1.374  0.00  0.00    +0.223 C 
ATOM     13  O   UNL     1       0.808   0.250  -2.082  0.00  0.00    -0.275 OA
ATOM     14  N   UNL     1       0.550  -1.899  -1.594  0.00  0.00    -0.281 N 
ATOM     15  H   UNL     1       0.198  -2.569  -0.987  0.00  0.00    +0.155 HD
BRANCH  12  17
ATOM     16  C   UNL     1      -0.732   1.345  -0.220  0.00  0.00    +0.020 C 
ATOM     17  C   UNL     1      -0.617  -0.181  -0.250  0.00  0.00    +0.039 C 
ATOM     18  C   UNL     1      -0.046  -0.675   1.080  0.00  0.00    +0.020 C 
ATOM     19  C   UNL     1      -2.002  -0.792  -0.469  0.00  0.00    +0.020 C 
ENDBRANCH  12  17
ENDBRANCH   1  14
BRANCH   1  20
ATOM     20  C   UNL     1       1.940  -1.271  -3.554  0.00  0.00    +0.262 C 
ATOM     21  O   UNL     1       2.858  -0.595  -3.128  0.00  0.00    -0.268 OA
ATOM     22  N   UNL     1       1.494  -1.085  -4.812  0.00  0.00    -0.279 N 
ATOM     23  H   UNL     1       0.716  -1.571  -5.127  0.00  0.00    +0.155 HD
BRANCH  22  24
ATOM     24  C   UNL     1       2.153  -0.193  -5.663  0.00  0.00    +0.064 A 
ATOM     25  C   UNL     1       3.527  -0.018  -5.559  0.00  0.00    +0.025 A 
ATOM     26  C   UNL     1       4.175   0.864  -6.401  0.00  0.00    +0.002 A 
ATOM     27  C   UNL     1       3.457   1.573  -7.347  0.00  0.00    +0.002 A 
ATOM     28  C   UNL     1       2.090   1.401  -7.453  0.00  0.00    +0.034 A 
ATOM     29  C   UNL     1       1.436   0.516  -6.618  0.00  0.00    +0.147 A 
BRANCH  29  30
ATOM     30  N   UNL     1      -0.027   0.329  -6.736  0.00  0.00    +0.058 N 
ATOM     31  O   UNL     1      -0.635   0.868  -7.631  0.00  0.00    -0.126 OA
ATOM     32  O   UNL     1      -0.615  -0.363  -5.938  0.00  0.00    -0.126 OA
ENDBRANCH  29  30
ENDBRANCH  22  24
ENDBRANCH   1  20
TORSDOF 7
