REMARK  Name = ZINC35807993
REMARK  11 active torsions:
REMARK  status: ('A' for Active; 'I' for Inactive)
REMARK    1  A    between atoms: C_1  and  C_2
REMARK    2  A    between atoms: C_2  and  O_3
REMARK    3  A    between atoms: O_3  and  C_4
REMARK    4  A    between atoms: C_12  and  C_14
REMARK    5  A    between atoms: C_17  and  C_19
REMARK    6  A    between atoms: C_19  and  N_20
REMARK    7  A    between atoms: N_20  and  C_21
REMARK    8  A    between atoms: N_20  and  C_29
REMARK    9  A    between atoms: C_21  and  C_22
REMARK   10  A    between atoms: C_25  and  C_28
REMARK   11  A    between atoms: C_29  and  C_30
REMARK                            x       y       z     vdW  Elec       q    Type
REMARK                         _______ _______ _______ _____ _____    ______ ____
ROOT
ATOM      1  C   UNL     1      -3.895  -8.229  -0.325  0.00  0.00    -0.014 C 
ENDROOT
BRANCH   1   5
ATOM      2  C   UNL     1      -5.868  -5.158   0.378  0.00  0.00    +0.133 A 
ATOM      3  C   UNL     1      -6.940  -5.563  -0.372  0.00  0.00    +0.079 A 
ATOM      4  S   UNL     1      -6.437  -7.061  -0.942  0.00  0.00    -0.082 S 
ATOM      5  C   UNL     1      -4.919  -7.128  -0.229  0.00  0.00    +0.063 A 
ATOM      6  N   UNL     1      -4.831  -6.000   0.422  0.00  0.00    -0.241 NA
BRANCH   2  15
ATOM      7  C   UNL     1      -1.230  -1.592   2.274  0.00  0.00    +0.403 C 
ATOM      8  O   UNL     1      -1.228  -0.543   2.888  0.00  0.00    -0.226 OA
ATOM      9  N   UNL     1      -2.366  -2.035   1.701  0.00  0.00    -0.264 N 
ATOM     10  C   UNL     1      -2.385  -3.304   0.961  0.00  0.00    +0.130 C 
ATOM     11  C   UNL     1      -3.476  -4.202   1.556  0.00  0.00    +0.127 C 
ATOM     12  N   UNL     1      -4.719  -3.425   1.661  0.00  0.00    -0.293 N 
ATOM     13  C   UNL     1      -4.700  -2.156   2.401  0.00  0.00    +0.127 C 
ATOM     14  C   UNL     1      -3.610  -1.260   1.811  0.00  0.00    +0.130 C 
ATOM     15  C   UNL     1      -5.856  -3.868   1.088  0.00  0.00    +0.266 C 
ATOM     16  O   UNL     1      -6.871  -3.203   1.157  0.00  0.00    -0.268 OA
BRANCH   7  17
ATOM     17  O   UNL     1      -0.097  -2.311   2.167  0.00  0.00    -0.451 OA
BRANCH  17  19
ATOM     18  C   UNL     1       2.249  -2.730   2.570  0.00  0.00    +0.048 C 
ATOM     19  C   UNL     1       1.071  -1.782   2.799  0.00  0.00    +0.230 C 
ENDBRANCH  17  19
ENDBRANCH   7  17
ENDBRANCH   2  15
ENDBRANCH   1   5
BRANCH   1  20
ATOM     20  N   UNL     1      -4.112  -9.196   0.759  0.00  0.00    +0.389 N 
ATOM     21  H   UNL     1      -4.104  -8.715   1.646  0.00  0.00    -0.080 HD
BRANCH  20  22
ATOM     22  C   UNL     1      -3.044 -10.204   0.739  0.00  0.00    -0.042 C 
BRANCH  22  23
ATOM     23  C   UNL     1      -1.721  -9.538   1.018  0.00  0.00    -0.064 A 
ATOM     24  C   UNL     1      -0.934  -9.096  -0.029  0.00  0.00    +0.002 A 
ATOM     25  C   UNL     1       0.279  -8.486   0.228  0.00  0.00    +0.003 A 
ATOM     26  C   UNL     1       0.706  -8.317   1.532  0.00  0.00    -0.050 A 
ATOM     27  C   UNL     1      -0.081  -8.758   2.579  0.00  0.00    +0.003 A 
ATOM     28  C   UNL     1      -1.296  -9.365   2.323  0.00  0.00    +0.002 A 
ATOM     29  C   UNL     1       2.030  -7.653   1.811  0.00  0.00    +0.044 C 
ENDBRANCH  22  23
ENDBRANCH  20  22
BRANCH  20  30
ATOM     30  C   UNL     1      -5.411  -9.856   0.573  0.00  0.00    -0.042 C 
BRANCH  30  31
ATOM     31  C   UNL     1      -5.701 -10.739   1.760  0.00  0.00    -0.064 A 
ATOM     32  C   UNL     1      -5.351 -12.076   1.728  0.00  0.00    +0.004 A 
ATOM     33  C   UNL     1      -5.616 -12.886   2.816  0.00  0.00    +0.038 A 
ATOM     34  C   UNL     1      -6.232 -12.357   3.938  0.00  0.00    +0.123 A 
ATOM     35  C   UNL     1      -6.583 -11.018   3.968  0.00  0.00    +0.038 A 
ATOM     36  C   UNL     1      -6.312 -10.209   2.881  0.00  0.00    +0.004 A 
ATOM     37  F   UNL     1      -6.492 -13.149   5.002  0.00  0.00    -0.205 F 
ENDBRANCH  30  31
ENDBRANCH  20  30
ENDBRANCH   1  20
TORSDOF 9
