REMARK  Name = ZINC67466499
REMARK  8 active torsions:
REMARK  status: ('A' for Active; 'I' for Inactive)
REMARK    1  A    between atoms: C_1  and  C_2
REMARK    2  A    between atoms: C_2  and  C_4
REMARK    3  A    between atoms: C_2  and  N_10
REMARK    4  A    between atoms: C_13  and  N_16
REMARK    5  A    between atoms: C_17  and  C_19
REMARK    6  A    between atoms: C_20  and  C_21
REMARK    7  A    between atoms: C_24  and  S_27
REMARK    8  A    between atoms: S_27  and  N_30
REMARK                            x       y       z     vdW  Elec       q    Type
REMARK                         _______ _______ _______ _____ _____    ______ ____
ROOT
ATOM      1  N   UNL     1       0.161  -3.514  -3.077  0.00  0.00    -0.311 N 
ATOM      2  C   UNL     1       0.516  -4.252  -4.147  0.00  0.00    +0.237 C 
ATOM      3  O   UNL     1       1.475  -3.925  -4.821  0.00  0.00    -0.271 OA
ATOM      4  H   UNL     1      -0.603  -3.775  -2.540  0.00  0.00    +0.149 HD
ENDROOT
BRANCH   1   8
ATOM      5  N   UNL     1       0.690  -0.478  -1.207  0.00  0.00    +0.385 N 
ATOM      6  C   UNL     1      -0.079  -0.104  -2.422  0.00  0.00    -0.076 C 
ATOM      7  C   UNL     1       0.401  -1.094  -3.505  0.00  0.00    +0.002 C 
ATOM      8  C   UNL     1       0.928  -2.317  -2.726  0.00  0.00    +0.055 C 
ATOM      9  C   UNL     1       0.723  -1.963  -1.237  0.00  0.00    -0.056 C 
ATOM     10  H   UNL     1       1.625  -0.103  -1.250  0.00  0.00    -0.081 HD
BRANCH   5  12
ATOM     11  C   UNL     1      -0.019   1.526   0.010  0.00  0.00    -0.008 C 
ATOM     12  C   UNL     1       0.002  -0.004   0.002  0.00  0.00    -0.041 C 
BRANCH  12  13
ATOM     13  C   UNL     1       0.731  -0.503   1.223  0.00  0.00    -0.061 A 
ATOM     14  C   UNL     1       2.113  -0.514   1.247  0.00  0.00    +0.002 A 
ATOM     15  C   UNL     1       2.782  -0.972   2.366  0.00  0.00    +0.000 A 
ATOM     16  C   UNL     1       2.068  -1.419   3.463  0.00  0.00    +0.000 A 
ATOM     17  C   UNL     1       0.686  -1.407   3.439  0.00  0.00    +0.000 A 
ATOM     18  C   UNL     1       0.017  -0.945   2.321  0.00  0.00    +0.002 A 
ENDBRANCH  12  13
ENDBRANCH   5  12
ENDBRANCH   1   8
BRANCH   2  19
ATOM     19  C   UNL     1      -0.251  -5.449  -4.499  0.00  0.00    +0.068 C 
ATOM     20  C   UNL     1       0.105  -6.188  -5.569  0.00  0.00    +0.013 C 
BRANCH  20  21
ATOM     21  C   UNL     1      -0.666  -7.391  -5.922  0.00  0.00    -0.025 A 
ATOM     22  C   UNL     1      -1.772  -7.767  -5.153  0.00  0.00    +0.010 A 
ATOM     23  C   UNL     1      -2.490  -8.896  -5.490  0.00  0.00    +0.029 A 
ATOM     24  C   UNL     1      -2.118  -9.655  -6.586  0.00  0.00    +0.105 A 
ATOM     25  C   UNL     1      -1.025  -9.288  -7.352  0.00  0.00    +0.029 A 
ATOM     26  C   UNL     1      -0.301  -8.159  -7.031  0.00  0.00    +0.010 A 
BRANCH  24  27
ATOM     27  S   UNL     1      -3.041 -11.095  -7.009  0.00  0.00    +0.056 S 
ATOM     28  O   UNL     1      -2.166 -11.935  -7.750  0.00  0.00    -0.153 OA
ATOM     29  O   UNL     1      -3.685 -11.528  -5.819  0.00  0.00    -0.153 OA
BRANCH  27  30
ATOM     30  N   UNL     1      -4.238 -10.621  -8.050  0.00  0.00    -0.204 NA
ATOM     31  H   UNL     1      -4.568 -11.238  -8.722  0.00  0.00    +0.144 HD
ATOM     32  H   UNL     1      -4.609  -9.727  -7.989  0.00  0.00    +0.144 HD
ENDBRANCH  27  30
ENDBRANCH  24  27
ENDBRANCH  20  21
ENDBRANCH   2  19
TORSDOF 7
