REMARK  Name = ZINC09270317
REMARK  17 active torsions:
REMARK  status: ('A' for Active; 'I' for Inactive)
REMARK    1  A    between atoms: C_1  and  C_2
REMARK    2  A    between atoms: C_2  and  N_73
REMARK    3  A    between atoms: C_3  and  C_4
REMARK    4  A    between atoms: C_3  and  N_73
REMARK    5  A    between atoms: C_5  and  C_6
REMARK    6  A    between atoms: C_5  and  N_73
REMARK    7  A    between atoms: C_6  and  N_7
REMARK    8  A    between atoms: C_8  and  C_26
REMARK    9  A    between atoms: C_11  and  C_12
REMARK   10  A    between atoms: C_11  and  O_21
REMARK   11  A    between atoms: C_15  and  O_18
REMARK   12  A    between atoms: O_18  and  C_19
REMARK   13  A    between atoms: C_19  and  C_20
REMARK   14  A    between atoms: C_29  and  C_32
REMARK   15  A    between atoms: C_32  and  C_33
REMARK   16  A    between atoms: C_32  and  C_34
REMARK   17  A    between atoms: C_32  and  C_35
REMARK                            x       y       z     vdW  Elec       q    Type
REMARK                         _______ _______ _______ _____ _____    ______ ____
ROOT
ATOM      1  N   UNL     1      -1.915   5.711   0.244  0.00  0.00    -0.285 N 
ATOM      2  C   UNL     1      -2.394   4.329   0.152  0.00  0.00    +0.144 C 
ATOM      3  C   UNL     1      -1.173   3.459  -0.042  0.00  0.00    +0.071 C 
ATOM      4  C   UNL     1      -1.147   2.085  -0.176  0.00  0.00    +0.133 C 
ATOM      5  C   UNL     1      -0.074   4.330  -0.065  0.00  0.00    +0.249 C 
ATOM      6  O   UNL     1       1.091   4.005  -0.207  0.00  0.00    -0.282 OA
ATOM      7  C   UNL     1      -0.577   5.718   0.117  0.00  0.00    +0.288 C 
ATOM      8  O   UNL     1       0.119   6.713   0.145  0.00  0.00    -0.266 OA
ENDROOT
BRANCH   4   9
ATOM      9  C   UNL     1       0.132   1.392  -0.398  0.00  0.00    +0.017 A 
ATOM     10  C   UNL     1       0.958   1.766  -1.465  0.00  0.00    +0.015 A 
ATOM     11  C   UNL     1       2.151   1.112  -1.671  0.00  0.00    +0.046 A 
ATOM     12  C   UNL     1       2.536   0.080  -0.822  0.00  0.00    +0.121 A 
ATOM     13  C   UNL     1       1.720  -0.296   0.239  0.00  0.00    +0.046 A 
ATOM     14  C   UNL     1       0.525   0.353   0.455  0.00  0.00    +0.015 A 
BRANCH  12  15
ATOM     15  O   UNL     1       3.714  -0.562  -1.029  0.00  0.00    -0.492 OA
BRANCH  15  16
ATOM     16  C   UNL     1       4.504  -0.126  -2.137  0.00  0.00    +0.225 C 
ATOM     17  C   UNL     1       5.784  -0.961  -2.210  0.00  0.00    +0.048 C 
ENDBRANCH  15  16
ENDBRANCH  12  15
ENDBRANCH   4   9
BRANCH   2  18
ATOM     18  C   UNL     1      -3.104   3.946   1.425  0.00  0.00    -0.022 A 
ATOM     19  C   UNL     1      -2.615   4.375   2.645  0.00  0.00    +0.006 A 
ATOM     20  C   UNL     1      -3.268   4.028   3.812  0.00  0.00    +0.004 A 
ATOM     21  C   UNL     1      -4.405   3.243   3.761  0.00  0.00    -0.042 A 
ATOM     22  C   UNL     1      -4.891   2.809   2.541  0.00  0.00    +0.004 A 
ATOM     23  C   UNL     1      -4.240   3.161   1.373  0.00  0.00    +0.006 A 
BRANCH  21  24
ATOM     24  C   UNL     1      -5.115   2.860   5.034  0.00  0.00    -0.013 C 
ATOM     25  C   UNL     1      -5.138   1.336   5.166  0.00  0.00    +0.015 C 
ATOM     26  C   UNL     1      -4.378   3.465   6.230  0.00  0.00    +0.015 C 
ATOM     27  C   UNL     1      -6.550   3.391   4.998  0.00  0.00    +0.015 C 
ENDBRANCH  21  24
ENDBRANCH   2  18
BRANCH   4  28
ATOM     28  O   UNL     1      -2.294   1.377  -0.103  0.00  0.00    -0.506 OA
ATOM     29  H   UNL     1      -2.093   0.404  -0.220  0.00  0.00    +0.292 HD
ENDBRANCH   4  28
BRANCH   1  30
ATOM     30  C   UNL     1      -2.758   6.893   0.438  0.00  0.00    +0.090 C 
BRANCH  30  31
ATOM     31  C   UNL     1      -3.188   7.441  -0.924  0.00  0.00    -0.060 C 
BRANCH  31  32
ATOM     32  N   UNL     1      -4.054   8.620  -0.712  0.00  0.00    +0.380 N 
ATOM     33  H   UNL     1      -4.804   8.369  -0.057  0.00  0.00    -0.082 HD
BRANCH  32  35
ATOM     34  C   UNL     1      -2.165  10.165  -1.107  0.00  0.00    -0.017 C 
ATOM     35  C   UNL     1      -3.265   9.729  -0.137  0.00  0.00    -0.082 C 
ENDBRANCH  32  35
BRANCH  32  36
ATOM     36  C   UNL     1      -4.658   9.041  -1.994  0.00  0.00    -0.082 C 
ATOM     37  C   UNL     1      -5.802  10.014  -1.702  0.00  0.00    -0.017 C 
ENDBRANCH  32  36
ENDBRANCH  31  32
ENDBRANCH  30  31
ENDBRANCH   1  30
TORSDOF 11
