REMARK  Name = ZINC35454857
REMARK  13 active torsions:
REMARK  status: ('A' for Active; 'I' for Inactive)
REMARK    1  A    between atoms: C_1  and  C_2
REMARK    2  A    between atoms: C_5  and  O_28
REMARK    3  A    between atoms: C_7  and  C_26
REMARK    4  A    between atoms: C_7  and  C_27
REMARK    5  A    between atoms: C_12  and  C_24
REMARK    6  A    between atoms: C_12  and  O_25
REMARK    7  A    between atoms: C_13  and  C_15
REMARK    8  A    between atoms: C_15  and  C_16
REMARK    9  A    between atoms: C_16  and  C_17
REMARK   10  A    between atoms: C_17  and  C_19
REMARK   11  A    between atoms: C_19  and  C_21
REMARK   12  A    between atoms: C_19  and  O_23
REMARK   13  A    between atoms: C_21  and  O_22
REMARK                            x       y       z     vdW  Elec       q    Type
REMARK                         _______ _______ _______ _____ _____    ______ ____
ROOT
ATOM      1  C   UNL     1      -0.390   1.471   0.806  0.00  0.00    +0.012 C 
ATOM      2  C   UNL     1      -0.194  -0.051   0.632  0.00  0.00    -0.023 C 
ATOM      3  C   UNL     1       0.158  -0.323  -0.826  0.00  0.00    +0.010 C 
ATOM      4  C   UNL     1       1.472   0.377  -1.185  0.00  0.00    +0.032 C 
ATOM      5  C   UNL     1       2.604  -0.162  -0.322  0.00  0.00    +0.120 C 
ATOM      6  C   UNL     1       2.306  -0.037   1.167  0.00  0.00    -0.006 C 
ATOM      7  C   UNL     1       0.925  -0.553   1.542  0.00  0.00    +0.004 C 
ATOM      8  C   UNL     1       0.919  -2.086   1.535  0.00  0.00    +0.007 C 
ATOM      9  C   UNL     1      -0.404  -2.609   2.094  0.00  0.00    +0.035 C 
ATOM     10  C   UNL     1      -1.570  -2.153   1.225  0.00  0.00    +0.067 C 
ATOM     11  C   UNL     1      -1.542  -0.652   1.020  0.00  0.00    +0.027 C 
ATOM     12  C   UNL     1      -1.587  -2.908  -0.102  0.00  0.00    +0.041 C 
ATOM     13  C   UNL     1       3.391  -0.847   1.915  0.00  0.00    +0.014 C 
ATOM     14  C   UNL     1       2.517   1.417   1.614  0.00  0.00    +0.014 C 
ENDROOT
BRANCH  10  15
ATOM     15  O   UNL     1      -2.790  -2.484   1.925  0.00  0.00    -0.389 OA
ATOM     16  H   UNL     1      -2.897  -3.429   2.103  0.00  0.00    +0.210 HD
ENDBRANCH  10  15
BRANCH   5  17
ATOM     17  O   UNL     1       2.861  -1.529  -0.655  0.00  0.00    -0.391 OA
ATOM     18  H   UNL     1       3.120  -1.668  -1.576  0.00  0.00    +0.210 HD
ENDBRANCH   5  17
BRANCH  11  19
ATOM     19  C   UNL     1      -2.623  -0.243   0.014  0.00  0.00    +0.011 C 
BRANCH  19  20
ATOM     20  C   UNL     1      -3.985  -0.749   0.494  0.00  0.00    +0.033 C 
BRANCH  20  21
ATOM     21  C   UNL     1      -5.048  -0.347  -0.495  0.00  0.00    -0.046 C 
ATOM     22  C   UNL     1      -5.419  -1.182  -1.434  0.00  0.00    +0.010 C 
BRANCH  21  23
ATOM     23  C   UNL     1      -5.684   1.016  -0.404  0.00  0.00    +0.165 C 
BRANCH  23  24
ATOM     24  O   UNL     1      -4.668   2.019  -0.432  0.00  0.00    -0.385 OA
ATOM     25  H   UNL     1      -4.030   1.954   0.292  0.00  0.00    +0.210 HD
ENDBRANCH  23  24
BRANCH  23  26
ATOM     26  C   UNL     1      -6.472   1.125   0.903  0.00  0.00    +0.191 C 
BRANCH  26  27
ATOM     27  O   UNL     1      -7.170   2.371   0.936  0.00  0.00    -0.392 OA
ATOM     28  H   UNL     1      -7.692   2.509   1.738  0.00  0.00    +0.210 HD
ENDBRANCH  26  27
ENDBRANCH  23  26
ENDBRANCH  21  23
ENDBRANCH  20  21
ENDBRANCH  19  20
ENDBRANCH  11  19
TORSDOF 9
