REMARK  Name = ZINC00148901
REMARK  6 active torsions:
REMARK  status: ('A' for Active; 'I' for Inactive)
REMARK    1  A    between atoms: C_1  and  C_2
REMARK    2  A    between atoms: C_2  and  C_21
REMARK    3  A    between atoms: C_5  and  C_19
REMARK    4  A    between atoms: C_7  and  N_12
REMARK    5  A    between atoms: N_12  and  C_13
REMARK    6  A    between atoms: C_13  and  C_14
REMARK                            x       y       z     vdW  Elec       q    Type
REMARK                         _______ _______ _______ _____ _____    ______ ____
ROOT
ATOM      1  C   UNL     1      -0.762   2.029  -1.228  0.00  0.00    +0.011 C 
ATOM      2  C   UNL     1      -0.019   1.524   0.010  0.00  0.00    -0.024 C 
ATOM      3  C   UNL     1       1.413   2.065  -0.000  0.00  0.00    +0.044 C 
ATOM      4  C   UNL     1       2.139   1.506   1.220  0.00  0.00    -0.010 A 
ATOM      5  C   UNL     1       3.170   2.181   1.819  0.00  0.00    +0.094 A 
ATOM      6  S   UNL     1       3.635   1.119   3.168  0.00  0.00    -0.062 S 
ATOM      7  C   UNL     1       2.492  -0.156   2.919  0.00  0.00    +0.078 A 
ATOM      8  C   UNL     1       1.770   0.266   1.788  0.00  0.00    +0.050 A 
ATOM      9  C   UNL     1       0.708  -0.518   1.230  0.00  0.00    +0.166 C 
ATOM     10  O   UNL     1       0.383  -1.573   1.737  0.00  0.00    -0.292 OA
ATOM     11  C   UNL     1       0.002  -0.004   0.002  0.00  0.00    +0.086 C 
ATOM     12  C   UNL     1      -0.738   2.016   1.268  0.00  0.00    +0.011 C 
ENDROOT
BRANCH   7  13
ATOM     13  N   UNL     1       2.329  -1.307   3.651  0.00  0.00    -0.331 N 
ATOM     14  H   UNL     1       1.643  -1.947   3.403  0.00  0.00    +0.147 HD
BRANCH  13  15
ATOM     15  C   UNL     1       3.189  -1.567   4.808  0.00  0.00    +0.176 C 
BRANCH  15  16
ATOM     16  C   UNL     1       2.807  -2.885   5.431  0.00  0.00    +0.122 A 
ATOM     17  C   UNL     1       3.322  -4.086   5.110  0.00  0.00    +0.046 A 
ATOM     18  C   UNL     1       2.682  -5.040   5.936  0.00  0.00    +0.041 A 
ATOM     19  C   UNL     1       1.816  -4.364   6.712  0.00  0.00    +0.195 A 
ATOM     20  O   UNL     1       1.900  -3.059   6.406  0.00  0.00    -0.466 OA
ENDBRANCH  15  16
ENDBRANCH  13  15
ENDBRANCH   7  13
BRANCH   5  21
ATOM     21  C   UNL     1       3.739   3.442   1.447  0.00  0.00    +0.107 C 
ATOM     22  N   UNL     1       4.190   4.441   1.152  0.00  0.00    -0.190 NA
ENDBRANCH   5  21
TORSDOF 4
