REMARK  Name = ZINC06300642
REMARK  10 active torsions:
REMARK  status: ('A' for Active; 'I' for Inactive)
REMARK    1  A    between atoms: C_1  and  C_2
REMARK    2  A    between atoms: C_4  and  C_39
REMARK    3  A    between atoms: C_9  and  C_14
REMARK    4  A    between atoms: C_14  and  C_16
REMARK    5  A    between atoms: C_14  and  N_70
REMARK    6  A    between atoms: N_20  and  C_21
REMARK    7  A    between atoms: C_26  and  C_27
REMARK    8  A    between atoms: C_26  and  N_70
REMARK    9  A    between atoms: C_33  and  C_34
REMARK   10  A    between atoms: C_33  and  N_70
REMARK                            x       y       z     vdW  Elec       q    Type
REMARK                         _______ _______ _______ _____ _____    ______ ____
ROOT
ATOM      1  C   UNL     1      -1.704   4.066  -0.310  0.00  0.00    +0.040 C 
ENDROOT
BRANCH   1  10
ATOM      2  C   UNL     1       4.116   0.273  -3.023  0.00  0.00    +0.044 C 
ATOM      3  C   UNL     1       3.544   1.478  -2.320  0.00  0.00    -0.050 A 
ATOM      4  C   UNL     1       4.391   2.491  -1.893  0.00  0.00    +0.008 A 
ATOM      5  C   UNL     1       3.891   3.602  -1.249  0.00  0.00    -0.026 A 
ATOM      6  C   UNL     1       2.522   3.709  -1.022  0.00  0.00    +0.052 A 
ATOM      7  C   UNL     1       1.667   2.679  -1.456  0.00  0.00    -0.001 A 
ATOM      8  C   UNL     1       2.198   1.562  -2.108  0.00  0.00    +0.013 A 
ATOM      9  C   UNL     1       0.229   2.799  -1.207  0.00  0.00    +0.017 A 
ATOM     10  C   UNL     1      -0.229   3.909  -0.576  0.00  0.00    +0.011 A 
ATOM     11  C   UNL     1       0.672   4.913  -0.161  0.00  0.00    +0.251 A 
ATOM     12  O   UNL     1       0.239   5.899   0.410  0.00  0.00    -0.268 OA
ATOM     13  N   UNL     1       1.994   4.809  -0.380  0.00  0.00    -0.322 N 
ATOM     14  H   UNL     1       2.585   5.518  -0.082  0.00  0.00    +0.169 HD
ATOM     15  C   UNL     1       4.822   4.695  -0.791  0.00  0.00    +0.046 C 
ENDBRANCH   1  10
BRANCH   1  16
ATOM     16  C   UNL     1      -1.948   4.081   1.177  0.00  0.00    +0.143 A 
ATOM     17  N   UNL     1      -1.699   5.069   2.001  0.00  0.00    -0.115 NA
ATOM     18  N   UNL     1      -2.044   4.696   3.185  0.00  0.00    -0.023 NA
ATOM     19  N   UNL     1      -2.508   3.496   3.137  0.00  0.00    -0.044 NA
ATOM     20  N   UNL     1      -2.470   3.084   1.915  0.00  0.00    -0.227 N 
BRANCH  20  21
ATOM     21  C   UNL     1      -2.909   1.775   1.424  0.00  0.00    +0.111 C 
ATOM     22  C   UNL     1      -4.395   1.551   1.773  0.00  0.00    +0.027 C 
ATOM     23  C   UNL     1      -4.479   0.043   2.121  0.00  0.00    +0.002 C 
ATOM     24  C   UNL     1      -3.151  -0.208   2.877  0.00  0.00    +0.002 C 
ATOM     25  C   UNL     1      -2.118   0.657   2.125  0.00  0.00    +0.027 C 
ENDBRANCH  20  21
ENDBRANCH   1  16
BRANCH   1  26
ATOM     26  N   UNL     1      -2.164   5.350  -0.880  0.00  0.00    +0.397 N 
ATOM     27  H   UNL     1      -1.784   6.120  -0.317  0.00  0.00    -0.079 HD
BRANCH  26  28
ATOM     28  C   UNL     1      -1.680   5.488  -2.270  0.00  0.00    -0.041 C 
BRANCH  28  29
ATOM     29  C   UNL     1      -1.835   6.925  -2.696  0.00  0.00    -0.064 A 
ATOM     30  C   UNL     1      -2.992   7.337  -3.331  0.00  0.00    +0.002 A 
ATOM     31  C   UNL     1      -3.136   8.657  -3.717  0.00  0.00    +0.000 A 
ATOM     32  C   UNL     1      -2.119   9.562  -3.478  0.00  0.00    +0.000 A 
ATOM     33  C   UNL     1      -0.960   9.149  -2.849  0.00  0.00    +0.000 A 
ATOM     34  C   UNL     1      -0.818   7.830  -2.457  0.00  0.00    +0.002 A 
ENDBRANCH  28  29
ENDBRANCH  26  28
BRANCH  26  35
ATOM     35  C   UNL     1      -3.640   5.416  -0.850  0.00  0.00    -0.001 C 
BRANCH  35  36
ATOM     36  C   UNL     1      -4.078   5.789   0.543  0.00  0.00    +0.089 A 
ATOM     37  C   UNL     1      -4.122   7.036   1.046  0.00  0.00    +0.042 A 
ATOM     38  C   UNL     1      -4.588   6.924   2.376  0.00  0.00    +0.041 A 
ATOM     39  C   UNL     1      -4.801   5.616   2.606  0.00  0.00    +0.195 A 
ATOM     40  O   UNL     1      -4.496   4.934   1.490  0.00  0.00    -0.470 OA
ENDBRANCH  35  36
ENDBRANCH  26  35
ENDBRANCH   1  26
TORSDOF 8
