REMARK  Name = ZINC33033549
REMARK  16 active torsions:
REMARK  status: ('A' for Active; 'I' for Inactive)
REMARK    1  A    between atoms: C_1  and  C_2
REMARK    2  A    between atoms: C_2  and  O_3
REMARK    3  A    between atoms: O_3  and  C_4
REMARK    4  A    between atoms: C_7  and  S_10
REMARK    5  A    between atoms: S_10  and  N_13
REMARK    6  A    between atoms: N_13  and  C_14
REMARK    7  A    between atoms: C_16  and  C_26
REMARK    8  A    between atoms: C_19  and  N_20
REMARK    9  A    between atoms: N_28  and  C_29
REMARK   10  A    between atoms: N_28  and  C_33
REMARK   11  A    between atoms: C_29  and  C_30
REMARK   12  A    between atoms: C_30  and  C_31
REMARK   13  A    between atoms: C_30  and  C_32
REMARK   14  A    between atoms: C_33  and  C_34
REMARK   15  A    between atoms: C_34  and  C_35
REMARK   16  A    between atoms: C_34  and  C_36
REMARK                            x       y       z     vdW  Elec       q    Type
REMARK                         _______ _______ _______ _____ _____    ______ ____
ROOT
ATOM      1  C   UNL     1       4.744  -1.127   1.568  0.00  0.00    +0.070 A 
ATOM      2  C   UNL     1       3.686  -1.359   0.709  0.00  0.00    +0.039 A 
ATOM      3  C   UNL     1       2.641  -0.435   0.626  0.00  0.00    +0.039 A 
ATOM      4  C   UNL     1       2.671   0.723   1.408  0.00  0.00    +0.015 A 
ATOM      5  C   UNL     1       3.724   0.948   2.267  0.00  0.00    +0.026 A 
ATOM      6  C   UNL     1       4.765   0.030   2.351  0.00  0.00    +0.052 A 
ENDROOT
BRANCH   6   7
ATOM      7  N   UNL     1       5.831   0.264   3.217  0.00  0.00    -0.332 N 
ATOM      8  C   UNL     1       5.796   1.639   3.736  0.00  0.00    +0.086 C 
ATOM      9  C   UNL     1       7.023   1.880   4.618  0.00  0.00    -0.063 C 
ATOM     10  N   UNL     1       7.032   0.905   5.718  0.00  0.00    +0.381 N 
ATOM     11  C   UNL     1       7.067  -0.470   5.199  0.00  0.00    -0.063 C 
ATOM     12  C   UNL     1       5.840  -0.711   4.317  0.00  0.00    +0.086 C 
ATOM     13  H   UNL     1       7.920   1.069   6.346  0.00  0.00    -0.086 HD
ATOM     14  H   UNL     1       6.124   1.030   6.326  0.00  0.00    -0.086 HD
ENDBRANCH   6   7
BRANCH   3  15
ATOM     15  C   UNL     1       1.510  -0.678  -0.290  0.00  0.00    +0.247 C 
ATOM     16  O   UNL     1       1.181  -1.817  -0.560  0.00  0.00    -0.270 OA
ATOM     17  N   UNL     1       0.842   0.361  -0.827  0.00  0.00    -0.297 N 
BRANCH  17  18
ATOM     18  C   UNL     1      -0.181   0.126  -1.849  0.00  0.00    +0.111 C 
BRANCH  18  19
ATOM     19  C   UNL     1       0.446   0.261  -3.238  0.00  0.00    +0.000 C 
ATOM     20  C   UNL     1       1.489  -0.841  -3.437  0.00  0.00    +0.009 C 
ATOM     21  C   UNL     1      -0.644   0.130  -4.304  0.00  0.00    +0.009 C 
ENDBRANCH  18  19
ENDBRANCH  17  18
BRANCH  17  22
ATOM     22  C   UNL     1       1.138   1.728  -0.389  0.00  0.00    +0.111 C 
BRANCH  22  23
ATOM     23  C   UNL     1       0.117   2.158   0.666  0.00  0.00    +0.000 C 
ATOM     24  C   UNL     1       0.498   3.534   1.214  0.00  0.00    +0.009 C 
ATOM     25  C   UNL     1      -1.273   2.229   0.030  0.00  0.00    +0.009 C 
ENDBRANCH  22  23
ENDBRANCH  17  22
ENDBRANCH   3  15
BRANCH   1  26
ATOM     26  N   UNL     1       5.793  -2.051   1.653  0.00  0.00    -0.214 N 
ATOM     27  H   UNL     1       5.952  -2.618   2.583  0.00  0.00    +0.174 HD
BRANCH  26  28
ATOM     28  S   UNL     1       6.793  -2.290   0.356  0.00  0.00    +0.072 S 
ATOM     29  O   UNL     1       7.750  -3.263   0.755  0.00  0.00    -0.150 OA
ATOM     30  O   UNL     1       5.954  -2.467  -0.777  0.00  0.00    -0.150 OA
BRANCH  28  34
ATOM     31  C   UNL     1       9.070   1.567  -0.308  0.00  0.00    +0.121 A 
ATOM     32  C   UNL     1       9.587   0.592   0.533  0.00  0.00    +0.047 A 
ATOM     33  C   UNL     1       8.890  -0.584   0.734  0.00  0.00    +0.032 A 
ATOM     34  C   UNL     1       7.679  -0.789   0.098  0.00  0.00    +0.109 A 
ATOM     35  C   UNL     1       7.166   0.179  -0.745  0.00  0.00    +0.032 A 
ATOM     36  C   UNL     1       7.856   1.359  -0.944  0.00  0.00    +0.047 A 
BRANCH  31  37
ATOM     37  O   UNL     1       9.754   2.725  -0.506  0.00  0.00    -0.492 OA
BRANCH  37  39
ATOM     38  C   UNL     1      10.069   4.913  -1.483  0.00  0.00    +0.048 C 
ATOM     39  C   UNL     1       9.162   3.685  -1.385  0.00  0.00    +0.225 C 
ENDBRANCH  37  39
ENDBRANCH  31  37
ENDBRANCH  28  34
ENDBRANCH  26  28
ENDBRANCH   1  26
TORSDOF 11
