REMARK  Name = ZINC11290978
REMARK  12 active torsions:
REMARK  status: ('A' for Active; 'I' for Inactive)
REMARK    1  A    between atoms: C_1  and  C_2
REMARK    2  A    between atoms: C_4  and  C_29
REMARK    3  A    between atoms: C_6  and  N_13
REMARK    4  A    between atoms: C_14  and  C_16
REMARK    5  A    between atoms: C_16  and  N_57
REMARK    6  A    between atoms: C_17  and  N_57
REMARK    7  A    between atoms: C_18  and  C_19
REMARK    8  A    between atoms: C_18  and  N_57
REMARK    9  A    between atoms: C_22  and  C_25
REMARK   10  A    between atoms: C_25  and  C_26
REMARK   11  A    between atoms: C_25  and  C_27
REMARK   12  A    between atoms: C_25  and  C_28
REMARK                            x       y       z     vdW  Elec       q    Type
REMARK                         _______ _______ _______ _____ _____    ______ ____
ROOT
ATOM      1  N   UNL     1      -0.839   0.778  -4.788  0.00  0.00    -0.257 N 
ATOM      2  C   UNL     1      -1.114   1.262  -3.560  0.00  0.00    +0.203 C 
ATOM      3  O   UNL     1      -2.089   1.963  -3.389  0.00  0.00    -0.277 OA
ATOM      4  H   UNL     1      -0.060   0.216  -4.925  0.00  0.00    +0.158 HD
ENDROOT
BRANCH   1  10
ATOM      5  C   UNL     1      -3.852   1.516 -10.164  0.00  0.00    +0.068 C 
ATOM      6  C   UNL     1      -2.723   0.950  -9.341  0.00  0.00    +0.070 A 
ATOM      7  C   UNL     1      -2.639   1.241  -7.907  0.00  0.00    +0.053 A 
ATOM      8  C   UNL     1      -3.357   1.945  -7.007  0.00  0.00    +0.114 A 
ATOM      9  O   UNL     1      -2.776   1.838  -5.798  0.00  0.00    -0.445 OA
ATOM     10  C   UNL     1      -1.669   1.082  -5.853  0.00  0.00    +0.206 A 
ATOM     11  C   UNL     1      -1.505   0.657  -7.149  0.00  0.00    +0.110 A 
ATOM     12  C   UNL     1      -0.552  -0.166  -7.888  0.00  0.00    +0.277 A 
ATOM     13  O   UNL     1       0.399  -0.674  -7.321  0.00  0.00    -0.266 OA
ATOM     14  N   UNL     1      -0.747  -0.355  -9.210  0.00  0.00    -0.242 N 
ATOM     15  H   UNL     1      -0.113  -0.902  -9.699  0.00  0.00    +0.192 HD
ATOM     16  N   UNL     1      -1.820   0.204  -9.900  0.00  0.00    -0.175 NA
ATOM     17  C   UNL     1      -4.613   2.722  -7.308  0.00  0.00    +0.087 C 
ENDBRANCH   1  10
BRANCH   2  18
ATOM     18  C   UNL     1      -0.211   0.930  -2.400  0.00  0.00    +0.019 C 
BRANCH  18  20
ATOM     19  C   UNL     1      -0.640   3.036  -1.283  0.00  0.00    -0.095 C 
ATOM     20  N   UNL     1      -0.751   1.565  -1.179  0.00  0.00    +0.386 N 
ATOM     21  H   UNL     1      -1.741   1.312  -1.081  0.00  0.00    -0.081 HD
BRANCH  20  22
ATOM     22  C   UNL     1      -0.013   1.086   0.008  0.00  0.00    -0.043 C 
BRANCH  22  23
ATOM     23  C   UNL     1      -0.718   1.572   1.248  0.00  0.00    -0.064 A 
ATOM     24  C   UNL     1      -0.360   2.779   1.819  0.00  0.00    +0.002 A 
ATOM     25  C   UNL     1      -1.010   3.227   2.953  0.00  0.00    +0.004 A 
ATOM     26  C   UNL     1      -2.012   2.463   3.523  0.00  0.00    -0.042 A 
ATOM     27  C   UNL     1      -2.366   1.254   2.955  0.00  0.00    +0.004 A 
ATOM     28  C   UNL     1      -1.719   0.808   1.818  0.00  0.00    +0.002 A 
BRANCH  26  29
ATOM     29  C   UNL     1      -2.717   2.949   4.763  0.00  0.00    -0.013 C 
ATOM     30  C   UNL     1      -2.517   1.937   5.893  0.00  0.00    +0.015 C 
ATOM     31  C   UNL     1      -2.138   4.302   5.182  0.00  0.00    +0.015 C 
ATOM     32  C   UNL     1      -4.212   3.101   4.473  0.00  0.00    +0.015 C 
ENDBRANCH  26  29
ENDBRANCH  22  23
ENDBRANCH  20  22
ENDBRANCH  18  20
ENDBRANCH   2  18
TORSDOF 6
