REMARK  Name = ZINC29893114
REMARK  7 active torsions:
REMARK  status: ('A' for Active; 'I' for Inactive)
REMARK    1  A    between atoms: C_1  and  C_2
REMARK    2  A    between atoms: C_4  and  C_31
REMARK    3  A    between atoms: C_6  and  N_8
REMARK    4  A    between atoms: C_12  and  S_13
REMARK    5  A    between atoms: S_13  and  C_14
REMARK    6  A    between atoms: C_14  and  C_15
REMARK    7  A    between atoms: C_19  and  C_28
REMARK                            x       y       z     vdW  Elec       q    Type
REMARK                         _______ _______ _______ _____ _____    ______ ____
ROOT
ATOM      1  C   UNL     1      -0.742   1.585  -1.213  0.00  0.00    +0.230 C 
ATOM      2  O   UNL     1      -1.778   2.203  -1.090  0.00  0.00    -0.274 OA
ATOM      3  N   UNL     1      -0.234   1.358  -2.441  0.00  0.00    -0.264 N 
ATOM      4  C   UNL     1       0.976   0.538  -2.626  0.00  0.00    +0.168 C 
ATOM      5  C   UNL     1       1.852   1.227  -3.676  0.00  0.00    +0.276 C 
ATOM      6  O   UNL     1       1.102   1.367  -4.885  0.00  0.00    -0.476 OA
ATOM      7  C   UNL     1      -0.147   1.896  -4.798  0.00  0.00    +0.143 A 
ATOM      8  C   UNL     1      -0.837   1.901  -3.588  0.00  0.00    +0.078 A 
ATOM      9  C   UNL     1      -2.111   2.438  -3.516  0.00  0.00    +0.027 A 
ATOM     10  C   UNL     1      -2.699   2.973  -4.648  0.00  0.00    +0.002 A 
ATOM     11  C   UNL     1      -2.016   2.972  -5.849  0.00  0.00    +0.004 A 
ATOM     12  C   UNL     1      -0.744   2.436  -5.928  0.00  0.00    +0.047 A 
ENDROOT
BRANCH   5  13
ATOM     13  C   UNL     1       3.082   0.397  -3.938  0.00  0.00    +0.253 C 
ATOM     14  O   UNL     1       3.251  -0.110  -5.027  0.00  0.00    -0.272 OA
ATOM     15  N   UNL     1       3.993   0.217  -2.962  0.00  0.00    -0.326 N 
ATOM     16  H   UNL     1       4.891  -0.390  -3.153  0.00  0.00    +0.145 HD
ATOM     17  H   UNL     1       3.840   0.676  -1.974  0.00  0.00    +0.145 HD
ENDBRANCH   5  13
BRANCH   1  18
ATOM     18  C   UNL     1      -0.022   1.071   0.007  0.00  0.00    +0.173 C 
BRANCH  18  19
ATOM     19  S   UNL     1      -0.865   1.657   1.497  0.00  0.00    -0.078 S 
BRANCH  19  24
ATOM     20  N   UNL     1      -0.016   1.044   4.082  0.00  0.00    -0.295 N 
ATOM     21  C   UNL     1       0.997   0.325   4.680  0.00  0.00    +0.113 A 
ATOM     22  C   UNL     1       1.744  -0.196   3.691  0.00  0.00    +0.131 A 
ATOM     23  N   UNL     1       1.212   0.179   2.515  0.00  0.00    -0.230 NA
ATOM     24  C   UNL     1       0.157   0.929   2.734  0.00  0.00    +0.174 A 
BRANCH  20  30
ATOM     25  C   UNL     1      -2.588   5.199   4.642  0.00  0.00    +0.044 C 
ATOM     26  C   UNL     1      -2.299   3.771   5.026  0.00  0.00    -0.048 A 
ATOM     27  C   UNL     1      -3.036   3.161   6.025  0.00  0.00    +0.006 A 
ATOM     28  C   UNL     1      -2.773   1.851   6.381  0.00  0.00    -0.048 A 
ATOM     29  C   UNL     1      -1.774   1.147   5.739  0.00  0.00    +0.029 A 
ATOM     30  C   UNL     1      -1.032   1.756   4.735  0.00  0.00    +0.049 A 
ATOM     31  C   UNL     1      -1.294   3.073   4.384  0.00  0.00    +0.029 A 
ATOM     32  C   UNL     1      -3.579   1.191   7.469  0.00  0.00    +0.044 C 
ENDBRANCH  20  30
ENDBRANCH  19  24
ENDBRANCH  18  19
ENDBRANCH   1  18
TORSDOF 5
