REMARK  Name = ZINC09782072
REMARK  11 active torsions:
REMARK  status: ('A' for Active; 'I' for Inactive)
REMARK    1  A    between atoms: C_1  and  C_2
REMARK    2  A    between atoms: C_2  and  C_3
REMARK    3  A    between atoms: C_3  and  C_35
REMARK    4  A    between atoms: N_6  and  C_10
REMARK    5  A    between atoms: C_10  and  C_11
REMARK    6  A    between atoms: N_13  and  C_14
REMARK    7  A    between atoms: C_14  and  C_15
REMARK    8  A    between atoms: C_15  and  C_17
REMARK    9  A    between atoms: C_15  and  C_25
REMARK   10  A    between atoms: C_20  and  O_23
REMARK   11  A    between atoms: O_23  and  C_24
REMARK                            x       y       z     vdW  Elec       q    Type
REMARK                         _______ _______ _______ _____ _____    ______ ____
ROOT
ATOM      1  C   UNL     1      -3.626   2.095   0.031  0.00  0.00    +0.068 C 
ENDROOT
BRANCH   1   2
ATOM      2  C   UNL     1      -3.622   2.871   1.323  0.00  0.00    -0.013 A 
ATOM      3  C   UNL     1      -3.718   2.361   2.561  0.00  0.00    +0.088 A 
ATOM      4  N   UNL     1      -3.679   3.369   3.485  0.00  0.00    -0.360 N 
ATOM      5  H   UNL     1      -3.732   3.247   4.446  0.00  0.00    +0.165 HD
ATOM      6  C   UNL     1      -3.553   4.583   2.848  0.00  0.00    +0.047 A 
ATOM      7  C   UNL     1      -3.505   4.324   1.466  0.00  0.00    +0.003 A 
ATOM      8  C   UNL     1      -3.384   5.382   0.563  0.00  0.00    +0.010 A 
ATOM      9  C   UNL     1      -3.302   6.665   1.027  0.00  0.00    +0.001 A 
ATOM     10  C   UNL     1      -3.342   6.925   2.390  0.00  0.00    +0.002 A 
ATOM     11  C   UNL     1      -3.466   5.897   3.298  0.00  0.00    +0.026 A 
ENDBRANCH   1   2
BRANCH   1  12
ATOM     12  C   UNL     1      -4.917   1.329  -0.091  0.00  0.00    -0.038 A 
ATOM     13  C   UNL     1      -5.252   0.385   0.862  0.00  0.00    +0.008 A 
ATOM     14  C   UNL     1      -6.439  -0.315   0.755  0.00  0.00    +0.046 A 
ATOM     15  C   UNL     1      -7.289  -0.078  -0.315  0.00  0.00    +0.120 A 
ATOM     16  C   UNL     1      -6.948   0.866  -1.273  0.00  0.00    +0.046 A 
ATOM     17  C   UNL     1      -5.763   1.567  -1.159  0.00  0.00    +0.008 A 
BRANCH  15  18
ATOM     18  O   UNL     1      -8.453  -0.770  -0.426  0.00  0.00    -0.495 OA
ATOM     19  C   UNL     1      -8.739  -1.726   0.597  0.00  0.00    +0.277 C 
ENDBRANCH  15  18
ENDBRANCH   1  12
BRANCH   1  20
ATOM     20  C   UNL     1      -2.449   1.117   0.020  0.00  0.00    +0.117 C 
BRANCH  20  23
ATOM     21  C   UNL     1      -0.014   1.209   0.009  0.00  0.00    +0.231 C 
ATOM     22  O   UNL     1       0.002  -0.004   0.002  0.00  0.00    -0.274 OA
ATOM     23  N   UNL     1      -1.191   1.867   0.018  0.00  0.00    -0.313 N 
ATOM     24  H   UNL     1      -1.204   2.837   0.023  0.00  0.00    +0.149 HD
BRANCH  21  25
ATOM     25  C   UNL     1       1.280   1.980   0.001  0.00  0.00    +0.213 C 
BRANCH  25  29
ATOM     26  C   UNL     1       4.101  -0.363   0.595  0.00  0.00    +0.110 C 
ATOM     27  C   UNL     1       3.003   0.557   1.091  0.00  0.00    +0.247 C 
ATOM     28  O   UNL     1       2.719   0.803   2.244  0.00  0.00    -0.273 OA
ATOM     29  N   UNL     1       2.407   1.043  -0.015  0.00  0.00    -0.215 N 
ATOM     30  C   UNL     1       2.974   0.569  -1.130  0.00  0.00    +0.310 C 
ATOM     31  O   UNL     1       2.612   0.867  -2.252  0.00  0.00    -0.252 OA
ATOM     32  N   UNL     1       3.990  -0.274  -0.871  0.00  0.00    -0.285 N 
ATOM     33  C   UNL     1       3.861  -1.798   1.068  0.00  0.00    +0.041 C 
ATOM     34  H   UNL     1       4.542  -0.734  -1.523  0.00  0.00    +0.151 HD
BRANCH  26  36
ATOM     35  C   UNL     1       6.569  -0.667   0.362  0.00  0.00    +0.006 C 
ATOM     36  C   UNL     1       5.470   0.134   1.062  0.00  0.00    +0.031 C 
ENDBRANCH  26  36
ENDBRANCH  25  29
ENDBRANCH  21  25
ENDBRANCH  20  23
ENDBRANCH   1  20
TORSDOF 8
