REMARK  Name = ZINC06301349
REMARK  15 active torsions:
REMARK  status: ('A' for Active; 'I' for Inactive)
REMARK    1  A    between atoms: C_1  and  C_2
REMARK    2  A    between atoms: C_4  and  C_40
REMARK    3  A    between atoms: C_7  and  C_14
REMARK    4  A    between atoms: C_14  and  N_75
REMARK    5  A    between atoms: C_15  and  C_16
REMARK    6  A    between atoms: C_15  and  N_75
REMARK    7  A    between atoms: C_16  and  C_17
REMARK    8  A    between atoms: C_20  and  O_25
REMARK    9  A    between atoms: C_21  and  O_23
REMARK   10  A    between atoms: O_23  and  C_24
REMARK   11  A    between atoms: O_25  and  C_26
REMARK   12  A    between atoms: C_27  and  C_28
REMARK   13  A    between atoms: C_27  and  N_75
REMARK   14  A    between atoms: N_32  and  C_33
REMARK   15  A    between atoms: C_33  and  C_34
REMARK                            x       y       z     vdW  Elec       q    Type
REMARK                         _______ _______ _______ _____ _____    ______ ____
ROOT
ATOM      1  N   UNL     1      -0.932   1.590  -0.963  0.00  0.00    +0.387 N 
ATOM      2  H   UNL     1      -1.944   1.477  -0.827  0.00  0.00    -0.081 HD
ENDROOT
BRANCH   1   3
ATOM      3  C   UNL     1      -0.236   1.225   0.289  0.00  0.00    -0.037 C 
BRANCH   3  10
ATOM      4  C   UNL     1      -4.082   4.480   6.472  0.00  0.00    +0.044 C 
ATOM      5  C   UNL     1      -3.492   3.679   5.340  0.00  0.00    -0.048 A 
ATOM      6  C   UNL     1      -3.967   2.400   5.083  0.00  0.00    +0.007 A 
ATOM      7  C   UNL     1      -3.445   1.657   4.062  0.00  0.00    -0.041 A 
ATOM      8  C   UNL     1      -2.424   2.190   3.268  0.00  0.00    +0.002 A 
ATOM      9  C   UNL     1      -1.843   1.421   2.166  0.00  0.00    +0.017 A 
ATOM     10  C   UNL     1      -0.856   1.989   1.430  0.00  0.00    +0.001 A 
ATOM     11  C   UNL     1      -0.402   3.291   1.734  0.00  0.00    +0.251 A 
ATOM     12  O   UNL     1       0.490   3.780   1.063  0.00  0.00    -0.268 OA
ATOM     13  N   UNL     1      -0.934   4.006   2.740  0.00  0.00    -0.322 N 
ATOM     14  H   UNL     1      -0.601   4.900   2.919  0.00  0.00    +0.169 HD
ATOM     15  C   UNL     1      -1.941   3.486   3.525  0.00  0.00    +0.050 A 
ATOM     16  C   UNL     1      -2.487   4.224   4.571  0.00  0.00    +0.029 A 
ATOM     17  C   UNL     1      -3.968   0.270   3.792  0.00  0.00    +0.044 C 
ENDBRANCH   3  10
ENDBRANCH   1   3
BRANCH   1  18
ATOM     18  C   UNL     1      -0.494   0.703  -2.061  0.00  0.00    -0.073 C 
BRANCH  18  19
ATOM     19  C   UNL     1      -1.193  -0.649  -1.907  0.00  0.00    +0.017 C 
BRANCH  19  20
ATOM     20  C   UNL     1      -0.865  -1.522  -3.092  0.00  0.00    -0.045 A 
ATOM     21  C   UNL     1      -1.675  -1.497  -4.212  0.00  0.00    +0.007 A 
ATOM     22  C   UNL     1      -1.376  -2.290  -5.303  0.00  0.00    +0.049 A 
ATOM     23  C   UNL     1      -0.268  -3.122  -5.272  0.00  0.00    +0.161 A 
ATOM     24  C   UNL     1       0.545  -3.151  -4.143  0.00  0.00    +0.162 A 
ATOM     25  C   UNL     1       0.242  -2.349  -3.054  0.00  0.00    +0.053 A 
BRANCH  24  26
ATOM     26  O   UNL     1       1.633  -3.965  -4.107  0.00  0.00    -0.491 OA
ATOM     27  C   UNL     1       2.422  -3.943  -2.916  0.00  0.00    +0.277 C 
ENDBRANCH  24  26
BRANCH  23  28
ATOM     28  O   UNL     1       0.025  -3.908  -6.343  0.00  0.00    -0.491 OA
ATOM     29  C   UNL     1      -0.853  -3.826  -7.467  0.00  0.00    +0.277 C 
ENDBRANCH  23  28
ENDBRANCH  19  20
ENDBRANCH  18  19
ENDBRANCH   1  18
BRANCH   1  30
ATOM     30  C   UNL     1      -0.648   2.999  -1.307  0.00  0.00    +0.001 C 
BRANCH  30  31
ATOM     31  C   UNL     1      -1.464   3.380  -2.515  0.00  0.00    +0.135 A 
ATOM     32  N   UNL     1      -1.058   3.390  -3.762  0.00  0.00    -0.115 NA
ATOM     33  N   UNL     1      -2.045   3.770  -4.498  0.00  0.00    -0.023 NA
ATOM     34  N   UNL     1      -3.067   4.010  -3.753  0.00  0.00    -0.044 NA
ATOM     35  N   UNL     1      -2.748   3.781  -2.523  0.00  0.00    -0.229 N 
BRANCH  35  36
ATOM     36  C   UNL     1      -3.621   3.930  -1.356  0.00  0.00    +0.178 C 
BRANCH  36  37
ATOM     37  C   UNL     1      -3.498   5.352  -0.806  0.00  0.00    +0.140 C 
ATOM     38  C   UNL     1      -4.324   5.485   0.491  0.00  0.00    +0.035 C 
ATOM     39  C   UNL     1      -4.936   6.906   0.348  0.00  0.00    +0.031 C 
ATOM     40  C   UNL     1      -5.148   6.981  -1.185  0.00  0.00    +0.160 C 
ATOM     41  O   UNL     1      -4.026   6.288  -1.753  0.00  0.00    -0.375 OA
ENDBRANCH  36  37
ENDBRANCH  35  36
ENDBRANCH  30  31
ENDBRANCH   1  30
TORSDOF 11
