REMARK  Name = ZINC09076001
REMARK  10 active torsions:
REMARK  status: ('A' for Active; 'I' for Inactive)
REMARK    1  A    between atoms: C_1  and  C_2
REMARK    2  A    between atoms: C_5  and  C_8
REMARK    3  A    between atoms: C_11  and  S_19
REMARK    4  A    between atoms: N_12  and  C_13
REMARK    5  A    between atoms: S_19  and  C_20
REMARK    6  A    between atoms: C_20  and  C_21
REMARK    7  A    between atoms: N_23  and  N_24
REMARK    8  A    between atoms: C_25  and  C_26
REMARK    9  A    between atoms: C_25  and  C_27
REMARK   10  A    between atoms: C_32  and  O_33
REMARK                            x       y       z     vdW  Elec       q    Type
REMARK                         _______ _______ _______ _____ _____    ______ ____
ROOT
ATOM      1  C   UNL     1       0.065  -4.251  -0.024  0.00  0.00    +0.165 A 
ATOM      2  N   UNL     1      -0.289  -5.030  -1.019  0.00  0.00    -0.128 NA
ATOM      3  N   UNL     1      -0.155  -6.263  -0.680  0.00  0.00    -0.122 NA
ATOM      4  C   UNL     1       0.292  -6.346   0.553  0.00  0.00    +0.193 A 
ATOM      5  N   UNL     1       0.453  -5.070   1.012  0.00  0.00    -0.299 N 
ENDROOT
BRANCH   1  10
ATOM      6  C   UNL     1       0.025   1.503  -0.006  0.00  0.00    +0.044 C 
ATOM      7  C   UNL     1       0.035  -0.004  -0.011  0.00  0.00    -0.050 A 
ATOM      8  C   UNL     1       0.984  -0.688   0.729  0.00  0.00    +0.004 A 
ATOM      9  C   UNL     1       0.999  -2.068   0.729  0.00  0.00    +0.012 A 
ATOM     10  C   UNL     1       0.054  -2.773  -0.019  0.00  0.00    +0.019 A 
ATOM     11  C   UNL     1      -0.900  -2.076  -0.762  0.00  0.00    +0.012 A 
ATOM     12  C   UNL     1      -0.907  -0.697  -0.750  0.00  0.00    +0.004 A 
ENDBRANCH   1  10
BRANCH   5  13
ATOM     13  C   UNL     1       0.934  -4.658   2.333  0.00  0.00    +0.091 C 
ATOM     14  C   UNL     1       2.396  -5.081   2.497  0.00  0.00    +0.025 C 
ATOM     15  C   UNL     1       2.899  -4.651   3.877  0.00  0.00    +0.002 C 
ATOM     16  C   UNL     1       2.050  -5.319   4.960  0.00  0.00    +0.000 C 
ATOM     17  C   UNL     1       0.589  -4.895   4.796  0.00  0.00    +0.002 C 
ATOM     18  C   UNL     1       0.085  -5.325   3.416  0.00  0.00    +0.025 C 
ENDBRANCH   5  13
BRANCH   4  19
ATOM     19  S   UNL     1       0.628  -7.827   1.446  0.00  0.00    -0.077 S 
BRANCH  19  20
ATOM     20  C   UNL     1       0.216  -9.149   0.273  0.00  0.00    +0.174 C 
BRANCH  20  21
ATOM     21  C   UNL     1       0.461 -10.488   0.919  0.00  0.00    +0.242 C 
ATOM     22  O   UNL     1       0.874 -10.545   2.059  0.00  0.00    -0.273 OA
ATOM     23  N   UNL     1       0.222 -11.622   0.231  0.00  0.00    -0.206 N 
ATOM     24  H   UNL     1      -0.108 -11.576  -0.680  0.00  0.00    +0.177 HD
BRANCH  23  25
ATOM     25  N   UNL     1       0.450 -12.867   0.832  0.00  0.00    -0.184 NA
ATOM     26  C   UNL     1       0.220 -13.959   0.170  0.00  0.00    +0.067 C 
ATOM     27  C   UNL     1      -0.292 -13.888  -1.246  0.00  0.00    +0.068 C 
BRANCH  26  28
ATOM     28  C   UNL     1       0.460 -15.269   0.801  0.00  0.00    +0.039 A 
ATOM     29  C   UNL     1       0.220 -16.447   0.090  0.00  0.00    +0.013 A 
ATOM     30  C   UNL     1       0.447 -17.669   0.687  0.00  0.00    +0.001 A 
ATOM     31  C   UNL     1       0.912 -17.734   1.989  0.00  0.00    +0.004 A 
ATOM     32  C   UNL     1       1.154 -16.576   2.704  0.00  0.00    +0.046 A 
ATOM     33  C   UNL     1       0.937 -15.340   2.118  0.00  0.00    +0.126 A 
BRANCH  33  34
ATOM     34  O   UNL     1       1.179 -14.201   2.817  0.00  0.00    -0.506 OA
ATOM     35  H   UNL     1       0.419 -13.879   3.320  0.00  0.00    +0.292 HD
ENDBRANCH  33  34
ENDBRANCH  26  28
ENDBRANCH  23  25
ENDBRANCH  20  21
ENDBRANCH  19  20
ENDBRANCH   4  19
TORSDOF 8
