REMARK  Name = ZINC20594226
REMARK  5 active torsions:
REMARK  status: ('A' for Active; 'I' for Inactive)
REMARK    1  A    between atoms: C_1  and  C_2
REMARK    2  A    between atoms: C_4  and  C_8
REMARK    3  A    between atoms: C_5  and  C_7
REMARK    4  A    between atoms: C_16  and  C_18
REMARK    5  A    between atoms: C_18  and  C_20
REMARK                            x       y       z     vdW  Elec       q    Type
REMARK                         _______ _______ _______ _____ _____    ______ ____
ROOT
ATOM      1  C   UNL     1      -2.094   4.016   3.642  0.00  0.00    +0.007 A 
ATOM      2  C   UNL     1      -3.037   4.853   3.149  0.00  0.00    +0.056 A 
ATOM      3  S   UNL     1      -3.229   6.067   4.440  0.00  0.00    -0.078 S 
ATOM      4  C   UNL     1      -2.049   5.428   5.601  0.00  0.00    +0.092 A 
ATOM      5  C   UNL     1      -1.539   4.285   4.962  0.00  0.00    +0.080 A 
ATOM      6  C   UNL     1      -0.540   3.563   5.690  0.00  0.00    +0.282 A 
ATOM      7  O   UNL     1      -0.035   2.559   5.217  0.00  0.00    -0.265 OA
ATOM      8  N   UNL     1      -0.172   4.005   6.907  0.00  0.00    -0.194 NA
ATOM      9  C   UNL     1      -0.725   5.120   7.450  0.00  0.00    +0.129 A 
ATOM     10  N   UNL     1      -1.635   5.803   6.809  0.00  0.00    -0.336 N 
ATOM     11  H   UNL     1      -2.059   6.701   7.282  0.00  0.00    +0.168 HD
ENDROOT
BRANCH   1  15
ATOM     12  C   UNL     1      -0.013   1.086   0.008  0.00  0.00    +0.086 C 
ATOM     13  C   UNL     1      -0.718   1.572   1.248  0.00  0.00    +0.103 A 
ATOM     14  C   UNL     1      -0.913   2.859   1.581  0.00  0.00    +0.053 A 
ATOM     15  C   UNL     1      -1.639   2.843   2.856  0.00  0.00    +0.024 A 
ATOM     16  C   UNL     1      -1.803   1.532   3.171  0.00  0.00    +0.110 A 
ATOM     17  O   UNL     1      -1.247   0.789   2.200  0.00  0.00    -0.465 OA
ATOM     18  C   UNL     1      -2.492   1.001   4.401  0.00  0.00    +0.087 C 
ENDBRANCH   1  15
BRANCH   9  19
ATOM     19  C   UNL     1      -0.282   5.576   8.816  0.00  0.00    +0.143 C 
ATOM     20  C   UNL     1      -1.239   5.024   9.874  0.00  0.00    +0.033 C 
ATOM     21 CL   UNL     1       1.385   4.971   9.140  0.00  0.00    -0.114 Cl
ENDBRANCH   9  19
TORSDOF 2
