REMARK  Name = ZINC12568503
REMARK  9 active torsions:
REMARK  status: ('A' for Active; 'I' for Inactive)
REMARK    1  A    between atoms: C_1  and  C_2
REMARK    2  A    between atoms: C_2  and  C_3
REMARK    3  A    between atoms: N_11  and  C_15
REMARK    4  A    between atoms: C_15  and  C_16
REMARK    5  A    between atoms: N_18  and  C_19
REMARK    6  A    between atoms: C_24  and  C_25
REMARK    7  A    between atoms: N_27  and  C_28
REMARK    8  A    between atoms: C_28  and  C_30
REMARK    9  A    between atoms: C_28  and  C_31
REMARK                            x       y       z     vdW  Elec       q    Type
REMARK                         _______ _______ _______ _____ _____    ______ ____
ROOT
ATOM      1  C   UNL     1      -1.650   2.442   1.437  0.00  0.00    +0.235 C 
ATOM      2  O   UNL     1      -0.992   1.990   2.350  0.00  0.00    -0.274 OA
ATOM      3  N   UNL     1      -2.756   3.167   1.698  0.00  0.00    -0.284 N 
ATOM      4  H   UNL     1      -3.246   3.583   0.971  0.00  0.00    +0.155 HD
ENDROOT
BRANCH   3   5
ATOM      5  C   UNL     1      -3.196   3.319   3.011  0.00  0.00    +0.046 A 
ATOM      6  C   UNL     1      -2.277   3.418   4.047  0.00  0.00    +0.024 A 
ATOM      7  C   UNL     1      -2.715   3.573   5.347  0.00  0.00    +0.002 A 
ATOM      8  C   UNL     1      -4.071   3.622   5.629  0.00  0.00    +0.001 A 
ATOM      9  C   UNL     1      -4.997   3.520   4.614  0.00  0.00    +0.015 A 
ATOM     10  C   UNL     1      -4.569   3.368   3.293  0.00  0.00    +0.058 A 
BRANCH  10  11
ATOM     11  C   UNL     1      -5.555   3.257   2.201  0.00  0.00    +0.246 C 
ATOM     12  O   UNL     1      -5.183   3.026   1.067  0.00  0.00    -0.270 OA
ATOM     13  N   UNL     1      -6.868   3.414   2.461  0.00  0.00    -0.305 N 
ATOM     14  H   UNL     1      -7.165   3.599   3.366  0.00  0.00    +0.150 HD
BRANCH  13  15
ATOM     15  C   UNL     1      -7.848   3.304   1.377  0.00  0.00    +0.100 C 
ATOM     16  C   UNL     1      -7.977   4.654   0.669  0.00  0.00    +0.033 C 
BRANCH  15  17
ATOM     17  C   UNL     1      -9.185   2.905   1.946  0.00  0.00    -0.027 A 
ATOM     18  C   UNL     1      -9.616   3.447   3.143  0.00  0.00    +0.005 A 
ATOM     19  C   UNL     1     -10.844   3.084   3.663  0.00  0.00    +0.000 A 
ATOM     20  C   UNL     1     -11.637   2.173   2.991  0.00  0.00    +0.000 A 
ATOM     21  C   UNL     1     -11.204   1.628   1.797  0.00  0.00    +0.000 A 
ATOM     22  C   UNL     1      -9.977   1.994   1.275  0.00  0.00    +0.005 A 
ENDBRANCH  15  17
ENDBRANCH  13  15
ENDBRANCH  10  11
ENDBRANCH   3   5
BRANCH   1  23
ATOM     23  C   UNL     1      -1.230   2.194   0.011  0.00  0.00    +0.214 C 
BRANCH  23  32
ATOM     24  C   UNL     1       1.399  -3.262  -0.102  0.00  0.00    -0.011 C 
ATOM     25  C   UNL     1       1.039  -2.484   1.165  0.00  0.00    +0.006 C 
ATOM     26  C   UNL     1       1.818  -1.167   1.192  0.00  0.00    +0.035 C 
ATOM     27  C   UNL     1       1.473  -0.345  -0.045  0.00  0.00    +0.113 C 
ATOM     28  C   UNL     1       1.807  -1.118  -1.316  0.00  0.00    +0.035 C 
ATOM     29  C   UNL     1       1.028  -2.435  -1.334  0.00  0.00    +0.006 C 
ATOM     30  C   UNL     1       0.011   0.038  -0.031  0.00  0.00    +0.247 C 
ATOM     31  O   UNL     1      -0.944  -0.709  -0.041  0.00  0.00    -0.273 OA
ATOM     32  N   UNL     1      -0.007   1.387  -0.004  0.00  0.00    -0.215 N 
ATOM     33  C   UNL     1       1.230   1.897   0.000  0.00  0.00    +0.310 C 
ATOM     34  O   UNL     1       1.471   3.088   0.022  0.00  0.00    -0.252 OA
ATOM     35  N   UNL     1       2.179   0.942  -0.023  0.00  0.00    -0.285 N 
ATOM     36  H   UNL     1       3.140   1.077  -0.024  0.00  0.00    +0.151 HD
BRANCH  24  38
ATOM     37  C   UNL     1       1.081  -5.418  -1.325  0.00  0.00    +0.004 C 
ATOM     38  C   UNL     1       0.629  -4.584  -0.124  0.00  0.00    -0.000 C 
ENDBRANCH  24  38
ENDBRANCH  23  32
ENDBRANCH   1  23
TORSDOF 7
