REMARK  Name = ZINC66604574
REMARK  11 active torsions:
REMARK  status: ('A' for Active; 'I' for Inactive)
REMARK    1  A    between atoms: C_1  and  C_2
REMARK    2  A    between atoms: C_2  and  C_3
REMARK    3  A    between atoms: C_2  and  C_4
REMARK    4  A    between atoms: C_2  and  C_5
REMARK    5  A    between atoms: C_8  and  C_11
REMARK    6  A    between atoms: C_11  and  C_12
REMARK    7  A    between atoms: C_12  and  C_13
REMARK    8  A    between atoms: C_13  and  C_14
REMARK    9  A    between atoms: N_16  and  C_17
REMARK   10  A    between atoms: C_17  and  C_18
REMARK   11  A    between atoms: C_21  and  N_24
REMARK                            x       y       z     vdW  Elec       q    Type
REMARK                         _______ _______ _______ _____ _____    ______ ____
ROOT
ATOM      1  C   UNL     1       3.229  -0.186  -8.199  0.00  0.00    +0.213 C 
ATOM      2  O   UNL     1       2.475   0.751  -8.043  0.00  0.00    -0.276 OA
ATOM      3  N   UNL     1       3.746  -0.439  -9.418  0.00  0.00    -0.311 N 
ATOM      4  H   UNL     1       4.349  -1.189  -9.543  0.00  0.00    +0.149 HD
ENDROOT
BRANCH   1   5
ATOM      5  C   UNL     1       3.587  -1.069  -7.031  0.00  0.00    +0.096 C 
BRANCH   5   6
ATOM      6  C   UNL     1       2.871  -0.568  -5.775  0.00  0.00    +0.014 C 
BRANCH   6   7
ATOM      7  C   UNL     1       3.235  -1.463  -4.589  0.00  0.00    +0.035 C 
BRANCH   7  11
ATOM      8  C   UNL     1       1.237  -0.066  -1.082  0.00  0.00    -0.042 A 
ATOM      9  C   UNL     1       0.627  -1.000  -1.899  0.00  0.00    +0.004 A 
ATOM     10  C   UNL     1       1.274  -1.452  -3.034  0.00  0.00    +0.004 A 
ATOM     11  C   UNL     1       2.529  -0.970  -3.352  0.00  0.00    -0.047 A 
ATOM     12  C   UNL     1       3.139  -0.035  -2.536  0.00  0.00    +0.004 A 
ATOM     13  C   UNL     1       2.490   0.420  -1.403  0.00  0.00    +0.004 A 
BRANCH   8  15
ATOM     14  C   UNL     1       0.328   1.940   0.058  0.00  0.00    +0.015 C 
ATOM     15  C   UNL     1       0.532   0.427   0.156  0.00  0.00    -0.013 C 
ATOM     16  C   UNL     1       1.380   0.105   1.388  0.00  0.00    +0.015 C 
ATOM     17  C   UNL     1      -0.828  -0.264   0.278  0.00  0.00    +0.015 C 
ENDBRANCH   8  15
ENDBRANCH   7  11
ENDBRANCH   6   7
ENDBRANCH   5   6
ENDBRANCH   1   5
BRANCH   3  18
ATOM     18  C   UNL     1       3.398   0.419 -10.553  0.00  0.00    +0.139 C 
BRANCH  18  19
ATOM     19  C   UNL     1       4.103  -0.075 -11.790  0.00  0.00    -0.030 A 
ATOM     20  C   UNL     1       5.361   0.404 -12.104  0.00  0.00    +0.007 A 
ATOM     21  C   UNL     1       6.010  -0.046 -13.238  0.00  0.00    +0.023 A 
ATOM     22  C   UNL     1       5.397  -0.981 -14.062  0.00  0.00    +0.035 A 
ATOM     23  C   UNL     1       4.133  -1.460 -13.743  0.00  0.00    +0.023 A 
ATOM     24  C   UNL     1       3.492  -1.010 -12.606  0.00  0.00    +0.007 A 
BRANCH  22  25
ATOM     25  N   UNL     1       6.052  -1.439 -15.211  0.00  0.00    -0.270 N 
ATOM     26  C   UNL     1       7.394  -1.559 -15.219  0.00  0.00    +0.301 C 
ATOM     27  O   UNL     1       8.028  -1.363 -14.200  0.00  0.00    -0.253 OA
ATOM     28  N   UNL     1       8.034  -1.897 -16.356  0.00  0.00    -0.313 N 
ATOM     29  H   UNL     1       5.540  -1.670 -16.001  0.00  0.00    +0.156 HD
ATOM     30  H   UNL     1       7.528  -2.054 -17.169  0.00  0.00    +0.146 HD
ATOM     31  H   UNL     1       9.000  -1.983 -16.362  0.00  0.00    +0.146 HD
ENDBRANCH  22  25
ENDBRANCH  18  19
ENDBRANCH   3  18
TORSDOF 8
