REMARK  Name = ZINC44827392
REMARK  6 active torsions:
REMARK  status: ('A' for Active; 'I' for Inactive)
REMARK    1  A    between atoms: C_3  and  N_24
REMARK    2  A    between atoms: C_6  and  C_7
REMARK    3  A    between atoms: C_10  and  C_12
REMARK    4  A    between atoms: C_12  and  C_22
REMARK    5  A    between atoms: C_13  and  C_14
REMARK    6  A    between atoms: C_17  and  O_21
REMARK                            x       y       z     vdW  Elec       q    Type
REMARK                         _______ _______ _______ _____ _____    ______ ____
ROOT
ATOM      1  C   UNL     1      -1.299  -0.712  -0.480  0.00  0.00    +0.079 A 
ATOM      2  C   UNL     1      -1.334  -2.160  -0.759  0.00  0.00    +0.075 A 
ATOM      3  S   UNL     1      -2.973  -2.510  -0.594  0.00  0.00    -0.074 S 
ATOM      4  C   UNL     1      -3.553  -0.873  -0.190  0.00  0.00    +0.119 A 
ATOM      5  N   UNL     1      -2.431  -0.140  -0.201  0.00  0.00    -0.238 NA
ENDROOT
BRANCH   1  11
ATOM      6  C   UNL     1      -0.036   1.423  -0.235  0.00  0.00    +0.012 A 
ATOM      7  C   UNL     1       1.148   2.127  -0.265  0.00  0.00    +0.033 A 
ATOM      8  C   UNL     1       2.336   1.480  -0.566  0.00  0.00    +0.126 A 
ATOM      9  C   UNL     1       2.344   0.121  -0.839  0.00  0.00    +0.033 A 
ATOM     10  C   UNL     1       1.169  -0.597  -0.813  0.00  0.00    +0.012 A 
ATOM     11  C   UNL     1      -0.037   0.049  -0.510  0.00  0.00    +0.001 A 
BRANCH   8  12
ATOM     12  N   UNL     1       3.603   2.244  -0.597  0.00  0.00    +0.056 N 
ATOM     13  O   UNL     1       3.600   3.536  -0.338  0.00  0.00    -0.126 OA
ATOM     14  O   UNL     1       4.734   1.633  -0.883  0.00  0.00    -0.126 OA
ENDBRANCH   8  12
ENDBRANCH   1  11
BRANCH   4  15
ATOM     15  C   UNL     1      -4.865  -0.455   0.078  0.00  0.00    +0.084 C 
ATOM     16  C   UNL     1      -5.926  -1.390   0.046  0.00  0.00    +0.029 C 
BRANCH  16  17
ATOM     17  C   UNL     1      -7.252  -0.950   0.162  0.00  0.00    -0.022 A 
ATOM     18  C   UNL     1      -7.653   0.266  -0.440  0.00  0.00    +0.011 A 
ATOM     19  C   UNL     1      -8.941   0.686  -0.323  0.00  0.00    +0.047 A 
ATOM     20  C   UNL     1      -9.869  -0.081   0.390  0.00  0.00    +0.131 A 
ATOM     21  C   UNL     1      -9.481  -1.284   0.989  0.00  0.00    +0.060 A 
ATOM     22  C   UNL     1      -8.197  -1.722   0.877  0.00  0.00    +0.027 A 
ATOM     23 BR   UNL     1     -10.746  -2.309   1.951  0.00  0.00    -0.047 Br
BRANCH  20  24
ATOM     24  O   UNL     1     -11.148   0.344   0.502  0.00  0.00    -0.506 OA
ATOM     25  H   UNL     1     -11.729   0.033  -0.205  0.00  0.00    +0.292 HD
ENDBRANCH  20  24
ENDBRANCH  16  17
BRANCH  15  26
ATOM     26  C   UNL     1      -5.130   0.918   0.385  0.00  0.00    +0.102 C 
ATOM     27  N   UNL     1      -5.340   2.008   0.629  0.00  0.00    -0.191 NA
ENDBRANCH  15  26
ENDBRANCH   4  15
TORSDOF 6
