REMARK  Name = ZINC37615528
REMARK  10 active torsions:
REMARK  status: ('A' for Active; 'I' for Inactive)
REMARK    1  A    between atoms: C_1  and  C_2
REMARK    2  A    between atoms: C_2  and  C_4
REMARK    3  A    between atoms: C_2  and  N_13
REMARK    4  A    between atoms: C_4  and  C_5
REMARK    5  A    between atoms: C_5  and  C_6
REMARK    6  A    between atoms: C_9  and  O_12
REMARK    7  A    between atoms: C_14  and  C_16
REMARK    8  A    between atoms: C_16  and  C_17
REMARK    9  A    between atoms: C_16  and  C_18
REMARK   10  A    between atoms: C_16  and  N_21
REMARK                            x       y       z     vdW  Elec       q    Type
REMARK                         _______ _______ _______ _____ _____    ______ ____
ROOT
ATOM      1  N   UNL     1       0.688  -0.476  -1.203  0.00  0.00    -0.314 N 
ATOM      2  C   UNL     1       0.006  -0.608  -2.358  0.00  0.00    +0.202 C 
ATOM      3  O   UNL     1      -1.175  -0.336  -2.400  0.00  0.00    -0.277 OA
ATOM      4  H   UNL     1       1.632  -0.695  -1.170  0.00  0.00    +0.149 HD
ENDROOT
BRANCH   1   6
ATOM      5  C   UNL     1      -0.019   1.526   0.010  0.00  0.00    +0.028 C 
ATOM      6  C   UNL     1       0.002  -0.004   0.002  0.00  0.00    +0.070 C 
BRANCH   6   7
ATOM      7  C   UNL     1       0.742  -0.511   1.242  0.00  0.00    +0.026 C 
BRANCH   7   8
ATOM      8  C   UNL     1       0.655  -2.037   1.299  0.00  0.00    +0.037 C 
BRANCH   8   9
ATOM      9  C   UNL     1       1.384  -2.537   2.519  0.00  0.00    -0.047 A 
ATOM     10  C   UNL     1       2.731  -2.841   2.443  0.00  0.00    +0.007 A 
ATOM     11  C   UNL     1       3.401  -3.299   3.561  0.00  0.00    +0.045 A 
ATOM     12  C   UNL     1       2.722  -3.453   4.761  0.00  0.00    +0.117 A 
ATOM     13  C   UNL     1       1.371  -3.147   4.835  0.00  0.00    +0.045 A 
ATOM     14  C   UNL     1       0.707  -2.684   3.716  0.00  0.00    +0.007 A 
BRANCH  12  15
ATOM     15  O   UNL     1       3.379  -3.905   5.861  0.00  0.00    -0.507 OA
ATOM     16  H   UNL     1       3.771  -3.204   6.401  0.00  0.00    +0.292 HD
ENDBRANCH  12  15
ENDBRANCH   8   9
ENDBRANCH   7   8
ENDBRANCH   6   7
ENDBRANCH   1   6
BRANCH   2  17
ATOM     17  C   UNL     1       0.712  -1.094  -3.598  0.00  0.00    +0.007 C 
ATOM     18  C   UNL     1       1.383   0.088  -4.300  0.00  0.00    -0.001 C 
BRANCH  17  19
ATOM     19  N   UNL     1       1.730  -2.085  -3.226  0.00  0.00    +0.388 N 
ATOM     20  H   UNL     1       1.287  -2.865  -2.763  0.00  0.00    -0.089 HD
ATOM     21  H   UNL     1       2.202  -2.410  -4.056  0.00  0.00    -0.089 HD
ATOM     22  H   UNL     1       2.400  -1.661  -2.602  0.00  0.00    -0.089 HD
ENDBRANCH  17  19
BRANCH  17  23
ATOM     23  C   UNL     1      -0.304  -1.738  -4.544  0.00  0.00    -0.014 C 
ATOM     24  C   UNL     1      -0.215  -3.251  -4.753  0.00  0.00    +0.003 C 
ATOM     25  C   UNL     1       0.219  -2.297  -5.868  0.00  0.00    +0.003 C 
ENDBRANCH  17  23
ENDBRANCH   2  17
TORSDOF 8
