REMARK  Name = ZINC45330085
REMARK  9 active torsions:
REMARK  status: ('A' for Active; 'I' for Inactive)
REMARK    1  A    between atoms: C_1  and  C_2
REMARK    2  A    between atoms: C_5  and  N_9
REMARK    3  A    between atoms: C_6  and  C_8
REMARK    4  A    between atoms: N_9  and  S_10
REMARK    5  A    between atoms: S_10  and  C_13
REMARK    6  A    between atoms: C_17  and  C_19
REMARK    7  A    between atoms: N_21  and  N_22
REMARK    8  A    between atoms: C_23  and  C_24
REMARK    9  A    between atoms: C_25  and  C_34
REMARK                            x       y       z     vdW  Elec       q    Type
REMARK                         _______ _______ _______ _____ _____    ______ ____
ROOT
ATOM      1  C   UNL     1       2.517  -4.719  -1.127  0.00  0.00    +0.109 A 
ATOM      2  C   UNL     1       3.106  -3.635  -1.754  0.00  0.00    +0.029 A 
ATOM      3  C   UNL     1       4.469  -3.423  -1.646  0.00  0.00    +0.003 A 
ATOM      4  C   UNL     1       5.250  -4.293  -0.912  0.00  0.00    +0.013 A 
ATOM      5  C   UNL     1       4.661  -5.388  -0.277  0.00  0.00    +0.040 A 
ATOM      6  C   UNL     1       3.284  -5.593  -0.386  0.00  0.00    +0.042 A 
ENDROOT
BRANCH   5   7
ATOM      7  C   UNL     1       5.491  -6.323   0.510  0.00  0.00    +0.263 C 
ATOM      8  O   UNL     1       4.976  -7.276   1.062  0.00  0.00    -0.268 OA
ATOM      9  N   UNL     1       6.819  -6.120   0.617  0.00  0.00    -0.203 N 
ATOM     10  H   UNL     1       7.230  -5.360   0.176  0.00  0.00    +0.178 HD
BRANCH   9  11
ATOM     11  N   UNL     1       7.606  -7.007   1.363  0.00  0.00    -0.187 NA
ATOM     12  C   UNL     1       8.886  -6.811   1.466  0.00  0.00    +0.140 C 
BRANCH  12  13
ATOM     13  C   UNL     1       9.713  -7.743   2.250  0.00  0.00    +0.023 A 
ATOM     14  C   UNL     1       9.283  -8.850   2.914  0.00  0.00    +0.023 A 
ATOM     15  N   UNL     1      10.339  -9.459   3.524  0.00  0.00    -0.358 N 
ATOM     16  H   UNL     1      10.280 -10.267   4.057  0.00  0.00    +0.166 HD
ATOM     17  C   UNL     1      11.502  -8.762   3.273  0.00  0.00    +0.047 A 
ATOM     18  C   UNL     1      11.168  -7.663   2.464  0.00  0.00    +0.009 A 
ATOM     19  C   UNL     1      12.160  -6.778   2.046  0.00  0.00    +0.010 A 
ATOM     20  C   UNL     1      13.466  -6.987   2.429  0.00  0.00    +0.001 A 
ATOM     21  C   UNL     1      13.797  -8.073   3.226  0.00  0.00    +0.002 A 
ATOM     22  C   UNL     1      12.826  -8.954   3.652  0.00  0.00    +0.026 A 
ATOM     23  C   UNL     1       7.855  -9.329   2.968  0.00  0.00    +0.064 C 
ENDBRANCH  12  13
ENDBRANCH   9  11
ENDBRANCH   5   7
BRANCH   1  24
ATOM     24  S   UNL     1       0.780  -4.979  -1.271  0.00  0.00    +0.072 S 
ATOM     25  O   UNL     1       0.556  -6.363  -1.040  0.00  0.00    -0.150 OA
ATOM     26  O   UNL     1       0.369  -4.331  -2.467  0.00  0.00    -0.150 OA
BRANCH  24  27
ATOM     27  N   UNL     1       0.058  -4.167  -0.021  0.00  0.00    -0.216 N 
ATOM     28  H   UNL     1      -0.470  -4.653   0.632  0.00  0.00    +0.174 HD
BRANCH  27  33
ATOM     29  C   UNL     1       0.671   1.451   0.442  0.00  0.00    +0.044 C 
ATOM     30  C   UNL     1       0.508  -0.042   0.319  0.00  0.00    -0.050 A 
ATOM     31  C   UNL     1       0.416  -0.625  -0.932  0.00  0.00    +0.005 A 
ATOM     32  C   UNL     1       0.267  -1.993  -1.048  0.00  0.00    +0.025 A 
ATOM     33  C   UNL     1       0.209  -2.784   0.093  0.00  0.00    +0.051 A 
ATOM     34  C   UNL     1       0.302  -2.195   1.347  0.00  0.00    -0.028 A 
ATOM     35  C   UNL     1       0.457  -0.826   1.456  0.00  0.00    +0.008 A 
ATOM     36  C   UNL     1       0.239  -3.048   2.588  0.00  0.00    +0.046 C 
ENDBRANCH  27  33
ENDBRANCH  24  27
ENDBRANCH   1  24
TORSDOF 6
