REMARK  Name = ZINC63856735
REMARK  5 active torsions:
REMARK  status: ('A' for Active; 'I' for Inactive)
REMARK    1  A    between atoms: C_1  and  O_2
REMARK    2  A    between atoms: O_2  and  C_3
REMARK    3  A    between atoms: C_8  and  C_13
REMARK    4  A    between atoms: C_13  and  N_14
REMARK    5  A    between atoms: C_24  and  C_26
REMARK                            x       y       z     vdW  Elec       q    Type
REMARK                         _______ _______ _______ _____ _____    ______ ____
ROOT
ATOM      1  N   UNL     1      -4.290  -4.069   2.476  0.00  0.00    -0.284 N 
ATOM      2  C   UNL     1      -2.994  -4.430   3.027  0.00  0.00    +0.193 C 
ATOM      3  N   UNL     1      -2.824  -3.972   4.394  0.00  0.00    -0.288 NA
ATOM      4  C   UNL     1      -3.236  -2.601   4.647  0.00  0.00    +0.134 C 
ATOM      5  C   UNL     1      -4.694  -2.354   4.222  0.00  0.00    +0.126 C 
ATOM      6  C   UNL     1      -5.062  -3.114   3.003  0.00  0.00    +0.226 C 
ATOM      7  O   UNL     1      -6.111  -2.853   2.453  0.00  0.00    -0.275 OA
ATOM      8  C   UNL     1      -5.645  -2.630   5.339  0.00  0.00    +0.003 C 
ATOM      9  C   UNL     1      -5.181  -2.675   6.590  0.00  0.00    +0.013 C 
ATOM     10  S   UNL     1      -3.407  -2.370   6.469  0.00  0.00    -0.105 S 
ATOM     11  H   UNL     1      -3.262  -4.607   5.045  0.00  0.00    +0.124 HD
ENDROOT
BRANCH   9  12
ATOM     12  C   UNL     1      -5.962  -2.923   7.824  0.00  0.00    -0.012 A 
ATOM     13  C   UNL     1      -7.336  -3.147   7.750  0.00  0.00    +0.009 A 
ATOM     14  C   UNL     1      -8.058  -3.377   8.903  0.00  0.00    +0.001 A 
ATOM     15  C   UNL     1      -7.421  -3.385  10.131  0.00  0.00    +0.000 A 
ATOM     16  C   UNL     1      -6.058  -3.163  10.211  0.00  0.00    +0.001 A 
ATOM     17  C   UNL     1      -5.324  -2.938   9.064  0.00  0.00    +0.009 A 
ENDBRANCH   9  12
BRANCH   1  18
ATOM     18  C   UNL     1      -4.767  -4.779   1.287  0.00  0.00    +0.155 C 
BRANCH  18  24
ATOM     19  C   UNL     1      -1.198  -0.636   0.010  0.00  0.00    +0.122 A 
ATOM     20  C   UNL     1      -2.418   0.160   0.020  0.00  0.00    +0.048 A 
ATOM     21  C   UNL     1      -3.638  -0.408   0.029  0.00  0.00    +0.031 A 
ATOM     22  C   UNL     1      -3.762  -1.873   0.028  0.00  0.00    +0.060 A 
ATOM     23  N   UNL     1      -4.795  -2.665   0.036  0.00  0.00    -0.362 N 
ATOM     24  C   UNL     1      -4.295  -4.045   0.030  0.00  0.00    +0.192 C 
ATOM     25  N   UNL     1      -2.830  -3.955   0.019  0.00  0.00    -0.362 N 
ATOM     26  C   UNL     1      -2.517  -2.688   0.017  0.00  0.00    +0.064 A 
ATOM     27  C   UNL     1      -1.229  -1.991   0.003  0.00  0.00    +0.073 A 
ATOM     28  H   UNL     1      -5.726  -2.393   0.044  0.00  0.00    +0.162 HD
ATOM     29  H   UNL     1      -2.209  -4.700   0.013  0.00  0.00    +0.162 HD
BRANCH  19  31
ATOM     30  C   UNL     1      -0.017   1.425   0.010  0.00  0.00    +0.277 C 
ATOM     31  O   UNL     1       0.002  -0.004   0.002  0.00  0.00    -0.495 OA
ENDBRANCH  19  31
ENDBRANCH  18  24
ENDBRANCH   1  18
TORSDOF 4
