REMARK  Name = ZINC14964562
REMARK  14 active torsions:
REMARK  status: ('A' for Active; 'I' for Inactive)
REMARK    1  A    between atoms: C_1  and  C_2
REMARK    2  A    between atoms: C_3  and  C_8
REMARK    3  A    between atoms: N_5  and  C_7
REMARK    4  A    between atoms: C_8  and  N_9
REMARK    5  A    between atoms: N_9  and  C_10
REMARK    6  A    between atoms: N_9  and  C_11
REMARK    7  A    between atoms: C_11  and  C_13
REMARK    8  A    between atoms: C_11  and  C_21
REMARK    9  A    between atoms: C_13  and  C_14
REMARK   10  A    between atoms: N_24  and  C_27
REMARK   11  A    between atoms: C_27  and  C_28
REMARK   12  A    between atoms: C_29  and  O_36
REMARK   13  A    between atoms: C_33  and  O_34
REMARK   14  A    between atoms: O_34  and  C_35
REMARK                            x       y       z     vdW  Elec       q    Type
REMARK                         _______ _______ _______ _____ _____    ______ ____
ROOT
ATOM      1  C   UNL     1       1.192  -2.574  -1.180  0.00  0.00    +0.064 C 
ENDROOT
BRANCH   1   2
ATOM      2  C   UNL     1       0.948  -4.085  -1.190  0.00  0.00    +0.003 C 
ATOM      3  C   UNL     1       0.756  -4.563  -2.632  0.00  0.00    -0.014 C 
ATOM      4  C   UNL     1       0.453  -6.063  -2.630  0.00  0.00    -0.078 C 
ATOM      5  N   UNL     1      -0.763  -6.317  -1.846  0.00  0.00    +0.383 N 
ATOM      6  C   UNL     1      -0.586  -5.909  -0.446  0.00  0.00    -0.078 C 
ATOM      7  C   UNL     1      -0.313  -4.404  -0.382  0.00  0.00    -0.014 C 
ATOM      8  H   UNL     1      -1.571  -5.706  -2.273  0.00  0.00    -0.081 HD
BRANCH   5   9
ATOM      9  C   UNL     1      -1.163  -7.727  -1.937  0.00  0.00    -0.036 C 
BRANCH   9  10
ATOM     10  C   UNL     1      -1.097  -8.177  -3.374  0.00  0.00    +0.019 A 
ATOM     11  C   UNL     1       0.076  -8.718  -3.878  0.00  0.00    +0.122 A 
ATOM     12  C   UNL     1       0.135  -9.131  -5.202  0.00  0.00    +0.046 A 
ATOM     13  C   UNL     1      -0.974  -9.003  -6.016  0.00  0.00    +0.007 A 
ATOM     14  C   UNL     1      -2.144  -8.464  -5.516  0.00  0.00    +0.046 A 
ATOM     15  C   UNL     1      -2.209  -8.055  -4.191  0.00  0.00    +0.125 A 
BRANCH  15  16
ATOM     16  O   UNL     1      -3.361  -7.530  -3.698  0.00  0.00    -0.495 OA
ATOM     17  C   UNL     1      -4.468  -7.434  -4.597  0.00  0.00    +0.277 C 
ENDBRANCH  15  16
BRANCH  11  18
ATOM     18  O   UNL     1       1.167  -8.843  -3.078  0.00  0.00    -0.506 OA
ATOM     19  H   UNL     1       2.097  -9.273  -3.479  0.00  0.00    +0.292 HD
ENDBRANCH  11  18
ENDBRANCH   9  10
ENDBRANCH   5   9
ENDBRANCH   1   2
BRANCH   1  20
ATOM     20  N   UNL     1       2.403  -2.269  -1.954  0.00  0.00    -0.298 NA
ATOM     21  C   UNL     1       3.424  -3.307  -1.765  0.00  0.00    +0.105 C 
BRANCH  20  22
ATOM     22  C   UNL     1       2.087  -2.094  -3.378  0.00  0.00    +0.123 C 
BRANCH  22  25
ATOM     23  C   UNL     1       3.606   0.684  -3.500  0.00  0.00    +0.068 C 
ATOM     24  C   UNL     1       2.120   0.482  -3.644  0.00  0.00    +0.064 A 
ATOM     25  C   UNL     1       1.450  -0.745  -3.590  0.00  0.00    +0.007 A 
ATOM     26  C   UNL     1       0.130  -0.507  -3.767  0.00  0.00    +0.113 A 
ATOM     27  N   UNL     1      -0.031   0.824  -3.919  0.00  0.00    -0.274 N 
ATOM     28  N   UNL     1       1.233   1.423  -3.841  0.00  0.00    -0.176 NA
ATOM     29  C   UNL     1      -1.303   1.520  -4.133  0.00  0.00    +0.172 C 
ENDBRANCH  22  25
ENDBRANCH  20  22
ENDBRANCH   1  20
BRANCH   1  30
ATOM     30  C   UNL     1       1.375  -2.096   0.262  0.00  0.00    +0.054 C 
BRANCH  30  31
ATOM     31  C   UNL     1       1.498  -0.594   0.281  0.00  0.00    -0.046 A 
ATOM     32  C   UNL     1       0.360   0.191   0.301  0.00  0.00    +0.006 A 
ATOM     33  C   UNL     1       0.472   1.569   0.320  0.00  0.00    +0.038 A 
ATOM     34  C   UNL     1       1.723   2.162   0.319  0.00  0.00    +0.123 A 
ATOM     35  C   UNL     1       2.861   1.373   0.299  0.00  0.00    +0.038 A 
ATOM     36  C   UNL     1       2.747  -0.004   0.280  0.00  0.00    +0.006 A 
ATOM     37  F   UNL     1       1.833   3.508   0.337  0.00  0.00    -0.205 F 
ENDBRANCH  30  31
ENDBRANCH   1  30
TORSDOF 10
