REMARK  Name = ZINC15480413
REMARK  4 active torsions:
REMARK  status: ('A' for Active; 'I' for Inactive)
REMARK    1  A    between atoms: C_5  and  N_7
REMARK    2  A    between atoms: C_9  and  C_14
REMARK    3  A    between atoms: N_16  and  N_17
REMARK    4  A    between atoms: C_18  and  C_20
REMARK                            x       y       z     vdW  Elec       q    Type
REMARK                         _______ _______ _______ _____ _____    ______ ____
ROOT
ATOM      1  C   UNL     1      -0.801   0.608  -2.332  0.00  0.00    +0.234 C 
ATOM      2  O   UNL     1      -0.231  -0.454  -2.193  0.00  0.00    -0.274 OA
ATOM      3  N   UNL     1      -1.437   0.886  -3.487  0.00  0.00    -0.234 N 
ATOM      4  H   UNL     1      -1.893   1.735  -3.598  0.00  0.00    +0.173 HD
ENDROOT
BRANCH   1   7
ATOM      5  N   UNL     1      -0.737   1.577   1.186  0.00  0.00    -0.268 N 
ATOM      6  C   UNL     1      -0.013   1.086   0.008  0.00  0.00    +0.127 C 
ATOM      7  C   UNL     1      -0.798   1.617  -1.212  0.00  0.00    +0.103 C 
ATOM      8  C   UNL     1      -2.216   1.792  -0.622  0.00  0.00    +0.110 C 
ATOM      9  C   UNL     1      -1.981   1.975   0.862  0.00  0.00    +0.221 C 
ATOM     10  O   UNL     1      -2.795   2.417   1.645  0.00  0.00    -0.275 OA
BRANCH   5  15
ATOM     11  C   UNL     1       1.002   2.805   4.186  0.00  0.00    +0.002 A 
ATOM     12  C   UNL     1       0.857   1.723   5.036  0.00  0.00    +0.003 A 
ATOM     13  C   UNL     1       0.185   0.592   4.611  0.00  0.00    +0.040 A 
ATOM     14  C   UNL     1      -0.349   0.541   3.336  0.00  0.00    +0.145 A 
ATOM     15  C   UNL     1      -0.201   1.626   2.479  0.00  0.00    +0.072 A 
ATOM     16  C   UNL     1       0.475   2.760   2.910  0.00  0.00    +0.026 A 
ATOM     17  F   UNL     1      -1.011  -0.562   2.923  0.00  0.00    -0.204 F 
ENDBRANCH   5  15
ENDBRANCH   1   7
BRANCH   3  18
ATOM     18  N   UNL     1      -1.440  -0.052  -4.528  0.00  0.00    -0.234 N 
ATOM     19  C   UNL     1      -2.076   0.226  -5.684  0.00  0.00    +0.235 C 
ATOM     20  O   UNL     1      -2.646   1.288  -5.822  0.00  0.00    -0.274 OA
ATOM     21  H   UNL     1      -0.984  -0.901  -4.418  0.00  0.00    +0.173 HD
BRANCH  19  22
ATOM     22  C   UNL     1      -2.078  -0.782  -6.803  0.00  0.00    +0.049 C 
ATOM     23  C   UNL     1      -2.736  -2.077  -6.322  0.00  0.00    +0.019 C 
ATOM     24  C   UNL     1      -2.739  -3.101  -7.459  0.00  0.00    -0.009 C 
ATOM     25  C   UNL     1      -3.524  -2.542  -8.647  0.00  0.00    +0.007 C 
ATOM     26  C   UNL     1      -2.867  -1.247  -9.128  0.00  0.00    -0.009 C 
ATOM     27  C   UNL     1      -2.864  -0.223  -7.991  0.00  0.00    +0.019 C 
ATOM     28  C   UNL     1      -1.427  -1.535  -9.559  0.00  0.00    +0.007 C 
ATOM     29  C   UNL     1      -0.642  -2.094  -8.371  0.00  0.00    -0.009 C 
ATOM     30  C   UNL     1      -1.299  -3.389  -7.889  0.00  0.00    +0.007 C 
ATOM     31  C   UNL     1      -0.639  -1.070  -7.234  0.00  0.00    +0.019 C 
ENDBRANCH  19  22
ENDBRANCH   3  18
TORSDOF 4
