REMARK  Name = ZINC65385279
REMARK  6 active torsions:
REMARK  status: ('A' for Active; 'I' for Inactive)
REMARK    1  A    between atoms: C_1  and  O_2
REMARK    2  A    between atoms: O_2  and  C_3
REMARK    3  A    between atoms: C_8  and  C_13
REMARK    4  A    between atoms: C_13  and  N_14
REMARK    5  A    between atoms: C_17  and  C_28
REMARK    6  A    between atoms: C_19  and  C_21
REMARK                            x       y       z     vdW  Elec       q    Type
REMARK                         _______ _______ _______ _____ _____    ______ ____
ROOT
ATOM      1  N   UNL     1       4.461  -4.527   4.813  0.00  0.00    +0.395 N 
ATOM      2  C   UNL     1       3.885  -5.360   5.900  0.00  0.00    +0.006 C 
ATOM      3  N   UNL     1       5.027  -5.576   6.825  0.00  0.00    -0.327 NA
ATOM      4  C   UNL     1       6.195  -5.768   5.933  0.00  0.00    +0.073 C 
ATOM      5  C   UNL     1       5.822  -5.076   4.607  0.00  0.00    -0.011 C 
ATOM      6  H   UNL     1       5.160  -4.779   7.428  0.00  0.00    +0.120 HD
ATOM      7  H   UNL     1       4.510  -3.560   5.097  0.00  0.00    -0.079 HD
ENDROOT
BRANCH   5   8
ATOM      8  C   UNL     1       6.793  -3.963   4.309  0.00  0.00    -0.023 A 
ATOM      9  C   UNL     1       6.720  -2.758   4.990  0.00  0.00    +0.118 A 
ATOM     10  N   UNL     1       7.588  -1.802   4.704  0.00  0.00    -0.223 NA
ATOM     11  C   UNL     1       8.518  -1.986   3.779  0.00  0.00    +0.212 A 
ATOM     12  N   UNL     1       8.615  -3.126   3.110  0.00  0.00    -0.223 NA
ATOM     13  C   UNL     1       7.783  -4.125   3.352  0.00  0.00    +0.118 A 
ATOM     14  N   UNL     1       9.411  -0.964   3.505  0.00  0.00    -0.327 N 
ATOM     15  H   UNL     1       9.350  -0.125   3.988  0.00  0.00    +0.145 HD
ATOM     16  H   UNL     1      10.096  -1.087   2.830  0.00  0.00    +0.145 HD
ENDBRANCH   5   8
BRANCH   4  17
ATOM     17  C   UNL     1       7.419  -5.124   6.531  0.00  0.00    -0.032 A 
ATOM     18  C   UNL     1       7.309  -3.917   7.198  0.00  0.00    +0.005 A 
ATOM     19  C   UNL     1       8.432  -3.327   7.747  0.00  0.00    +0.000 A 
ATOM     20  C   UNL     1       9.664  -3.943   7.630  0.00  0.00    +0.000 A 
ATOM     21  C   UNL     1       9.773  -5.149   6.965  0.00  0.00    +0.000 A 
ATOM     22  C   UNL     1       8.650  -5.742   6.419  0.00  0.00    +0.005 A 
ENDBRANCH   4  17
BRANCH   1  23
ATOM     23  C   UNL     1       3.663  -4.661   3.587  0.00  0.00    -0.047 C 
BRANCH  23  29
ATOM     24  C   UNL     1       0.626  -0.619   1.042  0.00  0.00    +0.121 A 
ATOM     25  C   UNL     1       1.202   0.173   2.051  0.00  0.00    +0.047 A 
ATOM     26  C   UNL     1       1.839  -0.358   3.116  0.00  0.00    +0.029 A 
ATOM     27  C   UNL     1       1.947  -1.815   3.248  0.00  0.00    +0.043 A 
ATOM     28  N   UNL     1       2.500  -2.573   4.161  0.00  0.00    -0.380 N 
ATOM     29  C   UNL     1       2.308  -3.978   3.782  0.00  0.00    +0.087 C 
ATOM     30  C   UNL     1       1.541  -3.954   2.479  0.00  0.00    +0.005 C 
ATOM     31  C   UNL     1       1.340  -2.650   2.185  0.00  0.00    -0.001 A 
ATOM     32  C   UNL     1       0.667  -1.972   1.072  0.00  0.00    +0.055 A 
ATOM     33  H   UNL     1       2.961  -2.259   4.955  0.00  0.00    +0.160 HD
BRANCH  24  35
ATOM     34  C   UNL     1      -0.017   1.425   0.010  0.00  0.00    +0.277 C 
ATOM     35  O   UNL     1       0.002  -0.004   0.002  0.00  0.00    -0.495 OA
ENDBRANCH  24  35
ENDBRANCH  23  29
ENDBRANCH   1  23
TORSDOF 5
