REMARK  Name = ZINC46572631
REMARK  6 active torsions:
REMARK  status: ('A' for Active; 'I' for Inactive)
REMARK    1  A    between atoms: C_4  and  N_7
REMARK    2  A    between atoms: N_7  and  C_8
REMARK    3  A    between atoms: C_8  and  N_10
REMARK    4  A    between atoms: N_10  and  N_11
REMARK    5  A    between atoms: C_12  and  C_14
REMARK    6  A    between atoms: N_17  and  C_19
REMARK                            x       y       z     vdW  Elec       q    Type
REMARK                         _______ _______ _______ _____ _____    ______ ____
ROOT
ATOM      1  N   UNL     1       6.023  -1.921   0.136  0.00  0.00    -0.230 N 
ATOM      2  C   UNL     1       7.201  -2.571   0.222  0.00  0.00    +0.280 C 
ATOM      3  O   UNL     1       7.221  -3.784   0.307  0.00  0.00    -0.267 OA
ATOM      4  H   UNL     1       6.006  -0.954   0.068  0.00  0.00    +0.173 HD
ENDROOT
BRANCH   2   5
ATOM      5  C   UNL     1       8.466  -1.810   0.213  0.00  0.00    +0.152 A 
ATOM      6  C   UNL     1       9.771  -2.347   0.291  0.00  0.00    +0.006 A 
ATOM      7  C   UNL     1      10.608  -1.288   0.248  0.00  0.00    +0.049 A 
ATOM      8  N   UNL     1       9.835  -0.173   0.150  0.00  0.00    -0.233 N 
ATOM      9  N   UNL     1       8.592  -0.499   0.126  0.00  0.00    -0.161 NA
ATOM     10  C   UNL     1      12.045  -1.755   0.324  0.00  0.00    +0.056 C 
ATOM     11  C   UNL     1      11.967  -3.206   0.850  0.00  0.00    +0.011 C 
ATOM     12  C   UNL     1      10.552  -3.634   0.401  0.00  0.00    +0.040 C 
BRANCH   8  13
ATOM     13  C   UNL     1      10.322   1.139   0.079  0.00  0.00    +0.101 A 
ATOM     14  C   UNL     1      11.690   1.375   0.102  0.00  0.00    +0.031 A 
ATOM     15  C   UNL     1      12.168   2.669   0.032  0.00  0.00    +0.002 A 
ATOM     16  C   UNL     1      11.285   3.731  -0.059  0.00  0.00    +0.003 A 
ATOM     17  C   UNL     1       9.922   3.501  -0.082  0.00  0.00    +0.040 A 
ATOM     18  C   UNL     1       9.437   2.207  -0.019  0.00  0.00    +0.149 A 
ATOM     19  F   UNL     1       8.105   1.981  -0.048  0.00  0.00    -0.203 F 
ENDBRANCH   8  13
ENDBRANCH   2   5
BRANCH   1  20
ATOM     20  N   UNL     1       4.822  -2.644   0.144  0.00  0.00    -0.245 N 
ATOM     21  H   UNL     1       4.839  -3.611   0.212  0.00  0.00    +0.172 HD
BRANCH  20  22
ATOM     22  C   UNL     1       3.644  -1.995   0.058  0.00  0.00    +0.151 C 
ATOM     23  S   UNL     1       2.178  -2.877   0.068  0.00  0.00    -0.017 S 
BRANCH  22  24
ATOM     24  N   UNL     1       3.621  -0.650  -0.036  0.00  0.00    -0.296 N 
ATOM     25  H   UNL     1       4.451  -0.156  -0.123  0.00  0.00    +0.154 HD
BRANCH  24  29
ATOM     26  C   UNL     1      -0.014   1.382   0.046  0.00  0.00    +0.000 A 
ATOM     27  C   UNL     1       0.205   0.326   0.911  0.00  0.00    +0.002 A 
ATOM     28  C   UNL     1       1.410  -0.350   0.886  0.00  0.00    +0.023 A 
ATOM     29  C   UNL     1       2.400   0.032  -0.009  0.00  0.00    +0.033 A 
ATOM     30  C   UNL     1       2.176   1.093  -0.877  0.00  0.00    +0.023 A 
ATOM     31  C   UNL     1       0.970   1.764  -0.847  0.00  0.00    +0.002 A 
ENDBRANCH  24  29
ENDBRANCH  22  24
ENDBRANCH  20  22
ENDBRANCH   1  20
TORSDOF 6
