REMARK  Name = ZINC19881781
REMARK  7 active torsions:
REMARK  status: ('A' for Active; 'I' for Inactive)
REMARK    1  A    between atoms: C_1  and  C_2
REMARK    2  A    between atoms: C_2  and  C_3
REMARK    3  A    between atoms: C_3  and  C_4
REMARK    4  A    between atoms: C_10  and  C_11
REMARK    5  A    between atoms: C_12  and  C_28
REMARK    6  A    between atoms: N_13  and  C_20
REMARK    7  A    between atoms: C_20  and  C_21
REMARK                            x       y       z     vdW  Elec       q    Type
REMARK                         _______ _______ _______ _____ _____    ______ ____
ROOT
ATOM      1  C   UNL     1      -0.141  -7.293   2.388  0.00  0.00    +0.004 A 
ATOM      2  C   UNL     1      -0.969  -7.933   3.291  0.00  0.00    +0.024 A 
ATOM      3  N   UNL     1      -1.177  -7.135   4.356  0.00  0.00    -0.339 N 
ATOM      4  C   UNL     1      -0.504  -5.939   4.210  0.00  0.00    +0.050 A 
ATOM      5  C   UNL     1       0.178  -5.980   2.983  0.00  0.00    +0.007 A 
ATOM      6  C   UNL     1       0.951  -4.897   2.576  0.00  0.00    +0.010 A 
ATOM      7  C   UNL     1       1.047  -3.784   3.385  0.00  0.00    +0.001 A 
ATOM      8  C   UNL     1       0.378  -3.743   4.598  0.00  0.00    +0.002 A 
ATOM      9  C   UNL     1      -0.397  -4.806   5.010  0.00  0.00    +0.026 A 
ATOM     10  C   UNL     1      -1.549  -9.312   3.112  0.00  0.00    +0.064 C 
ENDROOT
BRANCH   1  17
ATOM     11  C   UNL     1       0.649  -2.668  -1.785  0.00  0.00    +0.100 C 
ATOM     12  N   UNL     1       0.163  -3.402  -0.826  0.00  0.00    -0.169 NA
ATOM     13  N   UNL     1       0.180  -4.779  -0.900  0.00  0.00    -0.154 N 
ATOM     14  C   UNL     1      -0.398  -5.663   0.036  0.00  0.00    +0.132 C 
ATOM     15  N   UNL     1      -1.361  -5.318   0.850  0.00  0.00    -0.385 N 
ATOM     16  C   UNL     1       0.198  -7.026   0.005  0.00  0.00    +0.079 C 
ATOM     17  C   UNL     1       0.313  -7.796   1.148  0.00  0.00    +0.026 C 
ATOM     18  C   UNL     1       0.661  -7.515  -1.314  0.00  0.00    +0.273 C 
ATOM     19  O   UNL     1       0.731  -8.711  -1.552  0.00  0.00    -0.268 OA
ATOM     20  N   UNL     1       1.002  -6.602  -2.245  0.00  0.00    -0.152 NA
ATOM     21  C   UNL     1       0.793  -5.333  -2.003  0.00  0.00    +0.181 C 
ATOM     22  S   UNL     1       1.214  -3.896  -2.954  0.00  0.00    -0.038 S 
ATOM     23  H   UNL     1      -1.714  -4.415   0.829  0.00  0.00    +0.157 HD
ATOM     24  H   UNL     1      -1.723  -5.966   1.475  0.00  0.00    +0.157 HD
BRANCH  11  25
ATOM     25  C   UNL     1       0.714  -1.165  -1.886  0.00  0.00    +0.064 C 
BRANCH  25  27
ATOM     26  C   UNL     1       0.166   0.982  -0.733  0.00  0.00    +0.004 C 
ATOM     27  C   UNL     1       0.100  -0.543  -0.631  0.00  0.00    +0.003 C 
ENDBRANCH  25  27
ENDBRANCH  11  25
ENDBRANCH   1  17
BRANCH   3  28
ATOM     28  C   UNL     1      -2.006  -7.487   5.512  0.00  0.00    +0.158 C 
BRANCH  28  29
ATOM     29  C   UNL     1      -1.192  -8.300   6.485  0.00  0.00    -0.009 A 
ATOM     30  C   UNL     1      -1.048  -9.662   6.297  0.00  0.00    +0.007 A 
ATOM     31  C   UNL     1      -0.301 -10.408   7.190  0.00  0.00    +0.000 A 
ATOM     32  C   UNL     1       0.302  -9.792   8.271  0.00  0.00    +0.001 A 
ATOM     33  C   UNL     1       0.159  -8.431   8.459  0.00  0.00    +0.020 A 
ATOM     34  C   UNL     1      -0.584  -7.683   7.563  0.00  0.00    +0.046 A 
ATOM     35 CL   UNL     1      -0.759  -5.971   7.796  0.00  0.00    -0.083 Cl
ENDBRANCH  28  29
ENDBRANCH   3  28
TORSDOF 5
