REMARK  Name = ZINC02799314
REMARK  7 active torsions:
REMARK  status: ('A' for Active; 'I' for Inactive)
REMARK    1  A    between atoms: C_1  and  O_2
REMARK    2  A    between atoms: O_2  and  C_3
REMARK    3  A    between atoms: C_5  and  C_12
REMARK    4  A    between atoms: C_8  and  O_9
REMARK    5  A    between atoms: N_13  and  N_14
REMARK    6  A    between atoms: N_14  and  C_15
REMARK    7  A    between atoms: C_15  and  N_17
REMARK                            x       y       z     vdW  Elec       q    Type
REMARK                         _______ _______ _______ _____ _____    ______ ____
ROOT
ATOM      1  C   UNL     1       2.386  -4.178  -0.044  0.00  0.00    +0.163 A 
ATOM      2  C   UNL     1       2.373  -2.796  -0.041  0.00  0.00    +0.060 A 
ATOM      3  C   UNL     1       1.155  -2.112  -0.020  0.00  0.00    +0.018 A 
ATOM      4  C   UNL     1      -0.045  -2.829  -0.013  0.00  0.00    +0.066 A 
ATOM      5  C   UNL     1      -0.023  -4.209  -0.020  0.00  0.00    +0.077 A 
ATOM      6  C   UNL     1       1.188  -4.887  -0.036  0.00  0.00    +0.173 A 
ATOM      7  I   UNL     1      -1.822  -5.284  -0.009  0.00  0.00    -0.038 I 
ATOM      8 CL   UNL     1      -1.562  -1.984   0.006  0.00  0.00    -0.082 Cl
ENDROOT
BRANCH   1  10
ATOM      9  C   UNL     1       4.762  -4.056  -0.067  0.00  0.00    +0.277 C 
ATOM     10  O   UNL     1       3.571  -4.846  -0.060  0.00  0.00    -0.491 OA
ENDBRANCH   1  10
BRANCH   6  11
ATOM     11  O   UNL     1       1.204  -6.246  -0.044  0.00  0.00    -0.503 OA
ATOM     12  H   UNL     1       1.200  -6.635  -0.929  0.00  0.00    +0.292 HD
ENDBRANCH   6  11
BRANCH   3  13
ATOM     13  C   UNL     1       1.135  -0.638  -0.012  0.00  0.00    +0.139 C 
ATOM     14  N   UNL     1       0.002  -0.004   0.002  0.00  0.00    -0.188 NA
BRANCH  14  15
ATOM     15  N   UNL     1      -0.017   1.397   0.010  0.00  0.00    -0.219 N 
ATOM     16  H   UNL     1       0.816   1.893   0.004  0.00  0.00    +0.176 HD
BRANCH  15  17
ATOM     17  C   UNL     1      -1.193   2.055   0.019  0.00  0.00    +0.147 C 
ATOM     18  S   UNL     1      -1.216   3.767   0.028  0.00  0.00    -0.017 S 
BRANCH  17  19
ATOM     19  N   UNL     1      -2.351   1.365   0.021  0.00  0.00    -0.339 N 
ATOM     20  H   UNL     1      -2.338   0.395   0.015  0.00  0.00    +0.144 HD
ATOM     21  H   UNL     1      -3.198   1.839   0.027  0.00  0.00    +0.144 HD
ENDBRANCH  17  19
ENDBRANCH  15  17
ENDBRANCH  14  15
ENDBRANCH   3  13
TORSDOF 6
