REMARK  Name = ZINC53097077
REMARK  7 active torsions:
REMARK  status: ('A' for Active; 'I' for Inactive)
REMARK    1  A    between atoms: C_3  and  C_8
REMARK    2  A    between atoms: C_8  and  C_10
REMARK    3  A    between atoms: C_8  and  O_20
REMARK    4  A    between atoms: C_10  and  N_11
REMARK    5  A    between atoms: N_11  and  C_12
REMARK    6  A    between atoms: C_12  and  C_18
REMARK    7  A    between atoms: C_18  and  O_19
REMARK                            x       y       z     vdW  Elec       q    Type
REMARK                         _______ _______ _______ _____ _____    ______ ____
ROOT
ATOM      1  N   UNL     1       5.421   3.097  -1.472  0.00  0.00    +0.386 N 
ATOM      2  H   UNL     1       5.273   4.008  -1.063  0.00  0.00    -0.085 HD
ATOM      3  H   UNL     1       6.115   2.597  -0.936  0.00  0.00    -0.085 HD
ENDROOT
BRANCH   1   4
ATOM      4  C   UNL     1       5.890   3.252  -2.856  0.00  0.00    -0.045 C 
ATOM      5  C   UNL     1       6.116   1.871  -3.475  0.00  0.00    -0.010 C 
ATOM      6  C   UNL     1       7.167   1.113  -2.662  0.00  0.00    -0.001 C 
ATOM      7  C   UNL     1       8.481   1.897  -2.671  0.00  0.00    -0.000 C 
ATOM      8  C   UNL     1       8.256   3.277  -2.051  0.00  0.00    -0.001 C 
ATOM      9  C   UNL     1       7.204   4.035  -2.864  0.00  0.00    -0.010 C 
BRANCH   4  10
ATOM     10  C   UNL     1       4.839   4.010  -3.668  0.00  0.00    +0.143 C 
BRANCH  10  11
ATOM     11  O   UNL     1       5.295   4.160  -5.014  0.00  0.00    -0.396 OA
ATOM     12  H   UNL     1       4.676   4.633  -5.588  0.00  0.00    +0.209 HD
ENDBRANCH  10  11
ENDBRANCH   4  10
ENDBRANCH   1   4
BRANCH   1  13
ATOM     13  C   UNL     1       4.160   2.344  -1.463  0.00  0.00    -0.045 C 
BRANCH  13  14
ATOM     14  C   UNL     1       3.672   2.183  -0.022  0.00  0.00    +0.128 C 
BRANCH  14  17
ATOM     15  C   UNL     1      -0.017   1.378   0.010  0.00  0.00    +0.001 A 
ATOM     16  C   UNL     1       1.171   2.086   0.002  0.00  0.00    +0.006 A 
ATOM     17  C   UNL     1       2.378   1.411  -0.013  0.00  0.00    -0.020 A 
ATOM     18  C   UNL     1       2.397   0.029  -0.022  0.00  0.00    +0.021 A 
ATOM     19  C   UNL     1       1.210  -0.679  -0.014  0.00  0.00    +0.018 A 
ATOM     20  C   UNL     1       0.002  -0.004   0.002  0.00  0.00    +0.015 A 
ATOM     21 BR   UNL     1       1.236  -2.570  -0.025  0.00  0.00    -0.050 Br
ENDBRANCH  14  17
BRANCH  14  22
ATOM     22  O   UNL     1       4.654   1.475   0.737  0.00  0.00    -0.389 OA
ATOM     23  H   UNL     1       4.848   0.590   0.401  0.00  0.00    +0.210 HD
ENDBRANCH  14  22
ENDBRANCH  13  14
ENDBRANCH   1  13
TORSDOF 7
