REMARK  Name = ZINC04115128
REMARK  9 active torsions:
REMARK  status: ('A' for Active; 'I' for Inactive)
REMARK    1  A    between atoms: C_1  and  C_2
REMARK    2  A    between atoms: C_2  and  C_3
REMARK    3  A    between atoms: C_2  and  N_51
REMARK    4  A    between atoms: C_10  and  C_22
REMARK    5  A    between atoms: C_12  and  C_18
REMARK    6  A    between atoms: C_12  and  C_20
REMARK    7  A    between atoms: C_14  and  C_15
REMARK    8  A    between atoms: C_26  and  O_28
REMARK    9  A    between atoms: O_28  and  C_29
REMARK                            x       y       z     vdW  Elec       q    Type
REMARK                         _______ _______ _______ _____ _____    ______ ____
ROOT
ATOM      1  C   UNL     1       0.167  -0.482   2.518  0.00  0.00    -0.051 C 
ATOM      2  C   UNL     1       1.074  -0.813   3.682  0.00  0.00    -0.044 C 
ATOM      3  C   UNL     1       1.040  -0.078   4.778  0.00  0.00    -0.051 C 
ATOM      4  C   UNL     1       0.113   1.091   4.950  0.00  0.00    +0.010 C 
ATOM      5  C   UNL     1      -0.647   1.458   3.695  0.00  0.00    -0.070 C 
ATOM      6  C   UNL     1       0.944   2.263   5.476  0.00  0.00    +0.064 C 
ATOM      7  C   UNL     1       1.482   1.902   6.864  0.00  0.00    +0.188 C 
ATOM      8  C   UNL     1       2.186   0.579   6.844  0.00  0.00    +0.065 C 
ATOM      9  C   UNL     1       1.984  -0.362   5.887  0.00  0.00    +0.163 C 
ATOM     10  N   UNL     1       3.078   0.305   7.843  0.00  0.00    -0.304 NA
ATOM     11  H   UNL     1       3.547  -0.544   7.855  0.00  0.00    +0.186 HD
ATOM     12  N   UNL     1       0.055   0.991   2.489  0.00  0.00    +0.384 N 
ATOM     13  H   UNL     1       0.997   1.399   2.470  0.00  0.00    -0.081 HD
ENDROOT
BRANCH   6  14
ATOM     14  C   UNL     1       2.084   2.538   4.529  0.00  0.00    -0.037 A 
ATOM     15  C   UNL     1       1.897   3.383   3.450  0.00  0.00    +0.004 A 
ATOM     16  C   UNL     1       2.941   3.638   2.580  0.00  0.00    +0.004 A 
ATOM     17  C   UNL     1       4.173   3.048   2.786  0.00  0.00    +0.045 A 
ATOM     18  C   UNL     1       4.362   2.200   3.866  0.00  0.00    +0.120 A 
ATOM     19  C   UNL     1       3.315   1.950   4.742  0.00  0.00    +0.049 A 
BRANCH  18  20
ATOM     20  O   UNL     1       5.574   1.618   4.071  0.00  0.00    -0.495 OA
ATOM     21  C   UNL     1       6.607   1.925   3.133  0.00  0.00    +0.277 C 
ENDBRANCH  18  20
ENDBRANCH   6  14
BRANCH  12  23
ATOM     22  C   UNL     1       0.055   0.909   0.038  0.00  0.00    -0.014 C 
ATOM     23  C   UNL     1      -0.682   1.421   1.277  0.00  0.00    -0.074 C 
ATOM     24  C   UNL     1      -0.739   2.949   1.242  0.00  0.00    -0.014 C 
ENDBRANCH  12  23
BRANCH   9  25
ATOM     25  C   UNL     1       2.676  -1.615   5.946  0.00  0.00    +0.076 C 
ATOM     26  N   UNL     1       3.224  -2.609   5.993  0.00  0.00    -0.196 NA
ENDBRANCH   9  25
BRANCH   7  27
ATOM     27  C   UNL     1       0.372   1.841   7.829  0.00  0.00    +0.091 C 
ATOM     28  N   UNL     1      -0.485   1.793   8.573  0.00  0.00    -0.195 NA
ENDBRANCH   7  27
BRANCH   7  29
ATOM     29  C   UNL     1       2.431   2.944   7.291  0.00  0.00    +0.091 C 
ATOM     30  N   UNL     1       3.163   3.748   7.620  0.00  0.00    -0.195 NA
ENDBRANCH   7  29
TORSDOF 6
