REMARK  Name = ZINC13627441
REMARK  7 active torsions:
REMARK  status: ('A' for Active; 'I' for Inactive)
REMARK    1  A    between atoms: C_1  and  C_2
REMARK    2  A    between atoms: C_8  and  C_9
REMARK    3  A    between atoms: C_8  and  N_10
REMARK    4  A    between atoms: N_10  and  C_11
REMARK    5  A    between atoms: C_11  and  C_12
REMARK    6  A    between atoms: C_15  and  S_18
REMARK    7  A    between atoms: S_18  and  N_21
REMARK                            x       y       z     vdW  Elec       q    Type
REMARK                         _______ _______ _______ _____ _____    ______ ____
ROOT
ATOM      1  C   UNL     1       1.502  -1.531   0.020  0.00  0.00    +0.068 C 
ATOM      2  C   UNL     1       2.570  -0.471   0.102  0.00  0.00    +0.071 C 
ATOM      3  N   UNL     1       3.823  -0.665   0.382  0.00  0.00    -0.175 NA
ATOM      4  N   UNL     1       4.535   0.534   0.381  0.00  0.00    -0.132 N 
ATOM      5  C   UNL     1       3.712   1.560   0.082  0.00  0.00    +0.275 C 
ATOM      6  O   UNL     1       4.012   2.739  -0.003  0.00  0.00    -0.268 OA
ATOM      7  C   UNL     1       2.384   0.970  -0.122  0.00  0.00    +0.078 C 
ATOM      8  C   UNL     1       1.210   1.628  -0.447  0.00  0.00    +0.015 C 
ATOM      9  C   UNL     1       1.174   3.134  -0.479  0.00  0.00    +0.061 C 
ATOM     10  C   UNL     1       5.891   0.654   0.649  0.00  0.00    +0.189 A 
ATOM     11  N   UNL     1       6.634   1.735   0.664  0.00  0.00    -0.223 NA
ATOM     12  C   UNL     1       7.954   1.705   0.949  0.00  0.00    +0.080 A 
ATOM     13  C   UNL     1       8.861   2.789   1.002  0.00  0.00    +0.029 A 
ATOM     14  C   UNL     1      10.182   2.582   1.303  0.00  0.00    +0.002 A 
ATOM     15  C   UNL     1      10.676   1.312   1.564  0.00  0.00    +0.001 A 
ATOM     16  C   UNL     1       9.818   0.229   1.520  0.00  0.00    +0.017 A 
ATOM     17  C   UNL     1       8.493   0.426   1.220  0.00  0.00    +0.041 A 
ATOM     18  S   UNL     1       7.071  -0.626   1.054  0.00  0.00    -0.050 S 
ENDROOT
BRANCH   8  19
ATOM     19  N   UNL     1       0.099   0.921  -0.736  0.00  0.00    -0.343 N 
ATOM     20  H   UNL     1       0.147  -0.176  -0.807  0.00  0.00    +0.146 HD
BRANCH  19  21
ATOM     21  C   UNL     1      -1.174   1.613  -0.956  0.00  0.00    +0.136 C 
BRANCH  21  22
ATOM     22  C   UNL     1      -2.248   0.603  -1.266  0.00  0.00    -0.030 A 
ATOM     23  C   UNL     1      -2.494   0.236  -2.576  0.00  0.00    +0.007 A 
ATOM     24  C   UNL     1      -3.476  -0.694  -2.861  0.00  0.00    +0.029 A 
ATOM     25  C   UNL     1      -4.219  -1.250  -1.836  0.00  0.00    +0.105 A 
ATOM     26  C   UNL     1      -3.977  -0.879  -0.527  0.00  0.00    +0.029 A 
ATOM     27  C   UNL     1      -2.992   0.048  -0.242  0.00  0.00    +0.007 A 
BRANCH  25  28
ATOM     28  S   UNL     1      -5.475  -2.432  -2.200  0.00  0.00    +0.056 S 
ATOM     29  O   UNL     1      -5.135  -3.014  -3.450  0.00  0.00    -0.153 OA
ATOM     30  O   UNL     1      -5.656  -3.207  -1.022  0.00  0.00    -0.153 OA
BRANCH  28  31
ATOM     31  N   UNL     1      -6.883  -1.593  -2.435  0.00  0.00    -0.204 NA
ATOM     32  H   UNL     1      -7.695  -2.299  -2.666  0.00  0.00    +0.144 HD
ATOM     33  H   UNL     1      -6.757  -0.893  -3.274  0.00  0.00    +0.144 HD
ENDBRANCH  28  31
ENDBRANCH  25  28
ENDBRANCH  21  22
ENDBRANCH  19  21
ENDBRANCH   8  19
TORSDOF 5
