REMARK  Name = ZINC40172720
REMARK  9 active torsions:
REMARK  status: ('A' for Active; 'I' for Inactive)
REMARK    1  A    between atoms: C_1  and  C_2
REMARK    2  A    between atoms: C_2  and  C_4
REMARK    3  A    between atoms: C_2  and  N_18
REMARK    4  A    between atoms: N_6  and  C_7
REMARK    5  A    between atoms: C_8  and  C_16
REMARK    6  A    between atoms: C_22  and  S_23
REMARK    7  A    between atoms: S_23  and  C_24
REMARK    8  A    between atoms: C_24  and  C_25
REMARK    9  A    between atoms: C_25  and  C_26
REMARK                            x       y       z     vdW  Elec       q    Type
REMARK                         _______ _______ _______ _____ _____    ______ ____
ROOT
ATOM      1  C   UNL     1      -0.019   1.526   0.010  0.00  0.00    +0.041 C 
ATOM      2  C   UNL     1       0.002  -0.004   0.002  0.00  0.00    +0.175 C 
ENDROOT
BRANCH   2   3
ATOM      3  N   UNL     1       0.711  -0.489   1.189  0.00  0.00    -0.279 N 
ATOM      4  C   UNL     1       2.008  -0.215   1.518  0.00  0.00    +0.216 A 
ATOM      5  N   UNL     1       2.278  -0.825   2.645  0.00  0.00    -0.113 NA
ATOM      6  N   UNL     1       1.126  -1.510   3.054  0.00  0.00    -0.121 NA
ATOM      7  C   UNL     1       0.188  -1.291   2.165  0.00  0.00    +0.194 A 
ATOM      8  N   UNL     1       2.887   0.571   0.784  0.00  0.00    -0.328 N 
ATOM      9  H   UNL     1       2.594   0.984  -0.043  0.00  0.00    +0.145 HD
ATOM     10  H   UNL     1       3.794   0.709   1.100  0.00  0.00    +0.145 HD
BRANCH   7  11
ATOM     11  S   UNL     1      -1.456  -1.923   2.216  0.00  0.00    -0.086 S 
BRANCH  11  12
ATOM     12  C   UNL     1      -1.504  -2.897   3.745  0.00  0.00    +0.082 C 
BRANCH  12  13
ATOM     13  C   UNL     1      -2.895  -3.511   3.916  0.00  0.00    +0.046 C 
BRANCH  13  14
ATOM     14  C   UNL     1      -2.935  -4.321   5.186  0.00  0.00    -0.047 A 
ATOM     15  C   UNL     1      -2.595  -5.660   5.162  0.00  0.00    +0.003 A 
ATOM     16  C   UNL     1      -2.631  -6.403   6.327  0.00  0.00    +0.000 A 
ATOM     17  C   UNL     1      -3.008  -5.807   7.516  0.00  0.00    +0.000 A 
ATOM     18  C   UNL     1      -3.347  -4.467   7.540  0.00  0.00    +0.000 A 
ATOM     19  C   UNL     1      -3.307  -3.723   6.375  0.00  0.00    +0.003 A 
ENDBRANCH  13  14
ENDBRANCH  12  13
ENDBRANCH  11  12
ENDBRANCH   7  11
ENDBRANCH   2   3
BRANCH   2  20
ATOM     20  C   UNL     1       0.707  -0.490  -1.238  0.00  0.00    +0.240 C 
ATOM     21  O   UNL     1       1.704  -1.175  -1.140  0.00  0.00    -0.273 OA
ATOM     22  N   UNL     1       0.231  -0.164  -2.456  0.00  0.00    -0.277 N 
ATOM     23  H   UNL     1      -0.566   0.383  -2.534  0.00  0.00    +0.155 HD
BRANCH  22  24
ATOM     24  C   UNL     1       0.881  -0.612  -3.598  0.00  0.00    +0.090 A 
ATOM     25  C   UNL     1       0.541  -0.373  -4.919  0.00  0.00    +0.084 A 
ATOM     26  C   UNL     1       1.391  -0.959  -5.940  0.00  0.00    -0.018 A 
ATOM     27  C   UNL     1       2.426  -1.678  -5.452  0.00  0.00    -0.004 A 
ATOM     28  S   UNL     1       2.263  -1.561  -3.694  0.00  0.00    -0.077 S 
ATOM     29  C   UNL     1       3.471  -2.402  -6.242  0.00  0.00    +0.043 C 
ATOM     30  C   UNL     1       2.981  -2.523  -7.693  0.00  0.00    +0.005 C 
ATOM     31  C   UNL     1       2.476  -1.155  -8.161  0.00  0.00    +0.005 C 
ATOM     32  C   UNL     1       1.174  -0.804  -7.438  0.00  0.00    +0.037 C 
BRANCH  25  33
ATOM     33  C   UNL     1      -0.601   0.418  -5.264  0.00  0.00    +0.102 C 
ATOM     34  N   UNL     1      -1.508   1.046  -5.538  0.00  0.00    -0.191 NA
ENDBRANCH  25  33
ENDBRANCH  22  24
ENDBRANCH   2  20
TORSDOF 8
