REMARK  Name = ZINC59384229
REMARK  8 active torsions:
REMARK  status: ('A' for Active; 'I' for Inactive)
REMARK    1  A    between atoms: C_1  and  C_2
REMARK    2  A    between atoms: C_2  and  O_3
REMARK    3  A    between atoms: O_3  and  C_4
REMARK    4  A    between atoms: C_7  and  C_10
REMARK    5  A    between atoms: N_11  and  N_12
REMARK    6  A    between atoms: C_13  and  C_15
REMARK    7  A    between atoms: C_16  and  C_30
REMARK    8  A    between atoms: C_21  and  C_23
REMARK                            x       y       z     vdW  Elec       q    Type
REMARK                         _______ _______ _______ _____ _____    ______ ____
ROOT
ATOM      1  C   UNL     1       2.481  -9.802  -4.225  0.00  0.00    +0.057 C 
ATOM      2  C   UNL     1       3.101 -10.419  -5.253  0.00  0.00    +0.017 C 
ATOM      3  N   UNL     1       3.139 -11.782  -5.338  0.00  0.00    -0.300 N 
ATOM      4  C   UNL     1       2.581 -12.598  -4.434  0.00  0.00    +0.135 C 
ATOM      5  S   UNL     1       2.702 -14.291  -4.660  0.00  0.00    -0.019 S 
ATOM      6  N   UNL     1       1.927 -12.130  -3.352  0.00  0.00    -0.315 N 
ATOM      7  C   UNL     1       1.835 -10.672  -3.166  0.00  0.00    +0.139 C 
ATOM      8  C   UNL     1       3.761  -9.592  -6.326  0.00  0.00    +0.061 C 
ATOM      9  H   UNL     1       3.595 -12.181  -6.095  0.00  0.00    +0.154 HD
ATOM     10  H   UNL     1       1.531 -12.739  -2.710  0.00  0.00    +0.149 HD
ENDROOT
BRANCH   7  11
ATOM     11  C   UNL     1       0.374 -10.309  -3.095  0.00  0.00    -0.023 A 
ATOM     12  C   UNL     1      -0.492 -10.728  -4.088  0.00  0.00    +0.007 A 
ATOM     13  C   UNL     1      -1.832 -10.396  -4.023  0.00  0.00    +0.015 A 
ATOM     14  C   UNL     1      -2.307  -9.644  -2.963  0.00  0.00    +0.018 A 
ATOM     15  C   UNL     1      -1.441  -9.225  -1.970  0.00  0.00    +0.015 A 
ATOM     16  C   UNL     1      -0.102  -9.562  -2.033  0.00  0.00    +0.007 A 
ATOM     17 BR   UNL     1      -4.140  -9.189  -2.874  0.00  0.00    -0.050 Br
ENDBRANCH   7  11
BRANCH   1  19
ATOM     18  N   UNL     1       1.557  -7.692  -4.878  0.00  0.00    -0.203 N 
ATOM     19  C   UNL     1       2.441  -8.389  -4.136  0.00  0.00    +0.263 C 
ATOM     20  O   UNL     1       3.205  -7.804  -3.390  0.00  0.00    -0.269 OA
ATOM     21  H   UNL     1       0.999  -8.150  -5.525  0.00  0.00    +0.178 HD
BRANCH  18  23
ATOM     22  C   UNL     1       0.595  -5.634  -5.428  0.00  0.00    +0.138 C 
ATOM     23  N   UNL     1       1.446  -6.305  -4.714  0.00  0.00    -0.187 NA
BRANCH  22  27
ATOM     24  C   UNL     1       0.255  -1.431  -4.931  0.00  0.00    +0.121 A 
ATOM     25  C   UNL     1      -0.545  -2.086  -5.859  0.00  0.00    +0.046 A 
ATOM     26  C   UNL     1      -0.438  -3.450  -6.024  0.00  0.00    +0.013 A 
ATOM     27  C   UNL     1       0.477  -4.174  -5.256  0.00  0.00    -0.005 A 
ATOM     28  C   UNL     1       1.280  -3.512  -4.324  0.00  0.00    +0.013 A 
ATOM     29  C   UNL     1       1.171  -2.147  -4.170  0.00  0.00    +0.046 A 
BRANCH  24  30
ATOM     30  O   UNL     1       0.147  -0.086  -4.772  0.00  0.00    -0.492 OA
BRANCH  30  32
ATOM     31  C   UNL     1      -0.793   2.084  -5.269  0.00  0.00    +0.048 C 
ATOM     32  C   UNL     1      -0.814   0.588  -5.587  0.00  0.00    +0.225 C 
ENDBRANCH  30  32
ENDBRANCH  24  30
ENDBRANCH  22  27
ENDBRANCH  18  23
ENDBRANCH   1  19
TORSDOF 6
