REMARK  Name = ZINC39686843
REMARK  7 active torsions:
REMARK  status: ('A' for Active; 'I' for Inactive)
REMARK    1  A    between atoms: C_1  and  C_2
REMARK    2  A    between atoms: C_2  and  C_4
REMARK    3  A    between atoms: C_2  and  N_12
REMARK    4  A    between atoms: C_4  and  C_5
REMARK    5  A    between atoms: C_13  and  C_15
REMARK    6  A    between atoms: C_26  and  C_28
REMARK    7  A    between atoms: C_34  and  C_36
REMARK                            x       y       z     vdW  Elec       q    Type
REMARK                         _______ _______ _______ _____ _____    ______ ____
ROOT
ATOM      1  C   UNL     1       2.783  -1.099   2.395  0.00  0.00    +0.100 C 
ATOM      2  C   UNL     1       2.678  -0.070   3.542  0.00  0.00    +0.121 C 
ATOM      3  N   UNL     1       3.999  -0.120   4.212  0.00  0.00    -0.299 N 
ATOM      4  C   UNL     1       4.971  -0.257   3.101  0.00  0.00    +0.115 C 
ATOM      5  C   UNL     1       4.289  -1.219   2.107  0.00  0.00    -0.004 C 
ATOM      6  C   UNL     1       4.589  -0.794   0.673  0.00  0.00    -0.010 C 
ATOM      7  C   UNL     1       6.083  -0.977   0.393  0.00  0.00    -0.082 C 
ATOM      8  N   UNL     1       6.452  -2.383   0.596  0.00  0.00    +0.379 N 
ATOM      9  C   UNL     1       6.248  -2.757   2.001  0.00  0.00    -0.082 C 
ATOM     10  C   UNL     1       4.761  -2.649   2.349  0.00  0.00    -0.010 C 
ATOM     11  C   UNL     1       4.258  -0.057   5.533  0.00  0.00    +0.236 C 
ATOM     12  O   UNL     1       5.402  -0.111   5.930  0.00  0.00    -0.274 OA
ATOM     13  H   UNL     1       5.879  -2.968   0.007  0.00  0.00    -0.086 HD
ATOM     14  H   UNL     1       7.423  -2.513   0.352  0.00  0.00    -0.086 HD
ENDROOT
BRANCH  11  15
ATOM     15  C   UNL     1       3.125   0.083   6.517  0.00  0.00    +0.162 C 
ATOM     16  C   UNL     1       2.669   1.555   6.588  0.00  0.00    +0.033 C 
ATOM     17  C   UNL     1       2.364   1.753   8.096  0.00  0.00    +0.021 C 
ATOM     18  C   UNL     1       3.455   0.870   8.752  0.00  0.00    +0.109 C 
ATOM     19  N   UNL     1       3.580  -0.301   7.862  0.00  0.00    -0.283 N 
ATOM     20  C   UNL     1       4.035  -1.519   8.219  0.00  0.00    +0.320 C 
ATOM     21  O   UNL     1       4.094  -2.409   7.397  0.00  0.00    -0.266 OA
BRANCH  20  22
ATOM     22  C   UNL     1       4.471  -1.774   9.639  0.00  0.00    +0.470 C 
ATOM     23  F   UNL     1       4.900  -3.099   9.764  0.00  0.00    -0.162 F 
ATOM     24  F   UNL     1       5.522  -0.910   9.966  0.00  0.00    -0.162 F 
ATOM     25  F   UNL     1       3.396  -1.548  10.504  0.00  0.00    -0.162 F 
ENDBRANCH  20  22
ENDBRANCH  11  15
BRANCH   1  27
ATOM     26  N   UNL     1       1.441  -1.474   0.350  0.00  0.00    -0.312 N 
ATOM     27  C   UNL     1       2.054  -0.600   1.174  0.00  0.00    +0.218 C 
ATOM     28  O   UNL     1       2.019   0.588   0.932  0.00  0.00    -0.275 OA
ATOM     29  H   UNL     1       1.469  -2.424   0.544  0.00  0.00    +0.149 HD
BRANCH  26  31
ATOM     30  C   UNL     1      -0.691  -0.580  -0.450  0.00  0.00    +0.028 C 
ATOM     31  C   UNL     1       0.732  -0.988  -0.836  0.00  0.00    +0.074 C 
BRANCH  31  32
ATOM     32  C   UNL     1       0.677  -2.099  -1.887  0.00  0.00    +0.060 C 
BRANCH  32  33
ATOM     33  C   UNL     1       2.073  -2.416  -2.358  0.00  0.00    -0.010 A 
ATOM     34  C   UNL     1       2.573  -1.811  -3.495  0.00  0.00    +0.006 A 
ATOM     35  C   UNL     1       3.853  -2.101  -3.928  0.00  0.00    +0.000 A 
ATOM     36  C   UNL     1       4.635  -2.997  -3.222  0.00  0.00    +0.003 A 
ATOM     37  C   UNL     1       4.138  -3.603  -2.085  0.00  0.00    +0.038 A 
ATOM     38  C   UNL     1       2.857  -3.309  -1.648  0.00  0.00    +0.127 A 
ATOM     39  F   UNL     1       2.371  -3.897  -0.533  0.00  0.00    -0.205 F 
ENDBRANCH  32  33
ENDBRANCH  31  32
ENDBRANCH  26  31
ENDBRANCH   1  27
TORSDOF 6
