REMARK  Name = ZINC18541155
REMARK  4 active torsions:
REMARK  status: ('A' for Active; 'I' for Inactive)
REMARK    1  A    between atoms: C_2  and  C_13
REMARK    2  A    between atoms: C_13  and  S_14
REMARK    3  A    between atoms: S_14  and  C_15
REMARK    4  A    between atoms: C_19  and  N_21
REMARK                            x       y       z     vdW  Elec       q    Type
REMARK                         _______ _______ _______ _____ _____    ______ ____
ROOT
ATOM      1  C   UNL     1       1.159   3.590   0.011  0.00  0.00    +0.112 C 
ENDROOT
BRANCH   1   3
ATOM      2  C   UNL     1      -0.017   1.380   0.010  0.00  0.00    +0.054 A 
ATOM      3  C   UNL     1       1.175   2.083   0.002  0.00  0.00    -0.032 A 
ATOM      4  C   UNL     1       2.381   1.407  -0.014  0.00  0.00    +0.028 A 
ATOM      5  C   UNL     1       2.404   0.023  -0.022  0.00  0.00    +0.086 A 
ATOM      6  C   UNL     1       1.212  -0.683  -0.013  0.00  0.00    +0.180 A 
ATOM      7  C   UNL     1       0.002  -0.004   0.002  0.00  0.00    +0.164 A 
ATOM      8  O   UNL     1      -1.167  -0.709   0.010  0.00  0.00    -0.488 OA
ATOM      9  C   UNL     1      -1.468  -1.433  -1.184  0.00  0.00    +0.232 C 
ATOM     10  C   UNL     1      -0.780  -2.789  -1.181  0.00  0.00    +0.082 C 
ATOM     11  C   UNL     1       0.736  -2.670  -1.212  0.00  0.00    +0.232 C 
ATOM     12  O   UNL     1       1.220  -2.048  -0.020  0.00  0.00    -0.487 OA
ATOM     13 CL   UNL     1       3.919  -0.824  -0.042  0.00  0.00    -0.080 Cl
ENDBRANCH   1   3
BRANCH   1  14
ATOM     14  S   UNL     1       1.169   4.185   1.724  0.00  0.00    -0.081 S 
BRANCH  14  15
ATOM     15  C   UNL     1       1.148   5.940   1.566  0.00  0.00    +0.192 A 
ATOM     16  N   UNL     1       1.125   6.478   0.356  0.00  0.00    -0.207 NA
ATOM     17  C   UNL     1       1.108   7.800   0.198  0.00  0.00    +0.122 A 
ATOM     18  C   UNL     1       1.115   8.617   1.325  0.00  0.00    +0.086 A 
ATOM     19  C   UNL     1       1.140   8.015   2.580  0.00  0.00    +0.122 A 
ATOM     20  N   UNL     1       1.150   6.686   2.661  0.00  0.00    -0.207 NA
ATOM     21  N   UNL     1       1.085   8.355  -1.072  0.00  0.00    -0.343 N 
ATOM     22  H   UNL     1       1.080   7.780  -1.853  0.00  0.00    +0.144 HD
ATOM     23  H   UNL     1       1.073   9.319  -1.179  0.00  0.00    +0.144 HD
BRANCH  19  24
ATOM     24  N   UNL     1       1.148   8.789   3.730  0.00  0.00    -0.343 N 
ATOM     25  H   UNL     1       1.137   9.756   3.663  0.00  0.00    +0.144 HD
ATOM     26  H   UNL     1       1.165   8.362   4.601  0.00  0.00    +0.144 HD
ENDBRANCH  19  24
ENDBRANCH  14  15
ENDBRANCH   1  14
TORSDOF 4
