REMARK  Name = ZINC39661343
REMARK  5 active torsions:
REMARK  status: ('A' for Active; 'I' for Inactive)
REMARK    1  A    between atoms: C_4  and  O_7
REMARK    2  A    between atoms: O_7  and  C_8
REMARK    3  A    between atoms: C_11  and  C_14
REMARK    4  A    between atoms: C_18  and  C_27
REMARK    5  A    between atoms: N_29  and  C_30
REMARK                            x       y       z     vdW  Elec       q    Type
REMARK                         _______ _______ _______ _____ _____    ______ ____
ROOT
ATOM      1  C   UNL     1       3.164  -6.172  -0.435  0.00  0.00    +0.248 C 
ATOM      2  O   UNL     1       4.141  -6.894  -0.379  0.00  0.00    -0.270 OA
ATOM      3  N   UNL     1       1.942  -6.705  -0.628  0.00  0.00    -0.296 N 
ATOM      4  C   UNL     1       0.639  -6.001  -0.667  0.00  0.00    +0.121 C 
ATOM      5  C   UNL     1      -0.149  -6.699  -1.798  0.00  0.00    +0.100 C 
ATOM      6  C   UNL     1       0.483  -8.096  -1.912  0.00  0.00    -0.004 C 
ATOM      7  C   UNL     1       1.598  -8.130  -0.856  0.00  0.00    +0.115 C 
ATOM      8  C   UNL     1      -0.557  -9.172  -1.617  0.00  0.00    -0.010 C 
ATOM      9  C   UNL     1       0.080 -10.554  -1.794  0.00  0.00    -0.082 C 
ATOM     10  N   UNL     1       0.581 -10.692  -3.167  0.00  0.00    +0.379 N 
ATOM     11  C   UNL     1       1.647  -9.713  -3.412  0.00  0.00    -0.082 C 
ATOM     12  C   UNL     1       1.075  -8.296  -3.304  0.00  0.00    -0.010 C 
ATOM     13  H   UNL     1       0.945 -11.624  -3.298  0.00  0.00    -0.086 HD
ATOM     14  H   UNL     1      -0.175 -10.534  -3.816  0.00  0.00    -0.086 HD
ENDROOT
BRANCH   1  18
ATOM     15  C   UNL     1       3.673  -2.017  -0.067  0.00  0.00    +0.220 A 
ATOM     16  C   UNL     1       2.506  -2.584   0.435  0.00  0.00    +0.068 A 
ATOM     17  C   UNL     1       2.317  -3.946   0.325  0.00  0.00    +0.020 A 
ATOM     18  C   UNL     1       3.317  -4.710  -0.293  0.00  0.00    +0.055 A 
ATOM     19  C   UNL     1       4.460  -4.068  -0.772  0.00  0.00    +0.127 A 
ATOM     20  N   UNL     1       4.597  -2.764  -0.651  0.00  0.00    -0.220 NA
BRANCH  15  21
ATOM     21  O   UNL     1       3.864  -0.680   0.037  0.00  0.00    -0.438 OA
BRANCH  21  25
ATOM     22  C   UNL     1       7.196   0.949  -1.770  0.00  0.00    +0.000 A 
ATOM     23  C   UNL     1       6.198   0.386  -2.543  0.00  0.00    +0.004 A 
ATOM     24  C   UNL     1       5.081  -0.160  -1.940  0.00  0.00    +0.046 A 
ATOM     25  C   UNL     1       4.962  -0.143  -0.558  0.00  0.00    +0.130 A 
ATOM     26  C   UNL     1       5.965   0.422   0.216  0.00  0.00    +0.046 A 
ATOM     27  C   UNL     1       7.080   0.967  -0.392  0.00  0.00    +0.004 A 
ENDBRANCH  21  25
ENDBRANCH  15  21
ENDBRANCH   1  18
BRANCH   5  28
ATOM     28  C   UNL     1       0.008  -5.942  -3.091  0.00  0.00    +0.219 C 
ATOM     29  O   UNL     1       1.056  -5.387  -3.346  0.00  0.00    -0.275 OA
ATOM     30  N   UNL     1      -1.016  -5.882  -3.966  0.00  0.00    -0.304 N 
ATOM     31  H   UNL     1      -1.854  -6.325  -3.762  0.00  0.00    +0.149 HD
BRANCH  30  32
ATOM     32  C   UNL     1      -0.863  -5.146  -5.223  0.00  0.00    +0.151 C 
ATOM     33  C   UNL     1      -1.803  -5.748  -6.269  0.00  0.00    +0.042 C 
ATOM     34  C   UNL     1      -2.068  -4.665  -7.343  0.00  0.00    +0.079 C 
ATOM     35  S   UNL     1      -1.914  -3.123  -6.362  0.00  0.00    -0.086 S 
ATOM     36  C   UNL     1      -1.155  -3.685  -4.976  0.00  0.00    +0.209 C 
ATOM     37  O   UNL     1      -0.893  -3.046  -3.978  0.00  0.00    -0.283 OA
ENDBRANCH  30  32
ENDBRANCH   5  28
TORSDOF 5
