REMARK  Name = ZINC40286024
REMARK  6 active torsions:
REMARK  status: ('A' for Active; 'I' for Inactive)
REMARK    1  A    between atoms: C_3  and  O_29
REMARK    2  A    between atoms: C_6  and  C_7
REMARK    3  A    between atoms: C_10  and  O_28
REMARK    4  A    between atoms: N_16  and  C_17
REMARK    5  A    between atoms: C_20  and  O_23
REMARK    6  A    between atoms: O_23  and  C_24
REMARK                            x       y       z     vdW  Elec       q    Type
REMARK                         _______ _______ _______ _____ _____    ______ ____
ROOT
ATOM      1  C   UNL     1      -1.293  -0.774   0.011  0.00  0.00    +0.080 C 
ATOM      2  C   UNL     1      -1.350  -1.681   1.245  0.00  0.00    +0.110 C 
ATOM      3  C   UNL     1      -0.509  -2.910   1.064  0.00  0.00    +0.190 C 
ATOM      4  N   UNL     1      -0.328  -3.489  -0.086  0.00  0.00    -0.197 NA
ATOM      5  C   UNL     1      -0.899  -2.942  -1.198  0.00  0.00    +0.165 A 
ATOM      6  C   UNL     1      -1.373  -1.653  -1.212  0.00  0.00    +0.094 A 
ATOM      7  N   UNL     1      -1.861  -1.404  -2.420  0.00  0.00    -0.237 NA
ATOM      8  C   UNL     1      -1.726  -2.468  -3.173  0.00  0.00    +0.206 A 
ATOM      9  N   UNL     1      -1.127  -3.457  -2.440  0.00  0.00    -0.283 N 
ENDROOT
BRANCH   1  15
ATOM     10  C   UNL     1      -0.017   1.378   0.010  0.00  0.00    +0.008 A 
ATOM     11  C   UNL     1       1.169   2.087   0.002  0.00  0.00    +0.045 A 
ATOM     12  C   UNL     1       2.380   1.409  -0.013  0.00  0.00    +0.117 A 
ATOM     13  C   UNL     1       2.396   0.022  -0.021  0.00  0.00    +0.045 A 
ATOM     14  C   UNL     1       1.207  -0.681  -0.013  0.00  0.00    +0.008 A 
ATOM     15  C   UNL     1       0.002  -0.004   0.002  0.00  0.00    -0.038 A 
BRANCH  12  16
ATOM     16  O   UNL     1       3.548   2.104  -0.021  0.00  0.00    -0.507 OA
ATOM     17  H   UNL     1       3.895   2.300   0.860  0.00  0.00    +0.292 HD
ENDBRANCH  12  16
ENDBRANCH   1  15
BRANCH   9  18
ATOM     18  C   UNL     1      -0.809  -4.750  -2.881  0.00  0.00    +0.050 A 
ATOM     19  C   UNL     1       0.465  -5.262  -2.673  0.00  0.00    +0.030 A 
ATOM     20  C   UNL     1       0.777  -6.535  -3.107  0.00  0.00    +0.048 A 
ATOM     21  C   UNL     1      -0.182  -7.303  -3.752  0.00  0.00    +0.130 A 
ATOM     22  C   UNL     1      -1.455  -6.792  -3.961  0.00  0.00    +0.048 A 
ATOM     23  C   UNL     1      -1.770  -5.521  -3.521  0.00  0.00    +0.030 A 
BRANCH  21  24
ATOM     24  O   UNL     1       0.126  -8.556  -4.180  0.00  0.00    -0.406 OA
BRANCH  24  25
ATOM     25  C   UNL     1      -0.910  -9.290  -4.836  0.00  0.00    +0.575 C 
ATOM     26  F   UNL     1      -1.323  -8.594  -5.977  0.00  0.00    -0.133 F 
ATOM     27  F   UNL     1      -0.425 -10.549  -5.207  0.00  0.00    -0.133 F 
ATOM     28  F   UNL     1      -1.994  -9.446  -3.966  0.00  0.00    -0.133 F 
ENDBRANCH  24  25
ENDBRANCH  21  24
ENDBRANCH   9  18
BRANCH   3  29
ATOM     29  O   UNL     1       0.091  -3.442   2.150  0.00  0.00    -0.495 OA
ATOM     30  H   UNL     1       0.617  -4.231   1.962  0.00  0.00    +0.293 HD
ENDBRANCH   3  29
TORSDOF 6
