REMARK  Name = ZINC36597421
REMARK  13 active torsions:
REMARK  status: ('A' for Active; 'I' for Inactive)
REMARK    1  A    between atoms: C_1  and  C_2
REMARK    2  A    between atoms: C_5  and  C_7
REMARK    3  A    between atoms: C_7  and  N_8
REMARK    4  A    between atoms: N_8  and  C_9
REMARK    5  A    between atoms: C_9  and  C_11
REMARK    6  A    between atoms: C_9  and  C_17
REMARK    7  A    between atoms: N_19  and  C_20
REMARK    8  A    between atoms: C_20  and  C_21
REMARK    9  A    between atoms: C_20  and  C_22
REMARK   10  A    between atoms: C_20  and  C_23
REMARK   11  A    between atoms: C_24  and  C_26
REMARK   12  A    between atoms: C_27  and  O_33
REMARK   13  A    between atoms: C_31  and  O_32
REMARK                            x       y       z     vdW  Elec       q    Type
REMARK                         _______ _______ _______ _____ _____    ______ ____
ROOT
ATOM      1  N   UNL     1       2.077  -3.089  -1.100  0.00  0.00    -0.278 N 
ATOM      2  C   UNL     1       1.039  -3.929  -1.284  0.00  0.00    +0.255 C 
ATOM      3  O   UNL     1       0.968  -4.595  -2.299  0.00  0.00    -0.270 OA
ENDROOT
BRANCH   2   4
ATOM      4  C   UNL     1      -0.008  -4.041  -0.255  0.00  0.00    +0.119 A 
ATOM      5  C   UNL     1      -1.137  -3.211  -0.303  0.00  0.00    +0.133 A 
ATOM      6  C   UNL     1      -2.117  -3.325   0.670  0.00  0.00    +0.046 A 
ATOM      7  C   UNL     1      -1.985  -4.253   1.685  0.00  0.00    +0.007 A 
ATOM      8  C   UNL     1      -0.876  -5.076   1.743  0.00  0.00    +0.046 A 
ATOM      9  C   UNL     1       0.113  -4.983   0.777  0.00  0.00    +0.133 A 
BRANCH   9  10
ATOM     10  O   UNL     1       1.198  -5.796   0.832  0.00  0.00    -0.506 OA
ATOM     11  H   UNL     1       1.935  -5.435   1.343  0.00  0.00    +0.292 HD
ENDBRANCH   9  10
BRANCH   5  12
ATOM     12  O   UNL     1      -1.269  -2.298  -1.299  0.00  0.00    -0.506 OA
ATOM     13  H   UNL     1      -1.728  -2.634  -2.081  0.00  0.00    +0.292 HD
ENDBRANCH   5  12
ENDBRANCH   2   4
BRANCH   1  14
ATOM     14  C   UNL     1       2.163  -2.287   0.123  0.00  0.00    +0.183 C 
BRANCH  14  19
ATOM     15  C   UNL     1       1.341   2.542  -1.078  0.00  0.00    +0.086 C 
ATOM     16  C   UNL     1       1.104   1.129  -0.611  0.00  0.00    +0.102 A 
ATOM     17  C   UNL     1      -0.069   0.630  -0.182  0.00  0.00    +0.045 A 
ATOM     18  C   UNL     1       0.161  -0.724   0.155  0.00  0.00    +0.046 A 
ATOM     19  C   UNL     1       1.461  -0.971  -0.089  0.00  0.00    +0.122 A 
ATOM     20  O   UNL     1       2.025   0.154  -0.558  0.00  0.00    -0.463 OA
ENDBRANCH  14  19
ENDBRANCH   1  14
BRANCH   1  21
ATOM     21  C   UNL     1       3.119  -2.977  -2.124  0.00  0.00    +0.166 C 
BRANCH  21  22
ATOM     22  C   UNL     1       3.780  -4.342  -2.329  0.00  0.00    +0.019 C 
ATOM     23  C   UNL     1       4.295  -4.867  -0.987  0.00  0.00    +0.006 C 
ATOM     24  C   UNL     1       4.955  -6.231  -1.193  0.00  0.00    +0.000 C 
ATOM     25  C   UNL     1       6.126  -6.089  -2.167  0.00  0.00    +0.000 C 
ATOM     26  C   UNL     1       5.612  -5.564  -3.509  0.00  0.00    +0.000 C 
ATOM     27  C   UNL     1       4.951  -4.200  -3.304  0.00  0.00    +0.006 C 
ENDBRANCH  21  22
BRANCH  21  28
ATOM     28  C   UNL     1       2.503  -2.517  -3.420  0.00  0.00    +0.234 C 
ATOM     29  O   UNL     1       1.300  -2.557  -3.567  0.00  0.00    -0.274 OA
ATOM     30  N   UNL     1       3.289  -2.062  -4.415  0.00  0.00    -0.309 N 
ATOM     31  H   UNL     1       4.254  -2.100  -4.327  0.00  0.00    +0.149 HD
BRANCH  30  32
ATOM     32  C   UNL     1       2.686  -1.510  -5.631  0.00  0.00    +0.026 C 
ATOM     33  C   UNL     1       1.816  -0.305  -5.266  0.00  0.00    +0.031 C 
ATOM     34  C   UNL     1       3.790  -1.069  -6.593  0.00  0.00    +0.031 C 
ATOM     35  C   UNL     1       1.821  -2.579  -6.302  0.00  0.00    +0.031 C 
ENDBRANCH  30  32
ENDBRANCH  21  28
ENDBRANCH   1  21
TORSDOF 9
