REMARK  Name = ZINC40312842
REMARK  14 active torsions:
REMARK  status: ('A' for Active; 'I' for Inactive)
REMARK    1  A    between atoms: C_1  and  C_2
REMARK    2  A    between atoms: C_5  and  O_8
REMARK    3  A    between atoms: O_8  and  C_9
REMARK    4  A    between atoms: C_9  and  C_10
REMARK    5  A    between atoms: C_10  and  C_12
REMARK    6  A    between atoms: C_10  and  O_39
REMARK    7  A    between atoms: C_12  and  N_13
REMARK    8  A    between atoms: N_13  and  C_14
REMARK    9  A    between atoms: C_15  and  C_28
REMARK   10  A    between atoms: C_20  and  C_24
REMARK   11  A    between atoms: C_24  and  C_25
REMARK   12  A    between atoms: C_24  and  C_26
REMARK   13  A    between atoms: C_24  and  C_27
REMARK   14  A    between atoms: N_30  and  C_31
REMARK                            x       y       z     vdW  Elec       q    Type
REMARK                         _______ _______ _______ _____ _____    ______ ____
ROOT
ATOM      1  C   UNL     1       0.512  -9.288   3.270  0.00  0.00    +0.078 A 
ATOM      2  C   UNL     1       0.659 -10.667   3.263  0.00  0.00    +0.068 A 
ATOM      3  C   UNL     1       0.793 -11.326   4.552  0.00  0.00    -0.023 A 
ATOM      4  C   UNL     1       0.756 -10.486   5.608  0.00  0.00    -0.004 A 
ATOM      5  S   UNL     1       0.555  -8.879   4.898  0.00  0.00    -0.078 S 
ATOM      6  C   UNL     1       0.868 -10.855   7.055  0.00  0.00    +0.046 C 
ATOM      7  C   UNL     1       1.410 -12.289   7.147  0.00  0.00    -0.000 C 
ATOM      8  C   UNL     1       0.616 -13.181   6.188  0.00  0.00    +0.009 C 
ATOM      9  C   UNL     1       0.962 -12.826   4.740  0.00  0.00    +0.037 C 
ENDROOT
BRANCH   7  10
ATOM     10  C   UNL     1       1.254 -12.805   8.579  0.00  0.00    -0.035 C 
ATOM     11  C   UNL     1      -0.226 -12.795   8.966  0.00  0.00    +0.011 C 
ATOM     12  C   UNL     1       1.795 -14.234   8.668  0.00  0.00    +0.011 C 
ATOM     13  C   UNL     1       2.038 -11.903   9.534  0.00  0.00    +0.011 C 
ENDBRANCH   7  10
BRANCH   2  14
ATOM     14  C   UNL     1       0.679 -11.427   2.012  0.00  0.00    +0.247 C 
ATOM     15  O   UNL     1       1.734 -11.632   1.440  0.00  0.00    -0.270 OA
ATOM     16  N   UNL     1      -0.471 -11.901   1.493  0.00  0.00    -0.307 N 
ATOM     17  H   UNL     1      -1.312 -11.738   1.948  0.00  0.00    +0.149 HD
BRANCH  16  18
ATOM     18  C   UNL     1      -0.452 -12.661   0.241  0.00  0.00    +0.096 C 
ATOM     19  C   UNL     1      -0.521 -11.696  -0.954  0.00  0.00    +0.046 C 
ATOM     20  C   UNL     1      -0.823 -12.483  -2.252  0.00  0.00    +0.168 C 
ATOM     21  S   UNL     1      -1.767 -13.936  -1.633  0.00  0.00    -0.029 S 
ATOM     22  O   UNL     1      -1.032 -15.119  -1.915  0.00  0.00    -0.174 OA
ATOM     23  O   UNL     1      -3.115 -13.830  -2.067  0.00  0.00    -0.174 OA
ATOM     24  C   UNL     1      -1.691 -13.600   0.177  0.00  0.00    +0.188 C 
ENDBRANCH  16  18
ENDBRANCH   2  14
BRANCH   1  25
ATOM     25  N   UNL     1       0.369  -8.443   2.185  0.00  0.00    -0.335 N 
ATOM     26  H   UNL     1       0.360  -8.806   1.286  0.00  0.00    +0.147 HD
BRANCH  25  27
ATOM     27  C   UNL     1       0.232  -7.000   2.393  0.00  0.00    +0.136 C 
BRANCH  27  28
ATOM     28  C   UNL     1       0.090  -6.300   1.040  0.00  0.00    +0.169 C 
BRANCH  28  29
ATOM     29  O   UNL     1      -1.129  -6.710   0.417  0.00  0.00    -0.387 OA
ATOM     30  H   UNL     1      -1.922  -6.503   0.930  0.00  0.00    +0.210 HD
ENDBRANCH  28  29
BRANCH  28  31
ATOM     31  C   UNL     1       0.072  -4.785   1.249  0.00  0.00    +0.261 C 
BRANCH  31  32
ATOM     32  O   UNL     1       0.057  -4.129  -0.021  0.00  0.00    -0.489 OA
BRANCH  32  37
ATOM     33  C   UNL     1      -0.018   1.503   0.010  0.00  0.00    +0.044 C 
ATOM     34  C   UNL     1       0.002  -0.004   0.002  0.00  0.00    -0.050 A 
ATOM     35  C   UNL     1       0.006  -0.688  -1.200  0.00  0.00    +0.007 A 
ATOM     36  C   UNL     1       0.024  -2.069  -1.210  0.00  0.00    +0.046 A 
ATOM     37  C   UNL     1       0.039  -2.770  -0.013  0.00  0.00    +0.121 A 
ATOM     38  C   UNL     1       0.036  -2.082   1.191  0.00  0.00    +0.046 A 
ATOM     39  C   UNL     1       0.023  -0.701   1.196  0.00  0.00    +0.007 A 
ENDBRANCH  32  37
ENDBRANCH  31  32
ENDBRANCH  28  31
ENDBRANCH  27  28
ENDBRANCH  25  27
ENDBRANCH   1  25
TORSDOF 10
