REMARK  Name = ZINC13064234
REMARK  15 active torsions:
REMARK  status: ('A' for Active; 'I' for Inactive)
REMARK    1  A    between atoms: C_1  and  C_2
REMARK    2  A    between atoms: C_2  and  C_3
REMARK    3  A    between atoms: C_3  and  C_5
REMARK    4  A    between atoms: C_3  and  N_69
REMARK    5  A    between atoms: N_9  and  C_10
REMARK    6  A    between atoms: C_10  and  C_11
REMARK    7  A    between atoms: C_10  and  C_12
REMARK    8  A    between atoms: C_10  and  C_13
REMARK    9  A    between atoms: C_13  and  C_14
REMARK   10  A    between atoms: C_15  and  C_16
REMARK   11  A    between atoms: C_15  and  N_69
REMARK   12  A    between atoms: C_23  and  C_24
REMARK   13  A    between atoms: C_23  and  N_69
REMARK   14  A    between atoms: C_29  and  O_36
REMARK   15  A    between atoms: O_36  and  C_37
REMARK                            x       y       z     vdW  Elec       q    Type
REMARK                         _______ _______ _______ _____ _____    ______ ____
ROOT
ATOM      1  N   UNL     1       2.381   0.652   9.267  0.00  0.00    +0.392 N 
ATOM      2  H   UNL     1       2.033   1.613   9.160  0.00  0.00    -0.080 HD
ENDROOT
BRANCH   1   3
ATOM      3  C   UNL     1       2.300   0.267  10.691  0.00  0.00    +0.003 C 
BRANCH   3   4
ATOM      4  C   UNL     1       2.404   1.514  11.532  0.00  0.00    +0.139 A 
ATOM      5  N   UNL     1       3.296   2.467  11.411  0.00  0.00    -0.115 NA
ATOM      6  N   UNL     1       3.052   3.357  12.309  0.00  0.00    -0.023 NA
ATOM      7  N   UNL     1       2.027   2.997  13.000  0.00  0.00    -0.043 NA
ATOM      8  N   UNL     1       1.596   1.868  12.548  0.00  0.00    -0.225 N 
BRANCH   8   9
ATOM      9  C   UNL     1       0.445   1.113  13.049  0.00  0.00    +0.061 C 
ATOM     10  C   UNL     1      -0.623   1.026  11.956  0.00  0.00    +0.036 C 
ATOM     11  C   UNL     1       0.892  -0.298  13.438  0.00  0.00    +0.036 C 
BRANCH   9  12
ATOM     12  C   UNL     1      -0.135   1.820  14.275  0.00  0.00    +0.026 C 
ATOM     13  C   UNL     1      -1.337   1.031  14.798  0.00  0.00    +0.006 C 
ENDBRANCH   9  12
ENDBRANCH   8   9
ENDBRANCH   3   4
BRANCH   3  15
ATOM     14  C   UNL     1       3.234  -2.022  10.332  0.00  0.00    +0.002 C 
ATOM     15  C   UNL     1       3.440  -0.687  11.051  0.00  0.00    -0.011 C 
ENDBRANCH   3  15
ENDBRANCH   1   3
BRANCH   1  16
ATOM     16  C   UNL     1       3.785   0.598   8.809  0.00  0.00    -0.042 C 
BRANCH  16  17
ATOM     17  C   UNL     1       4.504   1.825   9.307  0.00  0.00    -0.064 A 
ATOM     18  C   UNL     1       4.354   3.030   8.647  0.00  0.00    +0.004 A 
ATOM     19  C   UNL     1       5.009   4.157   9.107  0.00  0.00    +0.038 A 
ATOM     20  C   UNL     1       5.824   4.076  10.223  0.00  0.00    +0.123 A 
ATOM     21  C   UNL     1       5.979   2.867  10.880  0.00  0.00    +0.038 A 
ATOM     22  C   UNL     1       5.319   1.743  10.422  0.00  0.00    +0.004 A 
ATOM     23  F   UNL     1       6.469   5.176  10.670  0.00  0.00    -0.205 F 
ENDBRANCH  16  17
ENDBRANCH   1  16
BRANCH   1  24
ATOM     24  C   UNL     1       1.548  -0.254   8.450  0.00  0.00    -0.036 C 
BRANCH  24  25
ATOM     25  C   UNL     1       1.346   0.367   7.092  0.00  0.00    +0.001 A 
ATOM     26  C   UNL     1       2.155   0.015   6.060  0.00  0.00    +0.017 A 
ATOM     27  C   UNL     1       1.933   0.635   4.755  0.00  0.00    -0.001 A 
ATOM     28  C   UNL     1       2.736   0.310   3.654  0.00  0.00    +0.013 A 
ATOM     29  C   UNL     1       2.502   0.901   2.447  0.00  0.00    +0.046 A 
ATOM     30  C   UNL     1       1.476   1.834   2.302  0.00  0.00    +0.122 A 
ATOM     31  C   UNL     1       0.671   2.168   3.377  0.00  0.00    +0.072 A 
ATOM     32  C   UNL     1       0.891   1.573   4.613  0.00  0.00    +0.053 A 
ATOM     33  N   UNL     1       0.104   1.887   5.701  0.00  0.00    -0.322 N 
ATOM     34  H   UNL     1      -0.612   2.533   5.602  0.00  0.00    +0.169 HD
ATOM     35  C   UNL     1       0.317   1.311   6.897  0.00  0.00    +0.251 A 
ATOM     36  O   UNL     1      -0.397   1.614   7.838  0.00  0.00    -0.268 OA
BRANCH  30  37
ATOM     37  O   UNL     1       1.262   2.416   1.095  0.00  0.00    -0.495 OA
ATOM     38  C   UNL     1       2.126   2.029   0.025  0.00  0.00    +0.277 C 
ENDBRANCH  30  37
ENDBRANCH  24  25
ENDBRANCH   1  24
TORSDOF 10
