REMARK  Name = ZINC04015338
REMARK  14 active torsions:
REMARK  status: ('A' for Active; 'I' for Inactive)
REMARK    1  A    between atoms: C_1  and  C_2
REMARK    2  A    between atoms: C_2  and  O_3
REMARK    3  A    between atoms: O_3  and  C_4
REMARK    4  A    between atoms: C_4  and  C_6
REMARK    5  A    between atoms: C_7  and  C_21
REMARK    6  A    between atoms: N_8  and  C_20
REMARK    7  A    between atoms: C_11  and  C_17
REMARK    8  A    between atoms: C_12  and  O_16
REMARK    9  A    between atoms: C_17  and  N_56
REMARK   10  A    between atoms: C_18  and  N_56
REMARK   11  A    between atoms: C_19  and  N_56
REMARK   12  A    between atoms: C_21  and  O_22
REMARK   13  A    between atoms: O_22  and  C_23
REMARK   14  A    between atoms: C_26  and  N_29
REMARK                            x       y       z     vdW  Elec       q    Type
REMARK                         _______ _______ _______ _____ _____    ______ ____
ROOT
ATOM      1  C   UNL     1       3.946   3.230   2.384  0.00  0.00    +0.091 A 
ATOM      2  C   UNL     1       5.027   3.836   1.812  0.00  0.00    +0.071 A 
ATOM      3  N   UNL     1       5.007   3.639   0.472  0.00  0.00    -0.343 N 
ATOM      4  C   UNL     1       3.904   2.890   0.111  0.00  0.00    +0.051 A 
ATOM      5  C   UNL     1       3.191   2.600   1.285  0.00  0.00    +0.019 A 
ATOM      6  C   UNL     1       2.017   1.854   1.223  0.00  0.00    -0.011 A 
ATOM      7  C   UNL     1       1.563   1.393   0.001  0.00  0.00    +0.133 A 
ATOM      8  C   UNL     1       2.271   1.681  -1.162  0.00  0.00    +0.061 A 
ATOM      9  C   UNL     1       3.432   2.423  -1.111  0.00  0.00    +0.045 A 
ATOM     10 BR   UNL     1       1.635   1.050  -2.828  0.00  0.00    -0.046 Br
ATOM     11  C   UNL     1       6.014   4.149  -0.462  0.00  0.00    +0.149 C 
ENDROOT
BRANCH   1  12
ATOM     12  C   UNL     1       3.603   3.209   3.810  0.00  0.00    +0.342 C 
ATOM     13  O   UNL     1       2.967   4.125   4.295  0.00  0.00    -0.245 OA
BRANCH  12  14
ATOM     14  O   UNL     1       3.993   2.175   4.582  0.00  0.00    -0.461 OA
BRANCH  14  16
ATOM     15  C   UNL     1       4.145   0.974   6.695  0.00  0.00    +0.048 C 
ATOM     16  C   UNL     1       3.619   2.222   5.984  0.00  0.00    +0.229 C 
ENDBRANCH  14  16
ENDBRANCH  12  14
ENDBRANCH   1  12
BRANCH   7  17
ATOM     17  O   UNL     1       0.420   0.660  -0.065  0.00  0.00    -0.505 OA
ATOM     18  H   UNL     1       0.558  -0.294   0.018  0.00  0.00    +0.292 HD
ENDBRANCH   7  17
BRANCH   6  19
ATOM     19  C   UNL     1       1.247   1.546   2.482  0.00  0.00    -0.039 C 
BRANCH  19  22
ATOM     20  C   UNL     1      -0.785   2.729   1.904  0.00  0.00    -0.096 C 
ATOM     21  C   UNL     1      -0.061   2.622   4.212  0.00  0.00    -0.096 C 
ATOM     22  N   UNL     1       0.386   2.703   2.805  0.00  0.00    +0.379 N 
ATOM     23  H   UNL     1       0.926   3.567   2.676  0.00  0.00    -0.082 HD
ENDBRANCH  19  22
ENDBRANCH   6  19
BRANCH   2  24
ATOM     24  C   UNL     1       6.084   4.608   2.559  0.00  0.00    +0.283 C 
BRANCH  24  25
ATOM     25  O   UNL     1       5.702   5.983   2.640  0.00  0.00    -0.486 OA
BRANCH  25  26
ATOM     26  C   UNL     1       6.551   6.822   3.288  0.00  0.00    +0.121 A 
ATOM     27  C   UNL     1       7.727   6.332   3.839  0.00  0.00    +0.048 A 
ATOM     28  C   UNL     1       8.591   7.189   4.492  0.00  0.00    +0.036 A 
ATOM     29  C   UNL     1       8.281   8.531   4.607  0.00  0.00    +0.126 A 
ATOM     30  C   UNL     1       7.109   9.021   4.063  0.00  0.00    +0.036 A 
ATOM     31  C   UNL     1       6.243   8.170   3.404  0.00  0.00    +0.048 A 
BRANCH  29  32
ATOM     32  N   UNL     1       9.207   9.446   5.312  0.00  0.00    +0.056 N 
ATOM     33  O   UNL     1       8.935  10.629   5.413  0.00  0.00    -0.126 OA
ATOM     34  O   UNL     1      10.241   9.015   5.792  0.00  0.00    -0.126 OA
ENDBRANCH  29  32
ENDBRANCH  25  26
ENDBRANCH  24  25
ENDBRANCH   2  24
TORSDOF 10
