REMARK  Name = ZINC09542561
REMARK  9 active torsions:
REMARK  status: ('A' for Active; 'I' for Inactive)
REMARK    1  A    between atoms: C_1  and  C_2
REMARK    2  A    between atoms: C_2  and  O_3
REMARK    3  A    between atoms: O_3  and  C_4
REMARK    4  A    between atoms: C_8  and  C_11
REMARK    5  A    between atoms: C_9  and  O_10
REMARK    6  A    between atoms: C_14  and  C_26
REMARK    7  A    between atoms: C_16  and  C_18
REMARK    8  A    between atoms: C_30  and  O_32
REMARK    9  A    between atoms: O_32  and  C_33
REMARK                            x       y       z     vdW  Elec       q    Type
REMARK                         _______ _______ _______ _____ _____    ______ ____
ROOT
ATOM      1  C   UNL     1      -4.941   0.853   0.421  0.00  0.00    -0.028 C 
ATOM      2  C   UNL     1      -3.789   1.783   0.030  0.00  0.00    +0.044 C 
ATOM      3  C   UNL     1      -2.501   1.009   0.020  0.00  0.00    +0.040 C 
ATOM      4  N   UNL     1      -2.454  -0.270   0.008  0.00  0.00    -0.299 NA
ATOM      5  C   UNL     1      -3.629  -1.132   0.024  0.00  0.00    +0.081 C 
ATOM      6  N   UNL     1      -4.829  -0.383  -0.379  0.00  0.00    +0.401 N 
ATOM      7  H   UNL     1      -4.761  -0.139  -1.374  0.00  0.00    -0.081 HD
ATOM      8  H   UNL     1      -5.661  -0.965  -0.225  0.00  0.00    -0.081 HD
ENDROOT
BRANCH   5   9
ATOM      9  C   UNL     1      -3.416  -2.274  -0.936  0.00  0.00    -0.039 A 
ATOM     10  C   UNL     1      -2.137  -2.731  -1.193  0.00  0.00    +0.006 A 
ATOM     11  C   UNL     1      -1.940  -3.778  -2.073  0.00  0.00    +0.040 A 
ATOM     12  C   UNL     1      -3.024  -4.370  -2.697  0.00  0.00    +0.137 A 
ATOM     13  C   UNL     1      -4.306  -3.912  -2.440  0.00  0.00    +0.053 A 
ATOM     14  C   UNL     1      -4.500  -2.867  -1.554  0.00  0.00    +0.022 A 
ATOM     15 BR   UNL     1      -5.789  -4.719  -3.292  0.00  0.00    -0.047 Br
ATOM     16  F   UNL     1      -2.833  -5.394  -3.558  0.00  0.00    -0.204 F 
ENDBRANCH   5   9
BRANCH   1  21
ATOM     17  C   UNL     1      -7.984   3.082   0.743  0.00  0.00    +0.162 A 
ATOM     18  C   UNL     1      -8.681   2.757  -0.410  0.00  0.00    +0.049 A 
ATOM     19  C   UNL     1      -8.168   1.820  -1.287  0.00  0.00    +0.004 A 
ATOM     20  C   UNL     1      -6.957   1.209  -1.020  0.00  0.00    +0.006 A 
ATOM     21  C   UNL     1      -6.259   1.525   0.130  0.00  0.00    -0.016 A 
ATOM     22  C   UNL     1      -6.767   2.463   1.014  0.00  0.00    +0.160 A 
BRANCH  22  23
ATOM     23  O   UNL     1      -6.079   2.778   2.144  0.00  0.00    -0.503 OA
ATOM     24  H   UNL     1      -5.457   3.510   2.034  0.00  0.00    +0.292 HD
ENDBRANCH  22  23
BRANCH  17  25
ATOM     25  O   UNL     1      -8.486   4.004   1.606  0.00  0.00    -0.489 OA
BRANCH  25  27
ATOM     26  C   UNL     1     -10.141   5.603   2.345  0.00  0.00    +0.048 C 
ATOM     27  C   UNL     1      -9.740   4.599   1.263  0.00  0.00    +0.226 C 
ENDBRANCH  25  27
ENDBRANCH  17  25
ENDBRANCH   1  21
BRANCH   3  28
ATOM     28  C   UNL     1      -1.229   1.759   0.017  0.00  0.00    -0.001 A 
ATOM     29  C   UNL     1      -1.239   3.156   0.029  0.00  0.00    +0.010 A 
ATOM     30  C   UNL     1      -0.049   3.854   0.021  0.00  0.00    +0.004 A 
ATOM     31  C   UNL     1       1.155   3.175   0.007  0.00  0.00    +0.045 A 
ATOM     32  C   UNL     1       1.176   1.787   0.000  0.00  0.00    +0.121 A 
ATOM     33  C   UNL     1      -0.013   1.076   0.008  0.00  0.00    +0.055 A 
BRANCH  32  34
ATOM     34  O   UNL     1       2.363   1.125  -0.014  0.00  0.00    -0.495 OA
ATOM     35  C   UNL     1       3.549   1.921  -0.021  0.00  0.00    +0.277 C 
ENDBRANCH  32  34
ENDBRANCH   3  28
TORSDOF 7
