REMARK  Name = ZINC15015398
REMARK  5 active torsions:
REMARK  status: ('A' for Active; 'I' for Inactive)
REMARK    1  A    between atoms: C_1  and  C_2
REMARK    2  A    between atoms: N_16  and  N_17
REMARK    3  A    between atoms: C_18  and  C_19
REMARK    4  A    between atoms: C_22  and  O_27
REMARK    5  A    between atoms: C_23  and  O_26
REMARK                            x       y       z     vdW  Elec       q    Type
REMARK                         _______ _______ _______ _____ _____    ______ ____
ROOT
ATOM      1  C   UNL     1      10.359   5.849  -9.468  0.00  0.00    +0.044 C 
ATOM      2  C   UNL     1      10.475   5.887  -7.966  0.00  0.00    -0.050 A 
ATOM      3  C   UNL     1      11.615   6.408  -7.374  0.00  0.00    +0.005 A 
ATOM      4  C   UNL     1      11.735   6.449  -6.001  0.00  0.00    +0.026 A 
ATOM      5  C   UNL     1      10.709   5.966  -5.197  0.00  0.00    +0.050 A 
ATOM      6  C   UNL     1       9.555   5.439  -5.798  0.00  0.00    +0.029 A 
ATOM      7  C   UNL     1       9.447   5.404  -7.186  0.00  0.00    +0.015 A 
ATOM      8  C   UNL     1       8.669   5.019  -4.699  0.00  0.00    +0.138 A 
ATOM      9  C   UNL     1       9.352   5.322  -3.502  0.00  0.00    +0.163 A 
ATOM     10  N   UNL     1      10.562   5.885  -3.822  0.00  0.00    -0.338 N 
ATOM     11  H   UNL     1      11.222   6.183  -3.176  0.00  0.00    +0.167 HD
ATOM     12  N   UNL     1       8.756   5.041  -2.347  0.00  0.00    -0.192 NA
ATOM     13  C   UNL     1       7.554   4.480  -2.357  0.00  0.00    +0.256 A 
ATOM     14  N   UNL     1       6.931   4.203  -3.497  0.00  0.00    -0.111 NA
ATOM     15  N   UNL     1       7.468   4.463  -4.640  0.00  0.00    -0.142 NA
ATOM     16  N   UNL     1       6.934   4.181  -1.155  0.00  0.00    -0.204 N 
ATOM     17  H   UNL     1       7.381   4.379  -0.317  0.00  0.00    +0.177 HD
ENDROOT
BRANCH  16  18
ATOM     18  N   UNL     1       5.663   3.594  -1.150  0.00  0.00    -0.187 NA
ATOM     19  C   UNL     1       5.082   3.314  -0.023  0.00  0.00    +0.139 C 
BRANCH  19  20
ATOM     20  C   UNL     1       3.743   2.696  -0.017  0.00  0.00    +0.013 A 
ATOM     21  C   UNL     1       3.116   2.395   1.194  0.00  0.00    +0.029 A 
ATOM     22  C   UNL     1       1.861   1.822   1.197  0.00  0.00    +0.064 A 
ATOM     23  C   UNL     1       1.224   1.533  -0.001  0.00  0.00    +0.174 A 
ATOM     24  C   UNL     1       1.842   1.830  -1.213  0.00  0.00    +0.174 A 
ATOM     25  C   UNL     1       3.098   2.410  -1.224  0.00  0.00    +0.072 A 
ATOM     26 BR   UNL     1       3.940   2.816  -2.868  0.00  0.00    -0.046 Br
ATOM     27 BR   UNL     1       1.011   1.422   2.838  0.00  0.00    -0.046 Br
BRANCH  24  28
ATOM     28  O   UNL     1       1.212   1.550  -2.385  0.00  0.00    -0.503 OA
ATOM     29  H   UNL     1       0.659   2.271  -2.716  0.00  0.00    +0.292 HD
ENDBRANCH  24  28
BRANCH  23  30
ATOM     30  O   UNL     1      -0.011   0.963   0.007  0.00  0.00    -0.503 OA
ATOM     31  H   UNL     1       0.002  -0.004   0.002  0.00  0.00    +0.292 HD
ENDBRANCH  23  30
ENDBRANCH  19  20
ENDBRANCH  16  18
TORSDOF 4
