REMARK  Name = ZINC39686607
REMARK  12 active torsions:
REMARK  status: ('A' for Active; 'I' for Inactive)
REMARK    1  A    between atoms: C_1  and  C_2
REMARK    2  A    between atoms: C_3  and  C_12
REMARK    3  A    between atoms: C_7  and  O_8
REMARK    4  A    between atoms: O_8  and  C_9
REMARK    5  A    between atoms: C_9  and  C_11
REMARK    6  A    between atoms: C_16  and  C_25
REMARK    7  A    between atoms: N_27  and  C_28
REMARK    8  A    between atoms: C_28  and  C_30
REMARK    9  A    between atoms: C_28  and  C_31
REMARK   10  A    between atoms: C_31  and  C_32
REMARK   11  A    between atoms: C_37  and  O_38
REMARK   12  A    between atoms: O_38  and  C_39
REMARK                            x       y       z     vdW  Elec       q    Type
REMARK                         _______ _______ _______ _____ _____    ______ ____
ROOT
ATOM      1  C   UNL     1      -0.754  -0.316  -1.396  0.00  0.00    +0.247 C 
ATOM      2  O   UNL     1      -0.802   0.898  -1.391  0.00  0.00    -0.270 OA
ATOM      3  N   UNL     1      -0.661  -0.982  -2.564  0.00  0.00    -0.296 N 
ATOM      4  C   UNL     1      -0.693  -2.448  -2.778  0.00  0.00    +0.121 C 
ATOM      5  C   UNL     1      -1.524  -2.637  -4.067  0.00  0.00    +0.100 C 
ATOM      6  C   UNL     1      -1.395  -1.299  -4.816  0.00  0.00    -0.004 C 
ATOM      7  C   UNL     1      -0.512  -0.414  -3.925  0.00  0.00    +0.115 C 
ATOM      8  C   UNL     1      -0.732  -1.514  -6.172  0.00  0.00    -0.010 C 
ATOM      9  C   UNL     1      -0.668  -0.180  -6.921  0.00  0.00    -0.082 C 
ATOM     10  N   UNL     1      -2.026   0.350  -7.097  0.00  0.00    +0.379 N 
ATOM     11  C   UNL     1      -2.622   0.641  -5.788  0.00  0.00    -0.082 C 
ATOM     12  C   UNL     1      -2.769  -0.658  -4.991  0.00  0.00    -0.010 C 
ATOM     13  H   UNL     1      -1.986   1.197  -7.643  0.00  0.00    -0.086 HD
ATOM     14  H   UNL     1      -2.592  -0.332  -7.579  0.00  0.00    -0.086 HD
ENDROOT
BRANCH   1  17
ATOM     15  C   UNL     1      -2.396   0.659   0.778  0.00  0.00    +0.048 C 
ATOM     16  C   UNL     1      -1.586  -0.602   0.934  0.00  0.00    +0.004 A 
ATOM     17  C   UNL     1      -0.797  -1.063  -0.120  0.00  0.00    +0.043 A 
ATOM     18  C   UNL     1      -0.049  -2.231   0.033  0.00  0.00    +0.013 A 
ATOM     19  C   UNL     1      -0.092  -2.926   1.225  0.00  0.00    +0.004 A 
ATOM     20  C   UNL     1      -0.874  -2.468   2.269  0.00  0.00    +0.047 A 
ATOM     21  C   UNL     1      -1.617  -1.304   2.127  0.00  0.00    +0.135 A 
BRANCH  21  22
ATOM     22  O   UNL     1      -2.380  -0.856   3.159  0.00  0.00    -0.426 OA
BRANCH  22  23
ATOM     23  C   UNL     1      -1.919   0.177   3.882  0.00  0.00    +0.309 C 
ATOM     24  O   UNL     1      -0.814   0.618   3.669  0.00  0.00    -0.251 OA
ATOM     25  C   UNL     1      -2.778   0.785   4.961  0.00  0.00    +0.136 C 
ENDBRANCH  22  23
ENDBRANCH  21  22
ENDBRANCH   1  17
BRANCH   5  26
ATOM     26  C   UNL     1      -2.965  -2.914  -3.726  0.00  0.00    +0.218 C 
ATOM     27  O   UNL     1      -3.471  -2.388  -2.757  0.00  0.00    -0.275 OA
ATOM     28  N   UNL     1      -3.692  -3.745  -4.498  0.00  0.00    -0.312 N 
ATOM     29  H   UNL     1      -3.269  -4.222  -5.230  0.00  0.00    +0.149 HD
BRANCH  28  30
ATOM     30  C   UNL     1      -5.121  -3.930  -4.232  0.00  0.00    +0.074 C 
ATOM     31  C   UNL     1      -5.924  -2.892  -5.018  0.00  0.00    +0.028 C 
BRANCH  30  32
ATOM     32  C   UNL     1      -5.543  -5.336  -4.666  0.00  0.00    +0.060 C 
BRANCH  32  33
ATOM     33  C   UNL     1      -4.800  -6.359  -3.846  0.00  0.00    -0.004 A 
ATOM     34  C   UNL     1      -3.607  -6.881  -4.308  0.00  0.00    +0.007 A 
ATOM     35  C   UNL     1      -2.925  -7.820  -3.556  0.00  0.00    +0.000 A 
ATOM     36  C   UNL     1      -3.434  -8.238  -2.340  0.00  0.00    +0.004 A 
ATOM     37  C   UNL     1      -4.626  -7.718  -1.874  0.00  0.00    +0.046 A 
ATOM     38  C   UNL     1      -5.310  -6.772  -2.624  0.00  0.00    +0.123 A 
BRANCH  38  39
ATOM     39  O   UNL     1      -6.480  -6.255  -2.165  0.00  0.00    -0.495 OA
ATOM     40  C   UNL     1      -6.945  -6.728  -0.899  0.00  0.00    +0.277 C 
ENDBRANCH  38  39
ENDBRANCH  32  33
ENDBRANCH  30  32
ENDBRANCH  28  30
ENDBRANCH   5  26
TORSDOF 8
