REMARK  Name = ZINC04661487
REMARK  10 active torsions:
REMARK  status: ('A' for Active; 'I' for Inactive)
REMARK    1  A    between atoms: C_1  and  C_2
REMARK    2  A    between atoms: C_2  and  C_3
REMARK    3  A    between atoms: C_2  and  N_4
REMARK    4  A    between atoms: N_7  and  C_8
REMARK    5  A    between atoms: C_8  and  C_9
REMARK    6  A    between atoms: C_16  and  C_19
REMARK    7  A    between atoms: C_19  and  N_20
REMARK    8  A    between atoms: N_23  and  C_24
REMARK    9  A    between atoms: C_24  and  C_25
REMARK   10  A    between atoms: C_24  and  C_26
REMARK                            x       y       z     vdW  Elec       q    Type
REMARK                         _______ _______ _______ _____ _____    ______ ____
ROOT
ATOM      1  C   UNL     1      -0.734   1.954   1.269  0.00  0.00    -0.013 C 
ATOM      2  C   UNL     1       0.006   1.447   2.508  0.00  0.00    +0.012 C 
ATOM      3  C   UNL     1      -0.710   1.941   3.767  0.00  0.00    -0.010 C 
ATOM      4  C   UNL     1      -2.146   1.411   3.778  0.00  0.00    +0.007 C 
ATOM      5  C   UNL     1      -2.885   1.918   2.538  0.00  0.00    -0.010 C 
ATOM      6  C   UNL     1      -2.169   1.425   1.280  0.00  0.00    +0.012 C 
ATOM      7  C   UNL     1      -2.906   3.448   2.547  0.00  0.00    +0.012 C 
ATOM      8  C   UNL     1      -1.471   3.977   2.536  0.00  0.00    -0.013 C 
ATOM      9  C   UNL     1      -0.731   3.471   3.776  0.00  0.00    +0.012 C 
ATOM     10  C   UNL     1      -0.755   3.484   1.277  0.00  0.00    +0.017 C 
ENDROOT
BRANCH   1  11
ATOM     11  C   UNL     1      -0.018   1.461   0.010  0.00  0.00    +0.112 C 
BRANCH  11  15
ATOM     12  N   UNL     1       0.603  -2.012  -1.025  0.00  0.00    -0.297 N 
ATOM     13  C   UNL     1       0.585  -0.664  -1.018  0.00  0.00    +0.300 C 
ATOM     14  O   UNL     1       1.095  -0.045  -1.931  0.00  0.00    -0.253 OA
ATOM     15  N   UNL     1       0.002  -0.004   0.002  0.00  0.00    -0.299 N 
ATOM     16  H   UNL     1       0.197  -2.507  -0.297  0.00  0.00    +0.150 HD
ATOM     17  H   UNL     1      -0.404  -0.499   0.731  0.00  0.00    +0.150 HD
BRANCH  12  19
ATOM     18  C   UNL     1       1.682  -4.114  -1.657  0.00  0.00    +0.027 C 
ATOM     19  C   UNL     1       1.237  -2.730  -2.134  0.00  0.00    +0.068 C 
ATOM     20  C   UNL     1       0.236  -2.883  -3.281  0.00  0.00    +0.027 C 
ENDBRANCH  12  19
ENDBRANCH  11  15
ENDBRANCH   1  11
BRANCH   8  21
ATOM     21  C   UNL     1      -1.492   5.507   2.545  0.00  0.00    +0.112 C 
BRANCH  21  22
ATOM     22  N   UNL     1      -0.117   6.014   2.534  0.00  0.00    -0.299 N 
ATOM     23  C   UNL     1       0.111   7.343   2.539  0.00  0.00    +0.300 C 
ATOM     24  O   UNL     1      -0.824   8.120   2.552  0.00  0.00    -0.253 OA
ATOM     25  N   UNL     1       1.375   7.809   2.530  0.00  0.00    -0.297 N 
ATOM     26  H   UNL     1       0.629   5.394   2.524  0.00  0.00    +0.150 HD
ATOM     27  H   UNL     1       2.121   7.189   2.519  0.00  0.00    +0.150 HD
BRANCH  25  28
ATOM     28  C   UNL     1       1.624   9.253   2.535  0.00  0.00    +0.068 C 
ATOM     29  C   UNL     1       1.600   9.769   3.975  0.00  0.00    +0.027 C 
ATOM     30  C   UNL     1       2.993   9.537   1.914  0.00  0.00    +0.027 C 
ENDBRANCH  25  28
ENDBRANCH  21  22
ENDBRANCH   8  21
TORSDOF 6
