REMARK  Name = ZINC56574507
REMARK  10 active torsions:
REMARK  status: ('A' for Active; 'I' for Inactive)
REMARK    1  A    between atoms: C_1  and  C_2
REMARK    2  A    between atoms: C_2  and  C_4
REMARK    3  A    between atoms: C_2  and  N_12
REMARK    4  A    between atoms: C_4  and  C_5
REMARK    5  A    between atoms: C_8  and  O_11
REMARK    6  A    between atoms: N_15  and  C_16
REMARK    7  A    between atoms: C_19  and  N_22
REMARK    8  A    between atoms: C_23  and  C_25
REMARK    9  A    between atoms: C_25  and  C_26
REMARK   10  A    between atoms: C_25  and  C_27
REMARK                            x       y       z     vdW  Elec       q    Type
REMARK                         _______ _______ _______ _____ _____    ______ ____
ROOT
ATOM      1  N   UNL     1       0.745  -0.519   1.198  0.00  0.00    -0.296 N 
ATOM      2  C   UNL     1       0.082  -0.650   2.364  0.00  0.00    +0.304 C 
ATOM      3  O   UNL     1      -1.098  -0.361   2.428  0.00  0.00    -0.253 OA
ATOM      4  N   UNL     1       0.725  -1.101   3.458  0.00  0.00    -0.269 N 
ATOM      5  H   UNL     1       1.686  -0.749   1.147  0.00  0.00    +0.151 HD
ATOM      6  H   UNL     1       1.647  -1.395   3.392  0.00  0.00    +0.156 HD
ENDROOT
BRANCH   4   7
ATOM      7  C   UNL     1       0.062  -1.147   4.692  0.00  0.00    +0.035 A 
ATOM      8  C   UNL     1       0.759  -0.883   5.864  0.00  0.00    +0.025 A 
ATOM      9  C   UNL     1       0.106  -0.928   7.080  0.00  0.00    +0.025 A 
ATOM     10  C   UNL     1      -1.247  -1.236   7.130  0.00  0.00    +0.034 A 
ATOM     11  C   UNL     1      -1.944  -1.499   5.958  0.00  0.00    +0.025 A 
ATOM     12  C   UNL     1      -1.292  -1.449   4.742  0.00  0.00    +0.025 A 
BRANCH  10  13
ATOM     13  N   UNL     1      -1.910  -1.282   8.364  0.00  0.00    -0.285 N 
ATOM     14  C   UNL     1      -1.565  -0.426   9.346  0.00  0.00    +0.220 C 
ATOM     15  O   UNL     1      -0.627   0.327   9.193  0.00  0.00    -0.275 OA
ATOM     16  H   UNL     1      -2.616  -1.930   8.511  0.00  0.00    +0.155 HD
BRANCH  14  17
ATOM     17  C   UNL     1      -2.345  -0.405  10.635  0.00  0.00    +0.069 C 
ATOM     18  C   UNL     1      -2.269  -1.781  11.300  0.00  0.00    +0.017 C 
ATOM     19  C   UNL     1      -1.752   0.648  11.573  0.00  0.00    +0.017 C 
ENDBRANCH  14  17
ENDBRANCH  10  13
ENDBRANCH   4   7
BRANCH   1  21
ATOM     20  C   UNL     1       0.045   1.502   0.011  0.00  0.00    +0.028 C 
ATOM     21  C   UNL     1       0.045  -0.028   0.008  0.00  0.00    +0.076 C 
BRANCH  21  22
ATOM     22  C   UNL     1       0.757  -0.535  -1.248  0.00  0.00    +0.057 C 
BRANCH  22  23
ATOM     23  C   UNL     1       0.651  -2.037  -1.313  0.00  0.00    -0.045 A 
ATOM     24  C   UNL     1       1.620  -2.825  -0.720  0.00  0.00    +0.007 A 
ATOM     25  C   UNL     1       1.525  -4.201  -0.779  0.00  0.00    +0.045 A 
ATOM     26  C   UNL     1       0.456  -4.794  -1.435  0.00  0.00    +0.117 A 
ATOM     27  C   UNL     1      -0.515  -4.002  -2.029  0.00  0.00    +0.045 A 
ATOM     28  C   UNL     1      -0.419  -2.626  -1.963  0.00  0.00    +0.007 A 
BRANCH  26  29
ATOM     29  O   UNL     1       0.361  -6.148  -1.495  0.00  0.00    -0.507 OA
ATOM     30  H   UNL     1      -0.128  -6.541  -0.759  0.00  0.00    +0.292 HD
ENDBRANCH  26  29
ENDBRANCH  22  23
ENDBRANCH  21  22
ENDBRANCH   1  21
TORSDOF 7
