REMARK  Name = ZINC39948392
REMARK  11 active torsions:
REMARK  status: ('A' for Active; 'I' for Inactive)
REMARK    1  A    between atoms: C_1  and  C_2
REMARK    2  A    between atoms: C_2  and  C_3
REMARK    3  A    between atoms: C_3  and  C_4
REMARK    4  A    between atoms: C_4  and  C_5
REMARK    5  A    between atoms: C_5  and  C_6
REMARK    6  A    between atoms: C_6  and  N_7
REMARK    7  A    between atoms: C_16  and  C_19
REMARK    8  A    between atoms: C_19  and  O_21
REMARK    9  A    between atoms: O_21  and  C_22
REMARK   10  A    between atoms: C_22  and  C_23
REMARK   11  A    between atoms: C_31  and  C_39
REMARK                            x       y       z     vdW  Elec       q    Type
REMARK                         _______ _______ _______ _____ _____    ______ ____
ROOT
ATOM      1  C   UNL     1       5.340  -6.195  -4.423  0.00  0.00    +0.331 C 
ATOM      2  O   UNL     1       6.038  -5.221  -4.267  0.00  0.00    -0.249 OA
ENDROOT
BRANCH   1  12
ATOM      3  N   UNL     1       2.162  -4.523  -3.738  0.00  0.00    -0.232 N 
ATOM      4  C   UNL     1       1.465  -4.644  -4.887  0.00  0.00    +0.260 C 
ATOM      5  O   UNL     1       0.339  -4.197  -4.984  0.00  0.00    -0.269 OA
ATOM      6  C   UNL     1       2.108  -5.334  -6.026  0.00  0.00    +0.043 A 
ATOM      7  C   UNL     1       1.563  -5.308  -7.304  0.00  0.00    +0.013 A 
ATOM      8  C   UNL     1       2.214  -5.960  -8.334  0.00  0.00    +0.001 A 
ATOM      9  C   UNL     1       3.400  -6.632  -8.093  0.00  0.00    +0.000 A 
ATOM     10  C   UNL     1       3.943  -6.664  -6.819  0.00  0.00    +0.006 A 
ATOM     11  C   UNL     1       3.301  -6.024  -5.785  0.00  0.00    -0.006 A 
ATOM     12  C   UNL     1       3.840  -6.062  -4.379  0.00  0.00    +0.212 C 
ATOM     13  N   UNL     1       3.486  -4.824  -3.673  0.00  0.00    -0.220 NA
ATOM     14  H   UNL     1       4.049  -4.049  -3.989  0.00  0.00    +0.146 HD
BRANCH   3  15
ATOM     15  C   UNL     1       1.476  -4.051  -2.532  0.00  0.00    +0.127 C 
BRANCH  15  16
ATOM     16  C   UNL     1       1.455  -2.521  -2.524  0.00  0.00    +0.020 C 
BRANCH  16  17
ATOM     17  C   UNL     1       0.739  -2.027  -1.265  0.00  0.00    +0.002 C 
BRANCH  17  18
ATOM     18  C   UNL     1       0.718  -0.497  -1.257  0.00  0.00    -0.000 C 
BRANCH  18  20
ATOM     19  C   UNL     1      -0.019   1.526   0.010  0.00  0.00    +0.004 C 
ATOM     20  C   UNL     1       0.002  -0.004   0.002  0.00  0.00    -0.003 C 
ENDBRANCH  18  20
ENDBRANCH  17  18
ENDBRANCH  16  17
ENDBRANCH  15  16
ENDBRANCH   3  15
ENDBRANCH   1  12
BRANCH   1  21
ATOM     21  O   UNL     1       5.902  -7.396  -4.636  0.00  0.00    -0.456 OA
BRANCH  21  22
ATOM     22  C   UNL     1       7.330  -7.448  -4.665  0.00  0.00    +0.305 C 
BRANCH  22  23
ATOM     23  C   UNL     1       7.775  -8.866  -4.914  0.00  0.00    +0.161 C 
ATOM     24  N   UNL     1       6.855  -9.789  -5.064  0.00  0.00    -0.158 NA
ATOM     25  C   UNL     1       7.149 -11.075  -5.286  0.00  0.00    +0.271 C 
ATOM     26  O   UNL     1       6.268 -11.906  -5.426  0.00  0.00    -0.268 OA
ATOM     27  C   UNL     1       8.595 -11.460  -5.357  0.00  0.00    +0.071 C 
ATOM     28  C   UNL     1       9.116 -12.692  -5.505  0.00  0.00    -0.042 C 
ATOM     29  C   UNL     1       8.292 -13.976  -5.462  0.00  0.00    +0.033 C 
ATOM     30  C   UNL     1       8.922 -14.869  -4.384  0.00  0.00    +0.008 C 
ATOM     31  C   UNL     1      10.417 -15.038  -4.646  0.00  0.00    -0.012 C 
ATOM     32  C   UNL     1      11.143 -13.693  -4.544  0.00  0.00    +0.022 C 
ATOM     33  C   UNL     1      10.631 -12.776  -5.657  0.00  0.00    +0.080 C 
ATOM     34  S   UNL     1      11.144 -11.047  -5.332  0.00  0.00    -0.097 S 
ATOM     35  C   UNL     1       9.528 -10.328  -5.181  0.00  0.00    +0.112 C 
ATOM     36  N   UNL     1       9.074  -9.115  -4.975  0.00  0.00    -0.224 NA
ATOM     37  C   UNL     1      10.621 -15.614  -6.048  0.00  0.00    +0.007 C 
ENDBRANCH  22  23
ENDBRANCH  21  22
ENDBRANCH   1  21
TORSDOF 9
