REMARK  Name = ZINC61107924
REMARK  5 active torsions:
REMARK  status: ('A' for Active; 'I' for Inactive)
REMARK    1  A    between atoms: C_3  and  C_17
REMARK    2  A    between atoms: C_5  and  O_7
REMARK    3  A    between atoms: O_7  and  C_8
REMARK    4  A    between atoms: C_8  and  C_10
REMARK    5  A    between atoms: C_17  and  C_18
REMARK                            x       y       z     vdW  Elec       q    Type
REMARK                         _______ _______ _______ _____ _____    ______ ____
ROOT
ATOM      1  C   UNL     1       0.024   1.390   0.089  0.00  0.00    +0.004 A 
ATOM      2  C   UNL     1       1.214   2.086  -0.019  0.00  0.00    +0.004 A 
ATOM      3  C   UNL     1       2.410   1.403  -0.127  0.00  0.00    -0.035 A 
ATOM      4  C   UNL     1       2.420   0.021  -0.128  0.00  0.00    +0.050 A 
ATOM      5  C   UNL     1       1.228  -0.680  -0.020  0.00  0.00    +0.132 A 
ATOM      6  C   UNL     1       0.028   0.009   0.089  0.00  0.00    +0.046 A 
ENDROOT
BRANCH   5   7
ATOM      7  O   UNL     1       1.235  -2.039  -0.021  0.00  0.00    -0.422 OA
BRANCH   7   8
ATOM      8  C   UNL     1       1.758  -2.670   1.048  0.00  0.00    +0.344 C 
ATOM      9  O   UNL     1       2.109  -2.030   2.019  0.00  0.00    -0.245 OA
BRANCH   8  10
ATOM     10  C   UNL     1       1.905  -4.140   1.040  0.00  0.00    +0.060 A 
ATOM     11  C   UNL     1       1.507  -4.878  -0.077  0.00  0.00    +0.015 A 
ATOM     12  C   UNL     1       1.647  -6.250  -0.078  0.00  0.00    +0.002 A 
ATOM     13  C   UNL     1       2.180  -6.896   1.024  0.00  0.00    +0.014 A 
ATOM     14  C   UNL     1       2.575  -6.171   2.135  0.00  0.00    +0.014 A 
ATOM     15  C   UNL     1       2.446  -4.796   2.147  0.00  0.00    +0.029 A 
ATOM     16  I   UNL     1       3.378  -7.160   3.797  0.00  0.00    -0.044 I 
ENDBRANCH   8  10
ENDBRANCH   7   8
ENDBRANCH   5   7
BRANCH   3  17
ATOM     17  C   UNL     1       3.705   2.165  -0.245  0.00  0.00    +0.130 C 
BRANCH  17  18
ATOM     18  C   UNL     1       4.265   2.419   1.130  0.00  0.00    +0.215 C 
ATOM     19  O   UNL     1       3.671   2.021   2.110  0.00  0.00    -0.276 OA
ATOM     20  N   UNL     1       5.426   3.090   1.272  0.00  0.00    -0.329 N 
ATOM     21  H   UNL     1       5.901   3.408   0.488  0.00  0.00    +0.145 HD
ATOM     22  H   UNL     1       5.786   3.253   2.157  0.00  0.00    +0.145 HD
ENDBRANCH  17  18
ENDBRANCH   3  17
TORSDOF 5
