REMARK  Name = ZINC39534105
REMARK  8 active torsions:
REMARK  status: ('A' for Active; 'I' for Inactive)
REMARK    1  A    between atoms: C_4  and  S_7
REMARK    2  A    between atoms: S_7  and  N_10
REMARK    3  A    between atoms: N_10  and  C_11
REMARK    4  A    between atoms: C_11  and  C_12
REMARK    5  A    between atoms: C_12  and  C_14
REMARK    6  A    between atoms: C_12  and  N_27
REMARK    7  A    between atoms: C_17  and  C_20
REMARK    8  A    between atoms: C_25  and  O_26
REMARK                            x       y       z     vdW  Elec       q    Type
REMARK                         _______ _______ _______ _____ _____    ______ ____
ROOT
ATOM      1  C   UNL     1       4.365  -2.303   3.652  0.00  0.00    +0.102 C 
ENDROOT
BRANCH   1   2
ATOM      2  N   UNL     1       5.304  -3.038   2.794  0.00  0.00    -0.290 NA
ATOM      3  C   UNL     1       4.585  -3.886   1.833  0.00  0.00    +0.100 C 
ATOM      4  C   UNL     1       5.593  -4.571   0.907  0.00  0.00    +0.097 C 
ATOM      5  N   UNL     1       6.530  -5.369   1.712  0.00  0.00    -0.299 NA
ATOM      6  C   UNL     1       7.248  -4.520   2.673  0.00  0.00    +0.161 C 
ATOM      7  C   UNL     1       6.240  -3.835   3.598  0.00  0.00    +0.120 C 
ATOM      8 CL   UNL     1       8.370  -5.538   3.652  0.00  0.00    -0.104 Cl
ATOM      9  H   UNL     1       6.051  -6.122   2.182  0.00  0.00    +0.123 HD
ENDBRANCH   1   2
BRANCH   1  10
ATOM     10  C   UNL     1       3.480  -3.282   4.381  0.00  0.00    -0.029 A 
ATOM     11  C   UNL     1       3.635  -3.469   5.743  0.00  0.00    +0.006 A 
ATOM     12  C   UNL     1       2.828  -4.364   6.415  0.00  0.00    +0.009 A 
ATOM     13  C   UNL     1       1.855  -5.079   5.720  0.00  0.00    -0.014 A 
ATOM     14  C   UNL     1       1.703  -4.886   4.348  0.00  0.00    +0.009 A 
ATOM     15  C   UNL     1       2.513  -3.985   3.687  0.00  0.00    +0.006 A 
BRANCH  13  16
ATOM     16  C   UNL     1       0.985  -6.043   6.437  0.00  0.00    +0.024 A 
ATOM     17  C   UNL     1       1.546  -6.998   7.281  0.00  0.00    +0.012 A 
ATOM     18  C   UNL     1       0.732  -7.893   7.946  0.00  0.00    +0.001 A 
ATOM     19  C   UNL     1      -0.641  -7.844   7.777  0.00  0.00    +0.004 A 
ATOM     20  C   UNL     1      -1.208  -6.900   6.942  0.00  0.00    +0.046 A 
ATOM     21  C   UNL     1      -0.403  -5.992   6.273  0.00  0.00    +0.125 A 
BRANCH  21  22
ATOM     22  O   UNL     1      -0.959  -5.060   5.456  0.00  0.00    -0.506 OA
ATOM     23  H   UNL     1      -1.061  -5.351   4.540  0.00  0.00    +0.292 HD
ENDBRANCH  21  22
ENDBRANCH  13  16
ENDBRANCH   1  10
BRANCH   1  24
ATOM     24  C   UNL     1       3.503  -1.379   2.791  0.00  0.00    +0.129 C 
BRANCH  24  25
ATOM     25  N   UNL     1       4.368  -0.507   1.992  0.00  0.00    -0.188 NA
ATOM     26  H   UNL     1       5.308  -0.421   2.216  0.00  0.00    +0.148 HD
BRANCH  25  27
ATOM     27  S   UNL     1       3.741   0.330   0.708  0.00  0.00    +0.058 S 
ATOM     28  O   UNL     1       3.001  -0.605  -0.064  0.00  0.00    -0.153 OA
ATOM     29  O   UNL     1       4.808   1.094   0.162  0.00  0.00    -0.153 OA
BRANCH  27  33
ATOM     30  C   UNL     1       0.749   3.292   2.371  0.00  0.00    +0.000 A 
ATOM     31  C   UNL     1       2.075   3.656   2.227  0.00  0.00    +0.002 A 
ATOM     32  C   UNL     1       2.989   2.751   1.719  0.00  0.00    +0.028 A 
ATOM     33  C   UNL     1       2.577   1.482   1.356  0.00  0.00    +0.105 A 
ATOM     34  C   UNL     1       1.251   1.118   1.502  0.00  0.00    +0.028 A 
ATOM     35  C   UNL     1       0.337   2.023   2.008  0.00  0.00    +0.002 A 
ENDBRANCH  27  33
ENDBRANCH  25  27
ENDBRANCH  24  25
ENDBRANCH   1  24
TORSDOF 8
