REMARK  Name = ZINC59409343
REMARK  13 active torsions:
REMARK  status: ('A' for Active; 'I' for Inactive)
REMARK    1  A    between atoms: C_1  and  C_2
REMARK    2  A    between atoms: C_2  and  C_3
REMARK    3  A    between atoms: C_3  and  C_4
REMARK    4  A    between atoms: C_4  and  N_5
REMARK    5  A    between atoms: C_6  and  N_36
REMARK    6  A    between atoms: C_7  and  N_14
REMARK    7  A    between atoms: N_14  and  C_15
REMARK    8  A    between atoms: C_15  and  C_16
REMARK    9  A    between atoms: C_22  and  C_24
REMARK   10  A    between atoms: C_24  and  N_25
REMARK   11  A    between atoms: N_25  and  C_26
REMARK   12  A    between atoms: N_25  and  C_33
REMARK   13  A    between atoms: C_26  and  C_27
REMARK                            x       y       z     vdW  Elec       q    Type
REMARK                         _______ _______ _______ _____ _____    ______ ____
ROOT
ATOM      1  N   UNL     1       0.674  -3.726  -5.678  0.00  0.00    -0.261 N 
ATOM      2  C   UNL     1      -0.612  -3.372  -5.883  0.00  0.00    +0.204 C 
ATOM      3  O   UNL     1      -1.151  -3.634  -6.938  0.00  0.00    -0.277 OA
ENDROOT
BRANCH   1   6
ATOM      4  N   UNL     1       2.979  -2.027  -3.375  0.00  0.00    -0.280 N 
ATOM      5  C   UNL     1       2.353  -2.397  -4.543  0.00  0.00    +0.127 A 
ATOM      6  C   UNL     1       1.335  -3.327  -4.497  0.00  0.00    +0.140 A 
ATOM      7  C   UNL     1       0.968  -3.871  -3.252  0.00  0.00    +0.277 A 
ATOM      8  O   UNL     1       0.072  -4.696  -3.183  0.00  0.00    -0.266 OA
ATOM      9  N   UNL     1       1.613  -3.475  -2.137  0.00  0.00    -0.273 N 
ATOM     10  H   UNL     1       1.360  -3.850  -1.279  0.00  0.00    +0.173 HD
ATOM     11  C   UNL     1       2.606  -2.571  -2.202  0.00  0.00    +0.331 A 
ATOM     12  O   UNL     1       3.175  -2.235  -1.181  0.00  0.00    -0.246 OA
BRANCH   5  13
ATOM     13  N   UNL     1       2.737  -1.845  -5.742  0.00  0.00    -0.343 N 
ATOM     14  H   UNL     1       3.404  -1.141  -5.760  0.00  0.00    +0.144 HD
ATOM     15  H   UNL     1       2.342  -2.160  -6.569  0.00  0.00    +0.144 HD
ENDBRANCH   5  13
BRANCH   4  16
ATOM     16  C   UNL     1       4.061  -1.041  -3.409  0.00  0.00    +0.128 C 
BRANCH  16  17
ATOM     17  C   UNL     1       5.398  -1.757  -3.607  0.00  0.00    +0.021 C 
BRANCH  17  19
ATOM     18  C   UNL     1       7.866  -1.443  -3.840  0.00  0.00    +0.004 C 
ATOM     19  C   UNL     1       6.529  -0.726  -3.642  0.00  0.00    -0.002 C 
ENDBRANCH  17  19
ENDBRANCH  16  17
ENDBRANCH   4  16
ENDBRANCH   1   6
BRANCH   1  20
ATOM     20  C   UNL     1       1.383  -4.525  -6.680  0.00  0.00    +0.149 C 
BRANCH  20  21
ATOM     21  C   UNL     1       1.098  -5.987  -6.452  0.00  0.00    -0.030 A 
ATOM     22  C   UNL     1       1.846  -6.702  -5.536  0.00  0.00    +0.005 A 
ATOM     23  C   UNL     1       1.584  -8.043  -5.327  0.00  0.00    +0.000 A 
ATOM     24  C   UNL     1       0.574  -8.669  -6.033  0.00  0.00    +0.000 A 
ATOM     25  C   UNL     1      -0.175  -7.953  -6.948  0.00  0.00    +0.000 A 
ATOM     26  C   UNL     1       0.084  -6.611  -7.154  0.00  0.00    +0.005 A 
ENDBRANCH  20  21
ENDBRANCH   1  20
BRANCH   2  27
ATOM     27  C   UNL     1      -1.377  -2.653  -4.803  0.00  0.00    +0.020 C 
BRANCH  27  28
ATOM     28  N   UNL     1      -2.777  -2.493  -5.219  0.00  0.00    +0.387 N 
ATOM     29  H   UNL     1      -2.810  -2.054  -6.127  0.00  0.00    -0.081 HD
BRANCH  28  30
ATOM     30  C   UNL     1      -3.484  -1.652  -4.243  0.00  0.00    -0.068 C 
ATOM     31  C   UNL     1      -4.370  -0.529  -4.789  0.00  0.00    -0.017 C 
ATOM     32  C   UNL     1      -3.039  -0.194  -4.113  0.00  0.00    -0.017 C 
ENDBRANCH  28  30
BRANCH  28  33
ATOM     33  C   UNL     1      -3.422  -3.811  -5.287  0.00  0.00    -0.074 C 
BRANCH  33  34
ATOM     34  C   UNL     1      -4.836  -3.658  -5.851  0.00  0.00    -0.028 C 
ATOM     35  C   UNL     1      -5.552  -5.010  -5.803  0.00  0.00    +0.002 C 
ATOM     36  C   UNL     1      -6.967  -4.857  -6.366  0.00  0.00    +0.000 C 
ATOM     37  C   UNL     1      -6.889  -4.372  -7.815  0.00  0.00    +0.000 C 
ATOM     38  C   UNL     1      -6.173  -3.021  -7.863  0.00  0.00    +0.000 C 
ATOM     39  C   UNL     1      -4.758  -3.173  -7.300  0.00  0.00    +0.002 C 
ENDBRANCH  33  34
ENDBRANCH  28  33
ENDBRANCH  27  28
ENDBRANCH   2  27
TORSDOF 12
