REMARK  Name = ZINC19296914
REMARK  9 active torsions:
REMARK  status: ('A' for Active; 'I' for Inactive)
REMARK    1  A    between atoms: C_1  and  C_2
REMARK    2  A    between atoms: C_5  and  C_8
REMARK    3  A    between atoms: C_8  and  C_10
REMARK    4  A    between atoms: C_8  and  N_15
REMARK    5  A    between atoms: C_16  and  C_18
REMARK    6  A    between atoms: C_18  and  N_19
REMARK    7  A    between atoms: C_22  and  C_26
REMARK    8  A    between atoms: C_22  and  C_27
REMARK    9  A    between atoms: C_30  and  C_33
REMARK                            x       y       z     vdW  Elec       q    Type
REMARK                         _______ _______ _______ _____ _____    ______ ____
ROOT
ATOM      1  C   UNL     1       0.002  -0.004   0.002  0.00  0.00    +0.213 C 
ENDROOT
BRANCH   1   2
ATOM      2  N   UNL     1      -0.018   1.461   0.010  0.00  0.00    -0.215 N 
ATOM      3  C   UNL     1       1.087   2.233   0.004  0.00  0.00    +0.251 C 
ATOM      4  O   UNL     1       2.240   1.861  -0.008  0.00  0.00    -0.272 OA
ATOM      5  C   UNL     1       0.587   3.664   0.015  0.00  0.00    +0.135 C 
ATOM      6  N   UNL     1      -0.879   3.518   0.028  0.00  0.00    -0.281 N 
ATOM      7  C   UNL     1      -1.135   2.197   0.019  0.00  0.00    +0.310 C 
ATOM      8  O   UNL     1      -2.255   1.726   0.022  0.00  0.00    -0.252 OA
ATOM      9  C   UNL     1       1.066   4.392   1.273  0.00  0.00    +0.047 C 
ATOM     10  H   UNL     1      -1.521   4.412   0.042  0.00  0.00    +0.152 HD
BRANCH   5  11
ATOM     11  C   UNL     1       1.036   4.393  -1.225  0.00  0.00    -0.015 A 
ATOM     12  C   UNL     1       2.228   4.043  -1.835  0.00  0.00    +0.007 A 
ATOM     13  C   UNL     1       2.643   4.703  -2.973  0.00  0.00    +0.019 A 
ATOM     14  C   UNL     1       1.863   5.733  -3.503  0.00  0.00    +0.052 A 
ATOM     15  C   UNL     1       0.664   6.084  -2.879  0.00  0.00    +0.019 A 
ATOM     16  C   UNL     1       0.258   5.412  -1.744  0.00  0.00    +0.007 A 
BRANCH  14  17
ATOM     17  C   UNL     1       2.291   6.426  -4.680  0.00  0.00    +0.099 C 
ATOM     18  N   UNL     1       2.630   6.977  -5.615  0.00  0.00    -0.191 NA
ENDBRANCH  14  17
ENDBRANCH   5  11
ENDBRANCH   1   2
BRANCH   1  20
ATOM     19  N   UNL     1       0.043  -1.840   1.659  0.00  0.00    -0.303 N 
ATOM     20  C   UNL     1       0.022  -0.514   1.420  0.00  0.00    +0.232 C 
ATOM     21  O   UNL     1       0.021   0.269   2.346  0.00  0.00    -0.274 OA
ATOM     22  H   UNL     1       0.044  -2.550   0.819  0.00  0.00    +0.150 HD
BRANCH  19  23
ATOM     23  C   UNL     1       0.063  -2.336   3.037  0.00  0.00    +0.140 C 
BRANCH  23  28
ATOM     24  C   UNL     1      -2.166  -7.665   3.200  0.00  0.00    +0.044 C 
ATOM     25  C   UNL     1      -1.585  -6.275   3.158  0.00  0.00    -0.050 A 
ATOM     26  C   UNL     1      -1.881  -5.372   4.161  0.00  0.00    +0.004 A 
ATOM     27  C   UNL     1      -1.347  -4.097   4.122  0.00  0.00    +0.006 A 
ATOM     28  C   UNL     1      -0.519  -3.726   3.080  0.00  0.00    -0.022 A 
ATOM     29  C   UNL     1      -0.228  -4.628   2.074  0.00  0.00    +0.006 A 
ATOM     30  C   UNL     1      -0.757  -5.904   2.115  0.00  0.00    +0.004 A 
ENDBRANCH  23  28
BRANCH  23  31
ATOM     31  C   UNL     1       1.483  -2.370   3.539  0.00  0.00    +0.014 A 
ATOM     32  C   UNL     1       1.966  -2.034   4.760  0.00  0.00    +0.013 A 
ATOM     33  C   UNL     1       3.323  -2.149   4.999  0.00  0.00    +0.008 A 
ATOM     34  C   UNL     1       4.131  -2.586   4.003  0.00  0.00    +0.045 A 
ATOM     35  S   UNL     1       2.969  -2.857   2.676  0.00  0.00    -0.099 S 
ENDBRANCH  23  31
ENDBRANCH  19  23
ENDBRANCH   1  20
TORSDOF 7
