REMARK  Name = ZINC01110407
REMARK  9 active torsions:
REMARK  status: ('A' for Active; 'I' for Inactive)
REMARK    1  A    between atoms: C_1  and  C_2
REMARK    2  A    between atoms: C_9  and  N_33
REMARK    3  A    between atoms: C_10  and  C_31
REMARK    4  A    between atoms: C_11  and  C_13
REMARK    5  A    between atoms: C_16  and  O_29
REMARK    6  A    between atoms: C_17  and  C_19
REMARK    7  A    between atoms: C_19  and  O_20
REMARK    8  A    between atoms: O_20  and  C_21
REMARK    9  A    between atoms: O_29  and  C_30
REMARK                            x       y       z     vdW  Elec       q    Type
REMARK                         _______ _______ _______ _____ _____    ______ ____
ROOT
ATOM      1  C   UNL     1       0.936   0.440   4.814  0.00  0.00    -0.034 A 
ATOM      2  C   UNL     1       1.534   0.027   3.637  0.00  0.00    +0.008 A 
ATOM      3  C   UNL     1       0.991   0.392   2.421  0.00  0.00    +0.046 A 
ATOM      4  C   UNL     1      -0.149   1.182   2.380  0.00  0.00    +0.126 A 
ATOM      5  C   UNL     1      -0.747   1.594   3.561  0.00  0.00    +0.032 A 
ATOM      6  C   UNL     1      -0.203   1.222   4.776  0.00  0.00    +0.015 A 
ENDROOT
BRANCH   1  17
ATOM      7  C   UNL     1      -0.927  -2.020   6.556  0.00  0.00    +0.068 C 
ATOM      8  C   UNL     1       0.533  -2.369   6.417  0.00  0.00    +0.068 A 
ATOM      9  C   UNL     1       1.573  -1.467   6.239  0.00  0.00    +0.049 A 
ATOM     10  C   UNL     1       2.739  -2.176   6.158  0.00  0.00    +0.222 A 
ATOM     11  N   UNL     1       2.433  -3.477   6.281  0.00  0.00    -0.246 N 
ATOM     12  H   UNL     1       3.080  -4.239   6.260  0.00  0.00    +0.192 HD
ATOM     13  N   UNL     1       1.042  -3.578   6.442  0.00  0.00    -0.176 NA
ATOM     14  O   UNL     1       3.947  -1.582   5.985  0.00  0.00    -0.423 OA
ATOM     15  C   UNL     1       4.018  -0.248   6.167  0.00  0.00    +0.200 C 
ATOM     16  C   UNL     1       2.937   0.559   6.250  0.00  0.00    +0.098 C 
ATOM     17  C   UNL     1       1.527   0.036   6.140  0.00  0.00    +0.101 C 
BRANCH  15  18
ATOM     18  N   UNL     1       5.261   0.324   6.274  0.00  0.00    -0.328 N 
ATOM     19  H   UNL     1       5.345   1.281   6.405  0.00  0.00    +0.145 HD
ATOM     20  H   UNL     1       6.056  -0.229   6.219  0.00  0.00    +0.145 HD
ENDBRANCH  15  18
BRANCH  16  21
ATOM     21  C   UNL     1       3.138   1.963   6.448  0.00  0.00    +0.101 C 
ATOM     22  N   UNL     1       3.298   3.076   6.605  0.00  0.00    -0.191 NA
ENDBRANCH  16  21
ENDBRANCH   1  17
BRANCH   4  23
ATOM     23  O   UNL     1      -0.682   1.547   1.184  0.00  0.00    -0.495 OA
ATOM     24  C   UNL     1      -0.013   1.086   0.008  0.00  0.00    +0.277 C 
ENDBRANCH   4  23
BRANCH   5  25
ATOM     25  C   UNL     1      -1.989   2.447   3.520  0.00  0.00    +0.268 C 
BRANCH  25  26
ATOM     26  O   UNL     1      -2.411   2.738   4.854  0.00  0.00    -0.486 OA
BRANCH  26  27
ATOM     27  C   UNL     1      -3.526   3.504   4.996  0.00  0.00    +0.139 A 
ATOM     28  C   UNL     1      -4.199   3.964   3.874  0.00  0.00    +0.048 A 
ATOM     29  C   UNL     1      -5.331   4.742   4.019  0.00  0.00    +0.023 A 
ATOM     30  C   UNL     1      -5.795   5.062   5.283  0.00  0.00    +0.043 A 
ATOM     31  C   UNL     1      -5.125   4.603   6.404  0.00  0.00    +0.043 A 
ATOM     32  C   UNL     1      -3.995   3.821   6.263  0.00  0.00    +0.084 A 
ATOM     33 CL   UNL     1      -3.159   3.240   7.669  0.00  0.00    -0.080 Cl
ATOM     34 CL   UNL     1      -7.218   6.039   5.463  0.00  0.00    -0.083 Cl
ENDBRANCH  26  27
ENDBRANCH  25  26
ENDBRANCH   5  25
TORSDOF 7
