REMARK  Name = ZINC61634576
REMARK  9 active torsions:
REMARK  status: ('A' for Active; 'I' for Inactive)
REMARK    1  A    between atoms: C_1  and  C_2
REMARK    2  A    between atoms: C_2  and  C_3
REMARK    3  A    between atoms: C_2  and  C_4
REMARK    4  A    between atoms: C_4  and  C_5
REMARK    5  A    between atoms: C_5  and  C_6
REMARK    6  A    between atoms: C_5  and  N_18
REMARK    7  A    between atoms: N_8  and  C_9
REMARK    8  A    between atoms: C_9  and  C_10
REMARK    9  A    between atoms: C_10  and  C_11
REMARK                            x       y       z     vdW  Elec       q    Type
REMARK                         _______ _______ _______ _____ _____    ______ ____
ROOT
ATOM      1  C   UNL     1      -3.583  -0.545  -1.223  0.00  0.00    +0.233 C 
ATOM      2  O   UNL     1      -3.948  -1.559  -1.781  0.00  0.00    -0.274 OA
ATOM      3  N   UNL     1      -4.471   0.210  -0.548  0.00  0.00    -0.313 N 
ATOM      4  H   UNL     1      -4.179   1.021  -0.103  0.00  0.00    +0.149 HD
ENDROOT
BRANCH   1   5
ATOM      5  C   UNL     1      -2.135  -0.131  -1.286  0.00  0.00    +0.161 C 
BRANCH   5   6
ATOM      6  N   UNL     1      -1.486  -0.796  -2.418  0.00  0.00    -0.288 N 
ATOM      7  C   UNL     1      -1.442  -2.142  -2.475  0.00  0.00    +0.298 C 
ATOM      8  O   UNL     1      -1.942  -2.804  -1.587  0.00  0.00    -0.253 OA
ATOM      9  N   UNL     1      -0.844  -2.753  -3.517  0.00  0.00    -0.313 N 
ATOM     10  H   UNL     1      -1.087  -0.267  -3.127  0.00  0.00    +0.151 HD
ATOM     11  H   UNL     1      -0.445  -2.224  -4.226  0.00  0.00    +0.146 HD
ATOM     12  H   UNL     1      -0.813  -3.721  -3.558  0.00  0.00    +0.146 HD
ENDBRANCH   5   6
BRANCH   5  13
ATOM     13  C   UNL     1      -1.433  -0.534   0.013  0.00  0.00    +0.034 C 
BRANCH  13  15
ATOM     14  C   UNL     1      -0.019   1.526   0.010  0.00  0.00    +0.007 C 
ATOM     15  C   UNL     1       0.002  -0.004   0.002  0.00  0.00    -0.015 C 
ATOM     16  C   UNL     1       0.742  -0.511   1.242  0.00  0.00    +0.007 C 
ENDBRANCH  13  15
ENDBRANCH   5  13
ENDBRANCH   1   5
BRANCH   3  17
ATOM     17  C   UNL     1      -5.879  -0.192  -0.488  0.00  0.00    +0.109 C 
BRANCH  17  18
ATOM     18  C   UNL     1      -6.667   0.831   0.333  0.00  0.00    +0.055 C 
BRANCH  18  19
ATOM     19  C   UNL     1      -8.115   0.416   0.395  0.00  0.00    -0.032 A 
ATOM     20  C   UNL     1      -9.021   0.931  -0.513  0.00  0.00    +0.005 A 
ATOM     21  C   UNL     1     -10.348   0.551  -0.456  0.00  0.00    +0.000 A 
ATOM     22  C   UNL     1     -10.771  -0.344   0.509  0.00  0.00    +0.001 A 
ATOM     23  C   UNL     1      -9.866  -0.859   1.417  0.00  0.00    +0.015 A 
ATOM     24  C   UNL     1      -8.536  -0.483   1.358  0.00  0.00    +0.021 A 
ATOM     25 BR   UNL     1      -7.296  -1.193   2.596  0.00  0.00    -0.050 Br
ENDBRANCH  18  19
ENDBRANCH  17  18
ENDBRANCH   3  17
TORSDOF 7
