REMARK  Name = ZINC12550906
REMARK  1 active torsions:
REMARK  status: ('A' for Active; 'I' for Inactive)
REMARK    1  A    between atoms: C_6  and  C_7
REMARK                            x       y       z     vdW  Elec       q    Type
REMARK                         _______ _______ _______ _____ _____    ______ ____
ROOT
ATOM      1  C   UNL     1      -1.293  -0.775   0.010  0.00  0.00    +0.209 C 
ATOM      2  N   UNL     1      -1.165  -1.967   0.868  0.00  0.00    -0.294 N 
ATOM      3  C   UNL     1      -0.589  -3.106   0.371  0.00  0.00    +0.160 C 
ATOM      4  N   UNL     1      -0.662  -3.413  -0.912  0.00  0.00    -0.302 N 
ATOM      5  C   UNL     1      -1.270  -2.539  -1.750  0.00  0.00    +0.213 A 
ATOM      6  N   UNL     1      -1.599  -1.258  -1.341  0.00  0.00    -0.286 N 
ATOM      7  C   UNL     1      -2.209  -0.621  -2.396  0.00  0.00    +0.076 A 
ATOM      8  C   UNL     1      -2.758   0.641  -2.582  0.00  0.00    +0.077 A 
ATOM      9  C   UNL     1      -3.309   0.979  -3.803  0.00  0.00    +0.164 A 
ATOM     10  C   UNL     1      -3.319   0.063  -4.851  0.00  0.00    +0.164 A 
ATOM     11  C   UNL     1      -2.779  -1.195  -4.684  0.00  0.00    +0.079 A 
ATOM     12  C   UNL     1      -2.218  -1.551  -3.454  0.00  0.00    +0.095 A 
ATOM     13  N   UNL     1      -1.623  -2.695  -2.998  0.00  0.00    -0.212 NA
ATOM     14  O   UNL     1      -3.868   0.418  -6.050  0.00  0.00    -0.488 OA
ATOM     15  C   UNL     1      -5.284   0.604  -6.060  0.00  0.00    +0.232 C 
ATOM     16  C   UNL     1      -5.647   2.010  -5.607  0.00  0.00    +0.082 C 
ATOM     17  C   UNL     1      -5.266   2.268  -4.158  0.00  0.00    +0.232 C 
ATOM     18  O   UNL     1      -3.848   2.221  -3.989  0.00  0.00    -0.488 OA
ATOM     19  N   UNL     1       0.078  -3.945   1.223  0.00  0.00    -0.332 N 
ATOM     20  H   UNL     1      -1.490  -1.945   1.782  0.00  0.00    +0.151 HD
ATOM     21  H   UNL     1       0.138  -3.730   2.167  0.00  0.00    +0.145 HD
ATOM     22  H   UNL     1       0.490  -4.754   0.883  0.00  0.00    +0.145 HD
ATOM     23  H   UNL     1      -0.288  -4.243  -1.247  0.00  0.00    +0.171 HD
ENDROOT
BRANCH   1  29
ATOM     24  C   UNL     1      -0.017   1.378   0.010  0.00  0.00    +0.010 A 
ATOM     25  C   UNL     1       1.170   2.086   0.002  0.00  0.00    +0.040 A 
ATOM     26  C   UNL     1       2.379   1.411  -0.013  0.00  0.00    +0.137 A 
ATOM     27  C   UNL     1       2.397   0.026  -0.021  0.00  0.00    +0.053 A 
ATOM     28  C   UNL     1       1.208  -0.680  -0.013  0.00  0.00    +0.025 A 
ATOM     29  C   UNL     1       0.002  -0.004   0.002  0.00  0.00    -0.006 A 
ATOM     30 BR   UNL     1       4.046  -0.899  -0.042  0.00  0.00    -0.047 Br
ATOM     31  F   UNL     1       3.539   2.103  -0.021  0.00  0.00    -0.204 F 
ENDBRANCH   1  29
TORSDOF 1
