REMARK  Name = ZINC35214578
REMARK  11 active torsions:
REMARK  status: ('A' for Active; 'I' for Inactive)
REMARK    1  A    between atoms: C_1  and  C_2
REMARK    2  A    between atoms: C_6  and  C_7
REMARK    3  A    between atoms: C_7  and  N_8
REMARK    4  A    between atoms: N_8  and  C_9
REMARK    5  A    between atoms: C_9  and  C_10
REMARK    6  A    between atoms: C_16  and  C_18
REMARK    7  A    between atoms: C_18  and  N_19
REMARK    8  A    between atoms: N_19  and  C_20
REMARK    9  A    between atoms: C_20  and  C_21
REMARK   10  A    between atoms: N_29  and  C_30
REMARK   11  A    between atoms: C_33  and  N_36
REMARK                            x       y       z     vdW  Elec       q    Type
REMARK                         _______ _______ _______ _____ _____    ______ ____
ROOT
ATOM      1  N   UNL     1      -2.950   3.021   1.917  0.00  0.00    -0.274 N 
ATOM      2  C   UNL     1      -3.733   3.052   0.820  0.00  0.00    +0.307 C 
ATOM      3  O   UNL     1      -3.561   2.246  -0.074  0.00  0.00    -0.252 OA
ATOM      4  N   UNL     1      -4.708   3.978   0.714  0.00  0.00    -0.269 N 
ATOM      5  H   UNL     1      -4.795   4.669   1.389  0.00  0.00    +0.156 HD
ENDROOT
BRANCH   4   6
ATOM      6  C   UNL     1      -5.593   3.941  -0.369  0.00  0.00    +0.035 A 
ATOM      7  C   UNL     1      -6.070   5.124  -0.918  0.00  0.00    +0.025 A 
ATOM      8  C   UNL     1      -6.943   5.084  -1.988  0.00  0.00    +0.034 A 
ATOM      9  C   UNL     1      -7.342   3.868  -2.512  0.00  0.00    +0.126 A 
ATOM     10  C   UNL     1      -6.869   2.688  -1.967  0.00  0.00    +0.034 A 
ATOM     11  C   UNL     1      -5.991   2.721  -0.901  0.00  0.00    +0.025 A 
BRANCH   9  12
ATOM     12  N   UNL     1      -8.278   3.829  -3.658  0.00  0.00    +0.056 N 
ATOM     13  O   UNL     1      -8.692   4.860  -4.135  0.00  0.00    -0.126 OA
ATOM     14  O   UNL     1      -8.628   2.767  -4.117  0.00  0.00    -0.126 OA
ENDBRANCH   9  12
ENDBRANCH   4   6
BRANCH   1  15
ATOM     15  C   UNL     1      -1.891   2.015   2.032  0.00  0.00    +0.205 C 
BRANCH  15  17
ATOM     16  N   UNL     1      -1.620  -0.244   3.002  0.00  0.00    -0.291 N 
ATOM     17  C   UNL     1      -2.442   0.780   2.697  0.00  0.00    +0.234 C 
ATOM     18  O   UNL     1      -3.624   0.708   2.959  0.00  0.00    -0.274 OA
BRANCH  16  19
ATOM     19  C   UNL     1      -0.216  -0.207   2.584  0.00  0.00    +0.150 C 
BRANCH  19  25
ATOM     20  C   UNL     1       0.037  -3.143   1.720  0.00  0.00    +0.044 C 
ATOM     21  C   UNL     1       0.015  -2.001   0.738  0.00  0.00    -0.039 A 
ATOM     22  C   UNL     1       0.105  -2.241  -0.620  0.00  0.00    +0.011 A 
ATOM     23  C   UNL     1       0.083  -1.191  -1.477  0.00  0.00    +0.046 A 
ATOM     24  S   UNL     1      -0.069   0.194  -0.360  0.00  0.00    -0.100 S 
ATOM     25  C   UNL     1      -0.098  -0.722   1.173  0.00  0.00    +0.010 A 
ENDBRANCH  19  25
ENDBRANCH  16  19
BRANCH  16  26
ATOM     26  C   UNL     1      -2.131  -1.396   3.750  0.00  0.00    +0.143 C 
BRANCH  26  27
ATOM     27  C   UNL     1      -1.960  -1.150   5.227  0.00  0.00    -0.030 A 
ATOM     28  C   UNL     1      -0.796  -1.540   5.862  0.00  0.00    +0.005 A 
ATOM     29  C   UNL     1      -0.639  -1.315   7.217  0.00  0.00    +0.000 A 
ATOM     30  C   UNL     1      -1.647  -0.700   7.937  0.00  0.00    +0.000 A 
ATOM     31  C   UNL     1      -2.811  -0.309   7.301  0.00  0.00    +0.000 A 
ATOM     32  C   UNL     1      -2.966  -0.530   5.946  0.00  0.00    +0.005 A 
ENDBRANCH  26  27
ENDBRANCH  16  26
ENDBRANCH  15  17
ENDBRANCH   1  15
BRANCH   1  33
ATOM     33  C   UNL     1      -3.159   3.992   2.994  0.00  0.00    +0.141 C 
BRANCH  33  34
ATOM     34  C   UNL     1      -2.304   5.233   2.733  0.00  0.00    +0.136 C 
ATOM     35  C   UNL     1      -2.483   6.260   3.880  0.00  0.00    +0.035 C 
ATOM     36  C   UNL     1      -1.148   7.048   3.781  0.00  0.00    +0.031 C 
ATOM     37  C   UNL     1      -0.152   5.952   3.345  0.00  0.00    +0.160 C 
ATOM     38  O   UNL     1      -0.909   4.891   2.748  0.00  0.00    -0.375 OA
ENDBRANCH  33  34
ENDBRANCH   1  33
TORSDOF 10
