REMARK  Name = ZINC39944222
REMARK  5 active torsions:
REMARK  status: ('A' for Active; 'I' for Inactive)
REMARK    1  A    between atoms: C_6  and  C_11
REMARK    2  A    between atoms: N_12  and  N_13
REMARK    3  A    between atoms: C_14  and  C_16
REMARK    4  A    between atoms: N_18  and  C_19
REMARK    5  A    between atoms: C_20  and  C_30
REMARK                            x       y       z     vdW  Elec       q    Type
REMARK                         _______ _______ _______ _____ _____    ______ ____
ROOT
ATOM      1  N   UNL     1       5.928  -3.330  -0.075  0.00  0.00    -0.199 N 
ATOM      2  C   UNL     1       7.252  -3.584  -0.090  0.00  0.00    +0.318 C 
ATOM      3  O   UNL     1       8.045  -2.666  -0.092  0.00  0.00    -0.263 OA
ATOM      4  H   UNL     1       5.294  -4.064  -0.073  0.00  0.00    +0.178 HD
ENDROOT
BRANCH   2   5
ATOM      5  C   UNL     1       7.741  -4.992  -0.103  0.00  0.00    +0.305 C 
ATOM      6  O   UNL     1       6.947  -5.911  -0.100  0.00  0.00    -0.265 OA
ATOM      7  N   UNL     1       9.065  -5.246  -0.117  0.00  0.00    -0.272 N 
ATOM      8  H   UNL     1       9.699  -4.512  -0.119  0.00  0.00    +0.156 HD
BRANCH   7   9
ATOM      9  C   UNL     1       9.517  -6.549  -0.130  0.00  0.00    +0.082 C 
ATOM     10  C   UNL     1      10.830  -6.976  -0.140  0.00  0.00    +0.061 C 
ATOM     11  C   UNL     1      11.038  -8.419  -0.098  0.00  0.00    +0.045 C 
ATOM     12  C   UNL     1      12.333  -9.106  -0.380  0.00  0.00    +0.010 C 
ATOM     13  C   UNL     1      12.318 -10.451   0.376  0.00  0.00    +0.001 C 
ATOM     14  C   UNL     1      11.091 -11.271  -0.015  0.00  0.00    +0.001 C 
ATOM     15  C   UNL     1       9.787 -10.503   0.242  0.00  0.00    +0.015 C 
ATOM     16  C   UNL     1       9.836  -9.231  -0.628  0.00  0.00    +0.061 C 
ATOM     17  S   UNL     1       8.526  -8.039  -0.128  0.00  0.00    -0.105 S 
BRANCH  10  18
ATOM     18  C   UNL     1      11.925  -6.055  -0.189  0.00  0.00    +0.097 C 
ATOM     19  N   UNL     1      12.794  -5.325  -0.227  0.00  0.00    -0.191 NA
ENDBRANCH  10  18
ENDBRANCH   7   9
ENDBRANCH   2   5
BRANCH   1  21
ATOM     20  C   UNL     1       4.182  -1.761  -0.048  0.00  0.00    +0.136 C 
ATOM     21  N   UNL     1       5.468  -2.007  -0.063  0.00  0.00    -0.188 NA
BRANCH  20  27
ATOM     22  C   UNL     1      -0.017   1.395   0.010  0.00  0.00    +0.017 A 
ATOM     23  C   UNL     1       1.123   2.126   0.003  0.00  0.00    +0.027 A 
ATOM     24  C   UNL     1       2.383   1.469  -0.013  0.00  0.00    +0.043 A 
ATOM     25  N   UNL     1       3.611   1.941  -0.022  0.00  0.00    -0.380 N 
ATOM     26  C   UNL     1       4.559   0.823  -0.038  0.00  0.00    +0.150 C 
ATOM     27  C   UNL     1       3.722  -0.437  -0.036  0.00  0.00    +0.000 C 
ATOM     28  C   UNL     1       2.397  -0.005  -0.021  0.00  0.00    +0.005 A 
ATOM     29  C   UNL     1       1.167  -0.700  -0.013  0.00  0.00    +0.025 A 
ATOM     30  C   UNL     1       0.002  -0.004   0.002  0.00  0.00    +0.019 A 
ATOM     31 BR   UNL     1      -1.636  -0.949   0.013  0.00  0.00    -0.050 Br
ATOM     32  H   UNL     1       3.851   2.881  -0.020  0.00  0.00    +0.160 HD
ENDBRANCH  20  27
ENDBRANCH   1  21
TORSDOF 5
