REMARK  Name = ZINC20558500
REMARK  7 active torsions:
REMARK  status: ('A' for Active; 'I' for Inactive)
REMARK    1  A    between atoms: C_9  and  C_17
REMARK    2  A    between atoms: C_11  and  C_15
REMARK    3  A    between atoms: C_12  and  N_14
REMARK    4  A    between atoms: C_20  and  O_24
REMARK    5  A    between atoms: C_21  and  O_23
REMARK    6  A    between atoms: N_28  and  C_29
REMARK    7  A    between atoms: C_29  and  C_30
REMARK                            x       y       z     vdW  Elec       q    Type
REMARK                         _______ _______ _______ _____ _____    ______ ____
ROOT
ATOM      1  C   UNL     1      -1.216   1.745   0.017  0.00  0.00    +0.001 A 
ATOM      2  C   UNL     1      -1.248   3.129   0.028  0.00  0.00    +0.002 A 
ATOM      3  C   UNL     1      -0.068   3.848   0.021  0.00  0.00    +0.025 A 
ATOM      4  C   UNL     1       1.153   3.184   0.010  0.00  0.00    +0.062 A 
ATOM      5  C   UNL     1       1.193   1.790   0.000  0.00  0.00    +0.042 A 
ATOM      6  C   UNL     1      -0.013   1.076   0.008  0.00  0.00    +0.013 A 
ATOM      7  C   UNL     1       2.456   1.014  -0.025  0.00  0.00    +0.162 C 
ATOM      8  C   UNL     1       3.621   1.567   0.299  0.00  0.00    +0.141 C 
ATOM      9  C   UNL     1       4.903   0.782   0.276  0.00  0.00    +0.118 C 
ATOM     10  C   UNL     1       4.731  -0.470  -0.540  0.00  0.00    +0.099 C 
ATOM     11  C   UNL     1       3.488  -0.933  -0.826  0.00  0.00    +0.199 C 
ATOM     12  O   UNL     1       2.390  -0.294  -0.391  0.00  0.00    -0.439 OA
ATOM     13  S   UNL     1       3.656   3.273   0.766  0.00  0.00    +0.076 S 
ATOM     14  O   UNL     1       3.413   3.326   2.165  0.00  0.00    -0.150 OA
ATOM     15  O   UNL     1       4.809   3.845   0.164  0.00  0.00    -0.150 OA
ATOM     16  N   UNL     1       2.329   3.943   0.015  0.00  0.00    -0.198 N 
ENDROOT
BRANCH   9  17
ATOM     17  C   UNL     1       5.287   0.411   1.686  0.00  0.00    -0.030 A 
ATOM     18  C   UNL     1       4.437  -0.369   2.449  0.00  0.00    +0.008 A 
ATOM     19  C   UNL     1       4.787  -0.717   3.740  0.00  0.00    +0.049 A 
ATOM     20  C   UNL     1       5.986  -0.275   4.276  0.00  0.00    +0.158 A 
ATOM     21  C   UNL     1       6.838   0.515   3.510  0.00  0.00    +0.159 A 
ATOM     22  C   UNL     1       6.484   0.855   2.214  0.00  0.00    +0.053 A 
BRANCH  21  23
ATOM     23  O   UNL     1       8.016   0.950   4.032  0.00  0.00    -0.503 OA
ATOM     24  H   UNL     1       8.689   1.574   3.425  0.00  0.00    +0.292 HD
ENDBRANCH  21  23
BRANCH  20  25
ATOM     25  O   UNL     1       6.329  -0.611   5.549  0.00  0.00    -0.503 OA
ATOM     26  H   UNL     1       7.281  -0.259   5.973  0.00  0.00    +0.292 HD
ENDBRANCH  20  25
ENDBRANCH   9  17
BRANCH  11  27
ATOM     27  N   UNL     1       3.350  -2.075  -1.574  0.00  0.00    -0.328 N 
ATOM     28  H   UNL     1       2.347  -2.459  -1.812  0.00  0.00    +0.145 HD
ATOM     29  H   UNL     1       4.243  -2.607  -1.935  0.00  0.00    +0.145 HD
ENDBRANCH  11  27
BRANCH  10  30
ATOM     30  C   UNL     1       5.882  -1.176  -1.015  0.00  0.00    +0.101 C 
ATOM     31  N   UNL     1       6.796  -1.736  -1.393  0.00  0.00    -0.191 NA
ENDBRANCH  10  30
BRANCH  16  32
ATOM     32  C   UNL     1       2.391   5.266  -0.611  0.00  0.00    +0.166 C 
BRANCH  32  33
ATOM     33  C   UNL     1       2.683   5.113  -2.081  0.00  0.00    -0.028 A 
ATOM     34  C   UNL     1       3.992   5.102  -2.527  0.00  0.00    +0.008 A 
ATOM     35  C   UNL     1       4.262   4.957  -3.875  0.00  0.00    +0.038 A 
ATOM     36  C   UNL     1       3.221   4.833  -4.779  0.00  0.00    +0.123 A 
ATOM     37  C   UNL     1       1.910   4.849  -4.332  0.00  0.00    +0.038 A 
ATOM     38  C   UNL     1       1.643   4.989  -2.983  0.00  0.00    +0.008 A 
ATOM     39  F   UNL     1       3.483   4.695  -6.097  0.00  0.00    -0.205 F 
ENDBRANCH  32  33
ENDBRANCH  16  32
TORSDOF 7
