REMARK  Name = ZINC39147103
REMARK  10 active torsions:
REMARK  status: ('A' for Active; 'I' for Inactive)
REMARK    1  A    between atoms: C_1  and  C_2
REMARK    2  A    between atoms: C_8  and  C_11
REMARK    3  A    between atoms: C_11  and  C_12
REMARK    4  A    between atoms: C_12  and  N_13
REMARK    5  A    between atoms: C_15  and  C_20
REMARK    6  A    between atoms: N_22  and  C_23
REMARK    7  A    between atoms: C_27  and  C_30
REMARK    8  A    between atoms: C_30  and  C_31
REMARK    9  A    between atoms: C_31  and  C_32
REMARK   10  A    between atoms: C_31  and  C_33
REMARK                            x       y       z     vdW  Elec       q    Type
REMARK                         _______ _______ _______ _____ _____    ______ ____
ROOT
ATOM      1  N   UNL     1       3.076   0.862  -5.815  0.00  0.00    -0.300 N 
ATOM      2  C   UNL     1       3.347   1.243  -7.207  0.00  0.00    +0.121 C 
ATOM      3  C   UNL     1       4.875   1.463  -7.283  0.00  0.00    +0.101 C 
ATOM      4  C   UNL     1       5.380   0.567  -6.129  0.00  0.00    +0.110 C 
ATOM      5  C   UNL     1       4.200   0.478  -5.186  0.00  0.00    +0.216 C 
ATOM      6  O   UNL     1       4.260   0.111  -4.032  0.00  0.00    -0.276 OA
ENDROOT
BRANCH   3   7
ATOM      7  C   UNL     1       5.420   0.996  -8.608  0.00  0.00    +0.220 C 
ATOM      8  O   UNL     1       4.674   0.523  -9.439  0.00  0.00    -0.275 OA
ATOM      9  N   UNL     1       6.738   1.103  -8.870  0.00  0.00    -0.290 N 
ATOM     10  H   UNL     1       7.335   1.481  -8.205  0.00  0.00    +0.151 HD
BRANCH   9  11
ATOM     11  C   UNL     1       7.269   0.649 -10.157  0.00  0.00    +0.216 C 
ATOM     12  N   UNL     1       7.476  -0.832 -10.175  0.00  0.00    -0.227 NA
ATOM     13  N   UNL     1       8.457  -1.238 -11.159  0.00  0.00    -0.241 NA
ATOM     14  C   UNL     1       9.557  -0.273 -11.401  0.00  0.00    +0.130 C 
ATOM     15  S   UNL     1       9.025   1.178 -10.393  0.00  0.00    -0.102 S 
ATOM     16  H   UNL     1       7.721  -1.174  -9.258  0.00  0.00    +0.143 HD
ATOM     17  H   UNL     1       8.013  -1.504 -12.025  0.00  0.00    +0.142 HD
BRANCH  14  18
ATOM     18  C   UNL     1      10.892  -0.829 -10.899  0.00  0.00    +0.034 C 
BRANCH  18  19
ATOM     19  C   UNL     1      12.020   0.132 -11.279  0.00  0.00    -0.015 C 
ATOM     20  C   UNL     1      13.331  -0.347 -10.652  0.00  0.00    +0.007 C 
ATOM     21  C   UNL     1      12.166   0.171 -12.801  0.00  0.00    +0.007 C 
ENDBRANCH  18  19
ENDBRANCH  14  18
ENDBRANCH   9  11
ENDBRANCH   3   7
BRANCH   1  22
ATOM     22  C   UNL     1       1.752   0.901  -5.191  0.00  0.00    +0.112 C 
BRANCH  22  23
ATOM     23  C   UNL     1       1.525   2.276  -4.561  0.00  0.00    +0.056 C 
BRANCH  23  31
ATOM     24  C   UNL     1       0.710   0.346   0.771  0.00  0.00    +0.044 C 
ATOM     25  C   UNL     1      -0.079   0.961  -0.356  0.00  0.00    -0.050 A 
ATOM     26  C   UNL     1      -1.438   1.192  -0.200  0.00  0.00    +0.005 A 
ATOM     27  C   UNL     1      -2.178   1.753  -1.218  0.00  0.00    +0.026 A 
ATOM     28  C   UNL     1      -1.558   2.093  -2.416  0.00  0.00    +0.047 A 
ATOM     29  N   UNL     1      -2.007   2.653  -3.591  0.00  0.00    -0.360 N 
ATOM     30  C   UNL     1      -0.969   2.779  -4.473  0.00  0.00    +0.087 A 
ATOM     31  C   UNL     1       0.162   2.316  -3.918  0.00  0.00    -0.021 A 
ATOM     32  C   UNL     1      -0.179   1.857  -2.569  0.00  0.00    +0.003 A 
ATOM     33  C   UNL     1       0.552   1.292  -1.523  0.00  0.00    +0.013 A 
ATOM     34  H   UNL     1      -2.923   2.919  -3.767  0.00  0.00    +0.165 HD
ENDBRANCH  23  31
ENDBRANCH  22  23
ENDBRANCH   1  22
TORSDOF 7
