REMARK  Name = ZINC43221610
REMARK  12 active torsions:
REMARK  status: ('A' for Active; 'I' for Inactive)
REMARK    1  A    between atoms: C_1  and  C_2
REMARK    2  A    between atoms: C_2  and  C_3
REMARK    3  A    between atoms: C_3  and  C_5
REMARK    4  A    between atoms: C_3  and  C_6
REMARK    5  A    between atoms: C_6  and  C_37
REMARK    6  A    between atoms: C_11  and  C_14
REMARK    7  A    between atoms: C_18  and  O_21
REMARK    8  A    between atoms: C_19  and  O_20
REMARK    9  A    between atoms: O_21  and  C_22
REMARK   10  A    between atoms: N_25  and  C_28
REMARK   11  A    between atoms: C_31  and  C_34
REMARK   12  A    between atoms: C_34  and  C_36
REMARK                            x       y       z     vdW  Elec       q    Type
REMARK                         _______ _______ _______ _____ _____    ______ ____
ROOT
ATOM      1  C   UNL     1      -0.905  -1.438  -0.363  0.00  0.00    +0.051 C 
ATOM      2  C   UNL     1      -1.940  -2.524  -0.605  0.00  0.00    +0.086 C 
ATOM      3  C   UNL     1      -1.817  -2.618  -2.174  0.00  0.00    +0.077 C 
ATOM      4  C   UNL     1      -0.359  -2.705  -2.361  0.00  0.00    -0.023 C 
ATOM      5  N   UNL     1       0.143  -1.643  -1.408  0.00  0.00    +0.396 N 
ATOM      6  C   UNL     1      -3.021  -3.331  -2.520  0.00  0.00    +0.229 C 
ATOM      7  O   UNL     1      -3.173  -4.128  -3.421  0.00  0.00    -0.275 OA
ATOM      8  N   UNL     1      -3.959  -2.912  -1.609  0.00  0.00    -0.210 N 
ATOM      9  C   UNL     1      -3.407  -2.233  -0.544  0.00  0.00    +0.229 C 
ATOM     10  O   UNL     1      -3.982  -1.542   0.269  0.00  0.00    -0.275 OA
ATOM     11  H   UNL     1       0.304  -0.779  -1.903  0.00  0.00    -0.083 HD
ATOM     12  H   UNL     1       0.999  -1.955  -0.976  0.00  0.00    -0.083 HD
ENDROOT
BRANCH   4  13
ATOM     13  C   UNL     1       0.147  -4.075  -1.987  0.00  0.00    -0.015 A 
ATOM     14  C   UNL     1       0.638  -4.307  -0.716  0.00  0.00    +0.006 A 
ATOM     15  C   UNL     1       1.103  -5.562  -0.370  0.00  0.00    +0.004 A 
ATOM     16  C   UNL     1       1.081  -6.590  -1.294  0.00  0.00    +0.049 A 
ATOM     17  C   UNL     1       0.591  -6.364  -2.570  0.00  0.00    +0.161 A 
ATOM     18  C   UNL     1       0.117  -5.102  -2.916  0.00  0.00    +0.160 A 
BRANCH  18  19
ATOM     19  O   UNL     1      -0.371  -4.877  -4.166  0.00  0.00    -0.503 OA
ATOM     20  H   UNL     1       0.297  -4.587  -4.802  0.00  0.00    +0.292 HD
ENDBRANCH  18  19
BRANCH  17  21
ATOM     21  O   UNL     1       0.568  -7.374  -3.480  0.00  0.00    -0.491 OA
ATOM     22  C   UNL     1       1.066  -8.644  -3.053  0.00  0.00    +0.277 C 
ENDBRANCH  17  21
ENDBRANCH   4  13
BRANCH   8  23
ATOM     23  C   UNL     1      -5.328  -3.156  -1.739  0.00  0.00    +0.044 A 
ATOM     24  C   UNL     1      -6.211  -2.689  -0.770  0.00  0.00    +0.024 A 
ATOM     25  C   UNL     1      -7.560  -2.927  -0.893  0.00  0.00    +0.013 A 
ATOM     26  C   UNL     1      -8.045  -3.640  -1.997  0.00  0.00    +0.017 A 
ATOM     27  C   UNL     1      -7.153  -4.107  -2.970  0.00  0.00    +0.013 A 
ATOM     28  C   UNL     1      -5.805  -3.859  -2.840  0.00  0.00    +0.024 A 
BRANCH  26  29
ATOM     29  C   UNL     1      -9.485  -3.897  -2.134  0.00  0.00    +0.160 C 
ATOM     30  O   UNL     1     -10.244  -3.583  -1.241  0.00  0.00    -0.292 OA
ATOM     31  C   UNL     1     -10.018  -4.551  -3.382  0.00  0.00    +0.091 C 
ENDBRANCH  26  29
ENDBRANCH   8  23
BRANCH   1  32
ATOM     32  C   UNL     1      -0.306  -1.585   1.012  0.00  0.00    +0.347 C 
ATOM     33  O   UNL     1      -1.017  -1.499   1.999  0.00  0.00    -0.248 OA
ATOM     34  O   UNL     1       0.889  -1.789   1.138  0.00  0.00    -0.248 OA
ENDBRANCH   1  32
BRANCH   1  35
ATOM     35  C   UNL     1      -1.543  -0.056  -0.516  0.00  0.00    -0.014 C 
ATOM     36  C   UNL     1      -2.030   0.124  -1.956  0.00  0.00    +0.006 C 
BRANCH  35  38
ATOM     37  C   UNL     1      -1.177   2.398  -0.221  0.00  0.00    +0.004 C 
ATOM     38  C   UNL     1      -0.508   1.022  -0.189  0.00  0.00    -0.001 C 
ENDBRANCH  35  38
ENDBRANCH   1  35
TORSDOF 8
