REMARK  Name = ZINC20864783
REMARK  8 active torsions:
REMARK  status: ('A' for Active; 'I' for Inactive)
REMARK    1  A    between atoms: C_1  and  C_2
REMARK    2  A    between atoms: C_7  and  N_8
REMARK    3  A    between atoms: C_9  and  C_26
REMARK    4  A    between atoms: C_12  and  S_13
REMARK    5  A    between atoms: S_13  and  C_14
REMARK    6  A    between atoms: C_14  and  C_15
REMARK    7  A    between atoms: N_17  and  C_18
REMARK    8  A    between atoms: C_19  and  C_23
REMARK                            x       y       z     vdW  Elec       q    Type
REMARK                         _______ _______ _______ _____ _____    ______ ____
ROOT
ATOM      1  N   UNL     1      -5.389   1.498   0.030  0.00  0.00    -0.270 N 
ATOM      2  C   UNL     1      -6.087   2.686   0.045  0.00  0.00    +0.171 A 
ATOM      3  N   UNL     1      -5.199   3.654   0.046  0.00  0.00    -0.128 NA
ATOM      4  N   UNL     1      -4.012   3.163   0.038  0.00  0.00    -0.122 NA
ATOM      5  C   UNL     1      -4.064   1.851   0.031  0.00  0.00    +0.197 A 
ENDROOT
BRANCH   2   6
ATOM      6  C   UNL     1      -7.555   2.841   0.053  0.00  0.00    +0.045 A 
ATOM      7  C   UNL     1      -8.477   1.844   0.045  0.00  0.00    +0.095 A 
ATOM      8  N   UNL     1      -9.733   2.377   0.060  0.00  0.00    -0.360 N 
ATOM      9  H   UNL     1     -10.611   1.715   0.064  0.00  0.00    +0.165 HD
ATOM     10  C   UNL     1      -9.666   3.754   0.067  0.00  0.00    +0.047 A 
ATOM     11  C   UNL     1      -8.306   4.109   0.063  0.00  0.00    +0.010 A 
ATOM     12  C   UNL     1      -7.935   5.452   0.069  0.00  0.00    +0.011 A 
ATOM     13  C   UNL     1      -8.907   6.428   0.078  0.00  0.00    +0.001 A 
ATOM     14  C   UNL     1     -10.250   6.079   0.082  0.00  0.00    +0.002 A 
ATOM     15  C   UNL     1     -10.632   4.755   0.077  0.00  0.00    +0.026 A 
ENDBRANCH   2   6
BRANCH   1  22
ATOM     16  C   UNL     1      -5.914   0.281  -2.488  0.00  0.00    +0.046 C 
ATOM     17  C   UNL     1      -6.192  -0.428  -1.188  0.00  0.00    -0.026 A 
ATOM     18  C   UNL     1      -6.712  -1.708  -1.196  0.00  0.00    +0.005 A 
ATOM     19  C   UNL     1      -6.973  -2.357  -0.004  0.00  0.00    +0.000 A 
ATOM     20  C   UNL     1      -6.709  -1.730   1.200  0.00  0.00    +0.002 A 
ATOM     21  C   UNL     1      -6.184  -0.453   1.215  0.00  0.00    +0.026 A 
ATOM     22  C   UNL     1      -5.921   0.202   0.019  0.00  0.00    +0.053 A 
ENDBRANCH   1  22
BRANCH   5  23
ATOM     23  S   UNL     1      -2.689   0.750   0.019  0.00  0.00    -0.076 S 
BRANCH  23  24
ATOM     24  C   UNL     1      -1.330   1.944   0.019  0.00  0.00    +0.173 C 
BRANCH  24  25
ATOM     25  C   UNL     1      -0.014   1.209   0.009  0.00  0.00    +0.228 C 
ATOM     26  O   UNL     1       0.002  -0.004   0.002  0.00  0.00    -0.275 OA
ATOM     27  N   UNL     1       1.143   1.898   0.001  0.00  0.00    -0.279 N 
ATOM     28  H   UNL     1       1.129   2.998   0.007  0.00  0.00    +0.155 HD
BRANCH  27  29
ATOM     29  C   UNL     1       2.354   1.221  -0.014  0.00  0.00    +0.084 A 
ATOM     30  C   UNL     1       3.639   1.750  -0.029  0.00  0.00    +0.065 A 
ATOM     31  C   UNL     1       4.730   0.805  -0.039  0.00  0.00    +0.022 A 
ATOM     32  C   UNL     1       4.410  -0.501  -0.044  0.00  0.00    +0.048 A 
ATOM     33  S   UNL     1       2.630  -0.488  -0.026  0.00  0.00    -0.081 S 
BRANCH  30  34
ATOM     34  C   UNL     1       3.875   3.198  -0.031  0.00  0.00    +0.244 C 
ATOM     35  O   UNL     1       2.932   3.968  -0.019  0.00  0.00    -0.270 OA
ATOM     36  N   UNL     1       5.135   3.675  -0.045  0.00  0.00    -0.325 N 
ATOM     37  H   UNL     1       5.312   4.761  -0.047  0.00  0.00    +0.145 HD
ATOM     38  H   UNL     1       5.987   2.979  -0.057  0.00  0.00    +0.145 HD
ENDBRANCH  30  34
ENDBRANCH  27  29
ENDBRANCH  24  25
ENDBRANCH  23  24
ENDBRANCH   5  23
TORSDOF 7
