REMARK  Name = ZINC35354488
REMARK  7 active torsions:
REMARK  status: ('A' for Active; 'I' for Inactive)
REMARK    1  A    between atoms: C_1  and  C_2
REMARK    2  A    between atoms: C_5  and  N_9
REMARK    3  A    between atoms: C_6  and  C_8
REMARK    4  A    between atoms: N_9  and  S_10
REMARK    5  A    between atoms: S_10  and  C_13
REMARK    6  A    between atoms: C_16  and  N_19
REMARK    7  A    between atoms: N_19  and  N_20
REMARK                            x       y       z     vdW  Elec       q    Type
REMARK                         _______ _______ _______ _____ _____    ______ ____
ROOT
ATOM      1  S   UNL     1       0.780  -4.979  -1.271  0.00  0.00    +0.072 S 
ATOM      2  O   UNL     1       0.556  -6.363  -1.040  0.00  0.00    -0.150 OA
ATOM      3  O   UNL     1       0.369  -4.331  -2.467  0.00  0.00    -0.150 OA
ENDROOT
BRANCH   1   4
ATOM      4  C   UNL     1       2.517  -4.719  -1.127  0.00  0.00    +0.109 A 
ATOM      5  C   UNL     1       3.106  -3.636  -1.753  0.00  0.00    +0.030 A 
ATOM      6  C   UNL     1       4.467  -3.429  -1.643  0.00  0.00    +0.026 A 
ATOM      7  C   UNL     1       5.244  -4.310  -0.902  0.00  0.00    +0.041 A 
ATOM      8  C   UNL     1       4.649  -5.397  -0.274  0.00  0.00    +0.026 A 
ATOM      9  C   UNL     1       3.286  -5.595  -0.384  0.00  0.00    +0.030 A 
BRANCH   7  10
ATOM     10  N   UNL     1       6.621  -4.104  -0.788  0.00  0.00    -0.283 N 
ATOM     11  H   UNL     1       7.035  -3.345  -1.227  0.00  0.00    +0.166 HD
BRANCH  10  12
ATOM     12  N   UNL     1       7.383  -4.971  -0.059  0.00  0.00    -0.257 NA
ATOM     13  H   UNL     1       7.274  -5.918  -0.393  0.00  0.00    +0.140 HD
ATOM     14  H   UNL     1       8.354  -4.695  -0.068  0.00  0.00    +0.140 HD
ENDBRANCH  10  12
ENDBRANCH   7  10
ENDBRANCH   1   4
BRANCH   1  15
ATOM     15  N   UNL     1       0.058  -4.167  -0.021  0.00  0.00    -0.216 N 
ATOM     16  H   UNL     1      -0.470  -4.653   0.632  0.00  0.00    +0.174 HD
BRANCH  15  21
ATOM     17  C   UNL     1       0.671   1.451   0.442  0.00  0.00    +0.044 C 
ATOM     18  C   UNL     1       0.508  -0.042   0.319  0.00  0.00    -0.050 A 
ATOM     19  C   UNL     1       0.416  -0.625  -0.932  0.00  0.00    +0.005 A 
ATOM     20  C   UNL     1       0.267  -1.993  -1.048  0.00  0.00    +0.025 A 
ATOM     21  C   UNL     1       0.209  -2.784   0.093  0.00  0.00    +0.051 A 
ATOM     22  C   UNL     1       0.302  -2.195   1.347  0.00  0.00    -0.028 A 
ATOM     23  C   UNL     1       0.457  -0.826   1.456  0.00  0.00    +0.008 A 
ATOM     24  C   UNL     1       0.239  -3.048   2.588  0.00  0.00    +0.046 C 
ENDBRANCH  15  21
ENDBRANCH   1  15
TORSDOF 5
