REMARK  Name = ZINC16013188
REMARK  6 active torsions:
REMARK  status: ('A' for Active; 'I' for Inactive)
REMARK    1  A    between atoms: C_1  and  C_2
REMARK    2  A    between atoms: C_7  and  C_8
REMARK    3  A    between atoms: C_17  and  C_20
REMARK    4  A    between atoms: C_20  and  C_21
REMARK    5  A    between atoms: N_26  and  C_29
REMARK    6  A    between atoms: C_29  and  C_30
REMARK                            x       y       z     vdW  Elec       q    Type
REMARK                         _______ _______ _______ _____ _____    ______ ____
ROOT
ATOM      1  C   UNL     1      -0.018   1.503   0.010  0.00  0.00    +0.044 C 
ATOM      2  C   UNL     1       0.002  -0.004   0.002  0.00  0.00    -0.046 A 
ATOM      3  C   UNL     1       0.006  -0.686  -1.202  0.00  0.00    +0.004 A 
ATOM      4  C   UNL     1       0.024  -2.069  -1.209  0.00  0.00    +0.008 A 
ATOM      5  C   UNL     1       0.039  -2.765  -0.021  0.00  0.00    +0.004 A 
ATOM      6  C   UNL     1       0.036  -2.090   1.196  0.00  0.00    +0.042 A 
ATOM      7  C   UNL     1       0.023  -0.697   1.195  0.00  0.00    -0.026 A 
ATOM      8  C   UNL     1       0.025   0.056   2.500  0.00  0.00    +0.046 C 
ATOM      9  N   UNL     1       0.055  -3.001   2.254  0.00  0.00    -0.283 N 
ATOM     10  C   UNL     1       0.070  -4.278   1.825  0.00  0.00    +0.243 C 
ATOM     11  O   UNL     1       0.088  -5.274   2.516  0.00  0.00    -0.273 OA
ATOM     12  C   UNL     1       0.061  -4.227   0.321  0.00  0.00    +0.136 C 
ATOM     13  C   UNL     1       1.290  -4.927  -0.271  0.00  0.00    +0.122 C 
ATOM     14  C   UNL     1       0.785  -6.345  -0.657  0.00  0.00    +0.107 C 
ATOM     15  C   UNL     1      -0.699  -6.367  -0.233  0.00  0.00    +0.076 C 
ATOM     16  N   UNL     1      -1.111  -4.931  -0.234  0.00  0.00    -0.295 NA
ATOM     17  C   UNL     1       0.889  -6.354  -2.165  0.00  0.00    +0.227 C 
ATOM     18  O   UNL     1       0.582  -7.282  -2.883  0.00  0.00    -0.275 OA
ATOM     19  N   UNL     1       1.372  -5.179  -2.584  0.00  0.00    -0.237 N 
ATOM     20  C   UNL     1       1.644  -4.294  -1.598  0.00  0.00    +0.229 C 
ATOM     21  O   UNL     1       2.094  -3.178  -1.744  0.00  0.00    -0.275 OA
ATOM     22  H   UNL     1       0.056  -2.745   3.189  0.00  0.00    +0.155 HD
ATOM     23  H   UNL     1      -1.924  -4.793   0.347  0.00  0.00    +0.124 HD
ENDROOT
BRANCH  15  24
ATOM     24  C   UNL     1      -1.532  -7.146  -1.252  0.00  0.00    +0.115 C 
BRANCH  24  25
ATOM     25  C   UNL     1      -2.951  -7.260  -0.759  0.00  0.00    +0.212 C 
ATOM     26  O   UNL     1      -3.265  -6.766   0.303  0.00  0.00    -0.276 OA
ATOM     27  N   UNL     1      -3.872  -7.910  -1.498  0.00  0.00    -0.329 N 
ATOM     28  H   UNL     1      -3.620  -8.305  -2.348  0.00  0.00    +0.145 HD
ATOM     29  H   UNL     1      -4.785  -7.984  -1.180  0.00  0.00    +0.145 HD
ENDBRANCH  24  25
ENDBRANCH  15  24
BRANCH  19  30
ATOM     30  C   UNL     1       1.595  -4.874  -4.000  0.00  0.00    +0.151 C 
BRANCH  30  31
ATOM     31  C   UNL     1       0.349  -4.261  -4.585  0.00  0.00    -0.029 A 
ATOM     32  C   UNL     1      -0.621  -5.070  -5.145  0.00  0.00    +0.008 A 
ATOM     33  C   UNL     1      -1.765  -4.509  -5.681  0.00  0.00    +0.038 A 
ATOM     34  C   UNL     1      -1.938  -3.136  -5.657  0.00  0.00    +0.123 A 
ATOM     35  C   UNL     1      -0.966  -2.326  -5.095  0.00  0.00    +0.038 A 
ATOM     36  C   UNL     1       0.175  -2.890  -4.555  0.00  0.00    +0.008 A 
ATOM     37  F   UNL     1      -3.055  -2.586  -6.181  0.00  0.00    -0.205 F 
ENDBRANCH  30  31
ENDBRANCH  19  30
TORSDOF 4
