REMARK  Name = ZINC00811386
REMARK  8 active torsions:
REMARK  status: ('A' for Active; 'I' for Inactive)
REMARK    1  A    between atoms: C_4  and  C_7
REMARK    2  A    between atoms: C_7  and  C_8
REMARK    3  A    between atoms: C_8  and  C_9
REMARK    4  A    between atoms: C_8  and  C_19
REMARK    5  A    between atoms: N_11  and  N_12
REMARK    6  A    between atoms: N_12  and  C_13
REMARK    7  A    between atoms: N_21  and  N_22
REMARK    8  A    between atoms: N_22  and  C_23
REMARK                            x       y       z     vdW  Elec       q    Type
REMARK                         _______ _______ _______ _____ _____    ______ ____
ROOT
ATOM      1  C   UNL     1       0.149  -0.533   1.440  0.00  0.00    +0.168 C 
ENDROOT
BRANCH   1   2
ATOM      2  C   UNL     1      -1.122  -0.254   2.200  0.00  0.00    +0.241 C 
ATOM      3  O   UNL     1      -2.192  -0.307   1.631  0.00  0.00    -0.273 OA
ATOM      4  N   UNL     1      -1.070   0.054   3.511  0.00  0.00    -0.236 N 
ATOM      5  H   UNL     1      -0.223   0.025   3.982  0.00  0.00    +0.173 HD
BRANCH   4   6
ATOM      6  N   UNL     1      -2.240   0.415   4.192  0.00  0.00    -0.264 N 
ATOM      7  H   UNL     1      -3.097   0.370   3.742  0.00  0.00    +0.170 HD
BRANCH   6   8
ATOM      8  C   UNL     1      -2.170   0.841   5.521  0.00  0.00    +0.044 A 
ATOM      9  C   UNL     1      -0.935   1.009   6.135  0.00  0.00    +0.024 A 
ATOM     10  C   UNL     1      -0.870   1.435   7.447  0.00  0.00    +0.002 A 
ATOM     11  C   UNL     1      -2.033   1.684   8.153  0.00  0.00    +0.000 A 
ATOM     12  C   UNL     1      -3.264   1.512   7.547  0.00  0.00    +0.002 A 
ATOM     13  C   UNL     1      -3.336   1.091   6.233  0.00  0.00    +0.024 A 
ENDBRANCH   6   8
ENDBRANCH   4   6
ENDBRANCH   1   2
BRANCH   1  14
ATOM     14  C   UNL     1       0.395  -2.020   1.401  0.00  0.00    +0.241 C 
ATOM     15  O   UNL     1      -0.386  -2.778   1.936  0.00  0.00    -0.273 OA
ATOM     16  N   UNL     1       1.482  -2.507   0.770  0.00  0.00    -0.236 N 
ATOM     17  H   UNL     1       2.106  -1.901   0.341  0.00  0.00    +0.173 HD
BRANCH  16  18
ATOM     18  N   UNL     1       1.710  -3.889   0.733  0.00  0.00    -0.264 N 
ATOM     19  H   UNL     1       1.085  -4.495   1.161  0.00  0.00    +0.170 HD
BRANCH  18  20
ATOM     20  C   UNL     1       2.836  -4.393   0.079  0.00  0.00    +0.044 A 
ATOM     21  C   UNL     1       3.728  -3.527  -0.540  0.00  0.00    +0.024 A 
ATOM     22  C   UNL     1       4.844  -4.029  -1.181  0.00  0.00    +0.002 A 
ATOM     23  C   UNL     1       5.068  -5.393  -1.216  0.00  0.00    +0.000 A 
ATOM     24  C   UNL     1       4.179  -6.259  -0.606  0.00  0.00    +0.002 A 
ATOM     25  C   UNL     1       3.064  -5.763   0.042  0.00  0.00    +0.024 A 
ENDBRANCH  18  20
ENDBRANCH  16  18
ENDBRANCH   1  14
BRANCH   1  26
ATOM     26  C   UNL     1       0.018   0.000   0.012  0.00  0.00    +0.057 C 
BRANCH  26  30
ATOM     27  C   UNL     1      -0.265   4.261   0.104  0.00  0.00    +0.000 A 
ATOM     28  C   UNL     1       0.974   3.650   0.133  0.00  0.00    +0.000 A 
ATOM     29  C   UNL     1       1.066   2.271   0.103  0.00  0.00    +0.003 A 
ATOM     30  C   UNL     1      -0.082   1.503   0.045  0.00  0.00    -0.046 A 
ATOM     31  C   UNL     1      -1.322   2.115   0.011  0.00  0.00    +0.003 A 
ATOM     32  C   UNL     1      -1.413   3.493   0.045  0.00  0.00    +0.000 A 
ENDBRANCH  26  30
ENDBRANCH   1  26
TORSDOF 8
