REMARK  Name = ZINC39965025
REMARK  11 active torsions:
REMARK  status: ('A' for Active; 'I' for Inactive)
REMARK    1  A    between atoms: C_1  and  C_2
REMARK    2  A    between atoms: C_3  and  C_32
REMARK    3  A    between atoms: C_4  and  N_10
REMARK    4  A    between atoms: C_6  and  C_7
REMARK    5  A    between atoms: C_11  and  C_13
REMARK    6  A    between atoms: C_13  and  N_14
REMARK    7  A    between atoms: N_17  and  S_20
REMARK    8  A    between atoms: S_20  and  C_23
REMARK    9  A    between atoms: C_26  and  C_29
REMARK   10  A    between atoms: C_29  and  C_30
REMARK   11  A    between atoms: C_29  and  C_31
REMARK                            x       y       z     vdW  Elec       q    Type
REMARK                         _______ _______ _______ _____ _____    ______ ____
ROOT
ATOM      1  C   UNL     1       0.061  -5.370  -2.957  0.00  0.00    +0.180 C 
ENDROOT
BRANCH   1   2
ATOM      2  N   UNL     1       0.082  -6.728  -2.396  0.00  0.00    -0.291 NA
ATOM      3  C   UNL     1       1.339  -6.982  -1.679  0.00  0.00    +0.102 C 
ATOM      4  C   UNL     1       1.249  -8.332  -0.959  0.00  0.00    +0.125 C 
ATOM      5  N   UNL     1       0.874  -9.361  -1.941  0.00  0.00    -0.174 NA
ATOM      6  C   UNL     1      -0.299  -9.114  -2.794  0.00  0.00    +0.125 C 
ATOM      7  C   UNL     1      -0.148  -7.734  -3.442  0.00  0.00    +0.102 C 
BRANCH   5   8
ATOM      8  S   UNL     1       1.748 -10.760  -2.081  0.00  0.00    +0.061 S 
ATOM      9  O   UNL     1       1.523 -11.249  -3.396  0.00  0.00    -0.153 OA
ATOM     10  O   UNL     1       3.049 -10.477  -1.586  0.00  0.00    -0.153 OA
BRANCH   8  11
ATOM     11  C   UNL     1       1.033 -11.934  -0.978  0.00  0.00    +0.105 A 
ATOM     12  C   UNL     1       1.483 -12.019   0.326  0.00  0.00    +0.029 A 
ATOM     13  C   UNL     1       0.922 -12.940   1.191  0.00  0.00    +0.006 A 
ATOM     14  C   UNL     1      -0.088 -13.775   0.752  0.00  0.00    -0.045 A 
ATOM     15  C   UNL     1      -0.538 -13.689  -0.552  0.00  0.00    +0.006 A 
ATOM     16  C   UNL     1       0.019 -12.765  -1.416  0.00  0.00    +0.029 A 
BRANCH  14  17
ATOM     17  C   UNL     1      -0.699 -14.779   1.696  0.00  0.00    +0.013 C 
ATOM     18  C   UNL     1      -2.196 -14.499   1.839  0.00  0.00    +0.012 C 
ATOM     19  C   UNL     1      -0.495 -16.190   1.140  0.00  0.00    +0.012 C 
ENDBRANCH  14  17
ENDBRANCH   8  11
ENDBRANCH   5   8
ENDBRANCH   1   2
BRANCH   1  21
ATOM     20  N   UNL     1       0.033  -3.045  -2.115  0.00  0.00    -0.278 N 
ATOM     21  C   UNL     1       0.053  -4.364  -1.836  0.00  0.00    +0.232 C 
ATOM     22  O   UNL     1       0.063  -4.739  -0.683  0.00  0.00    -0.274 OA
ATOM     23  H   UNL     1       0.025  -2.744  -3.037  0.00  0.00    +0.155 HD
BRANCH  20  27
ATOM     24  C   UNL     1      -0.018   1.503   0.010  0.00  0.00    +0.046 C 
ATOM     25  C   UNL     1       0.002  -0.004   0.002  0.00  0.00    -0.012 A 
ATOM     26  C   UNL     1       0.007  -0.730  -1.180  0.00  0.00    +0.084 A 
ATOM     27  C   UNL     1       0.026  -2.121  -1.086  0.00  0.00    +0.090 A 
ATOM     28  S   UNL     1       0.037  -2.413   0.568  0.00  0.00    -0.067 S 
ATOM     29  C   UNL     1       0.023  -0.733   1.162  0.00  0.00    +0.080 A 
BRANCH  29  30
ATOM     30  C   UNL     1       0.030  -0.252   2.544  0.00  0.00    +0.248 C 
ATOM     31  O   UNL     1       0.015   0.943   2.773  0.00  0.00    -0.270 OA
ATOM     32  N   UNL     1       0.051  -1.133   3.564  0.00  0.00    -0.325 N 
ATOM     33  H   UNL     1       0.062  -2.086   3.382  0.00  0.00    +0.145 HD
ATOM     34  H   UNL     1       0.056  -0.814   4.480  0.00  0.00    +0.145 HD
ENDBRANCH  29  30
BRANCH  26  35
ATOM     35  C   UNL     1      -0.009  -0.073  -2.453  0.00  0.00    +0.102 C 
ATOM     36  N   UNL     1      -0.021   0.448  -3.462  0.00  0.00    -0.191 NA
ENDBRANCH  26  35
ENDBRANCH  20  27
ENDBRANCH   1  21
TORSDOF 8
