REMARK  Name = ZINC39604846
REMARK  6 active torsions:
REMARK  status: ('A' for Active; 'I' for Inactive)
REMARK    1  A    between atoms: C_1  and  O_2
REMARK    2  A    between atoms: O_2  and  C_3
REMARK    3  A    between atoms: C_7  and  C_9
REMARK    4  A    between atoms: C_13  and  C_22
REMARK    5  A    between atoms: N_24  and  C_25
REMARK    6  A    between atoms: C_25  and  C_26
REMARK                            x       y       z     vdW  Elec       q    Type
REMARK                         _______ _______ _______ _____ _____    ______ ____
ROOT
ATOM      1  C   UNL     1       1.306  -4.353  -2.454  0.00  0.00    +0.248 C 
ATOM      2  O   UNL     1       1.722  -4.977  -3.410  0.00  0.00    -0.270 OA
ATOM      3  N   UNL     1       0.851  -5.009  -1.367  0.00  0.00    -0.296 N 
ATOM      4  C   UNL     1       0.215  -4.433  -0.159  0.00  0.00    +0.121 C 
ATOM      5  C   UNL     1      -0.912  -5.428   0.200  0.00  0.00    +0.100 C 
ATOM      6  C   UNL     1      -0.471  -6.762  -0.425  0.00  0.00    -0.004 C 
ATOM      7  C   UNL     1       0.870  -6.469  -1.113  0.00  0.00    +0.115 C 
ATOM      8  C   UNL     1      -0.290  -7.819   0.659  0.00  0.00    -0.010 C 
ATOM      9  C   UNL     1       0.091  -9.152   0.008  0.00  0.00    -0.082 C 
ATOM     10  N   UNL     1      -0.962  -9.559  -0.930  0.00  0.00    +0.379 N 
ATOM     11  C   UNL     1      -1.066  -8.582  -2.021  0.00  0.00    -0.082 C 
ATOM     12  C   UNL     1      -1.496  -7.226  -1.455  0.00  0.00    -0.010 C 
ATOM     13  H   UNL     1      -0.738 -10.466  -1.312  0.00  0.00    -0.086 HD
ATOM     14  H   UNL     1      -1.844  -9.611  -0.442  0.00  0.00    -0.086 HD
ENDROOT
BRANCH   1  19
ATOM     15  C   UNL     1       1.560  -0.767  -1.356  0.00  0.00    +0.121 A 
ATOM     16  C   UNL     1       1.278  -0.103  -2.543  0.00  0.00    +0.047 A 
ATOM     17  C   UNL     1       1.006  -0.818  -3.694  0.00  0.00    +0.019 A 
ATOM     18  C   UNL     1       1.014  -2.199  -3.671  0.00  0.00    +0.030 A 
ATOM     19  C   UNL     1       1.297  -2.876  -2.482  0.00  0.00    +0.054 A 
ATOM     20  C   UNL     1       1.576  -2.151  -1.323  0.00  0.00    +0.059 A 
ATOM     21 BR   UNL     1       0.641  -3.173  -5.248  0.00  0.00    -0.050 Br
BRANCH  15  23
ATOM     22  C   UNL     1       1.792   1.367  -0.334  0.00  0.00    +0.277 C 
ATOM     23  O   UNL     1       1.825  -0.058  -0.228  0.00  0.00    -0.495 OA
ENDBRANCH  15  23
ENDBRANCH   1  19
BRANCH   5  24
ATOM     24  C   UNL     1      -2.221  -4.974  -0.393  0.00  0.00    +0.218 C 
ATOM     25  O   UNL     1      -2.231  -4.339  -1.426  0.00  0.00    -0.275 OA
ATOM     26  N   UNL     1      -3.380  -5.275   0.225  0.00  0.00    -0.313 N 
ATOM     27  H   UNL     1      -3.372  -5.783   1.051  0.00  0.00    +0.149 HD
BRANCH  26  28
ATOM     28  C   UNL     1      -4.653  -4.834  -0.351  0.00  0.00    +0.135 C 
BRANCH  28  29
ATOM     29  C   UNL     1      -5.806  -5.303   0.539  0.00  0.00    +0.135 C 
ATOM     30  C   UNL     1      -7.155  -4.949  -0.122  0.00  0.00    +0.035 C 
ATOM     31  C   UNL     1      -8.012  -4.508   1.096  0.00  0.00    +0.031 C 
ATOM     32  C   UNL     1      -6.936  -3.837   1.986  0.00  0.00    +0.160 C 
ATOM     33  O   UNL     1      -5.750  -4.629   1.802  0.00  0.00    -0.375 OA
ENDBRANCH  28  29
ENDBRANCH  26  28
ENDBRANCH   5  24
TORSDOF 5
