REMARK  Name = ZINC15771459
REMARK  10 active torsions:
REMARK  status: ('A' for Active; 'I' for Inactive)
REMARK    1  A    between atoms: C_1  and  C_2
REMARK    2  A    between atoms: C_2  and  C_4
REMARK    3  A    between atoms: C_2  and  C_10
REMARK    4  A    between atoms: C_10  and  N_32
REMARK    5  A    between atoms: C_10  and  N_65
REMARK    6  A    between atoms: C_12  and  C_14
REMARK    7  A    between atoms: C_12  and  N_23
REMARK    8  A    between atoms: C_12  and  N_65
REMARK    9  A    between atoms: C_14  and  C_16
REMARK   10  A    between atoms: C_14  and  C_17
REMARK                            x       y       z     vdW  Elec       q    Type
REMARK                         _______ _______ _______ _____ _____    ______ ____
ROOT
ATOM      1  N   UNL     1      -1.971  -1.339   1.144  0.00  0.00    +0.409 N 
ATOM      2  H   UNL     1      -1.558  -0.927   1.988  0.00  0.00    -0.079 HD
ATOM      3  H   UNL     1      -2.735  -0.740   0.809  0.00  0.00    -0.079 HD
ENDROOT
BRANCH   1   4
ATOM      4  C   UNL     1      -2.507  -2.675   1.467  0.00  0.00    +0.064 C 
BRANCH   4   5
ATOM      5  N   UNL     1      -3.555  -3.028   0.507  0.00  0.00    -0.257 N 
ATOM      6  C   UNL     1      -3.633  -4.178  -0.241  0.00  0.00    +0.087 A 
ATOM      7  C   UNL     1      -2.836  -5.312  -0.356  0.00  0.00    +0.029 A 
ATOM      8  C   UNL     1      -3.196  -6.312  -1.215  0.00  0.00    +0.002 A 
ATOM      9  C   UNL     1      -4.353  -6.206  -1.977  0.00  0.00    +0.002 A 
ATOM     10  C   UNL     1      -5.156  -5.109  -1.876  0.00  0.00    +0.032 A 
ATOM     11  C   UNL     1      -4.807  -4.067  -1.006  0.00  0.00    +0.113 A 
ATOM     12  N   UNL     1      -5.378  -2.882  -0.710  0.00  0.00    -0.130 NA
ATOM     13  N   UNL     1      -4.675  -2.255   0.166  0.00  0.00    -0.066 NA
ENDBRANCH   4   5
BRANCH   4  15
ATOM     14  C   UNL     1      -4.298  -1.707   2.916  0.00  0.00    +0.012 C 
ATOM     15  C   UNL     1      -3.095  -2.652   2.880  0.00  0.00    +0.023 C 
BRANCH  15  16
ATOM     16  C   UNL     1      -3.536  -4.041   3.263  0.00  0.00    -0.044 A 
ATOM     17  C   UNL     1      -4.500  -4.691   2.515  0.00  0.00    +0.004 A 
ATOM     18  C   UNL     1      -4.901  -5.967   2.864  0.00  0.00    +0.000 A 
ATOM     19  C   UNL     1      -4.345  -6.589   3.966  0.00  0.00    +0.000 A 
ATOM     20  C   UNL     1      -3.385  -5.937   4.717  0.00  0.00    +0.000 A 
ATOM     21  C   UNL     1      -2.980  -4.663   4.365  0.00  0.00    +0.004 A 
ENDBRANCH  15  16
ENDBRANCH   4  15
ENDBRANCH   1   4
BRANCH   1  22
ATOM     22  C   UNL     1      -0.938  -1.441   0.096  0.00  0.00    +0.064 C 
BRANCH  22  23
ATOM     23  N   UNL     1       0.307  -1.941   0.683  0.00  0.00    -0.257 N 
ATOM     24  C   UNL     1       1.131  -2.911   0.162  0.00  0.00    +0.087 A 
ATOM     25  C   UNL     1       1.096  -3.694  -0.987  0.00  0.00    +0.029 A 
ATOM     26  C   UNL     1       2.095  -4.596  -1.226  0.00  0.00    +0.002 A 
ATOM     27  C   UNL     1       3.147  -4.737  -0.330  0.00  0.00    +0.002 A 
ATOM     28  C   UNL     1       3.205  -3.981   0.804  0.00  0.00    +0.032 A 
ATOM     29  C   UNL     1       2.193  -3.050   1.072  0.00  0.00    +0.113 A 
ATOM     30  N   UNL     1       1.982  -2.184   2.083  0.00  0.00    -0.130 NA
ATOM     31  N   UNL     1       0.895  -1.525   1.887  0.00  0.00    -0.066 NA
ENDBRANCH  22  23
BRANCH  22  32
ATOM     32  C   UNL     1      -0.698  -0.057  -0.508  0.00  0.00    +0.023 C 
ATOM     33  C   UNL     1      -1.990   0.452  -1.149  0.00  0.00    +0.012 C 
BRANCH  32  34
ATOM     34  C   UNL     1      -0.266   0.897   0.577  0.00  0.00    -0.044 A 
ATOM     35  C   UNL     1      -1.164   1.283   1.554  0.00  0.00    +0.004 A 
ATOM     36  C   UNL     1      -0.767   2.154   2.552  0.00  0.00    +0.000 A 
ATOM     37  C   UNL     1       0.525   2.646   2.566  0.00  0.00    +0.000 A 
ATOM     38  C   UNL     1       1.421   2.263   1.586  0.00  0.00    +0.000 A 
ATOM     39  C   UNL     1       1.025   1.389   0.591  0.00  0.00    +0.004 A 
ENDBRANCH  32  34
ENDBRANCH  22  32
ENDBRANCH   1  22
TORSDOF 8
