REMARK  Name = ZINC09173102
REMARK  9 active torsions:
REMARK  status: ('A' for Active; 'I' for Inactive)
REMARK    1  A    between atoms: C_1  and  N_51
REMARK    2  A    between atoms: C_2  and  N_51
REMARK    3  A    between atoms: C_3  and  C_4
REMARK    4  A    between atoms: C_3  and  N_51
REMARK    5  A    between atoms: C_4  and  C_5
REMARK    6  A    between atoms: C_5  and  N_6
REMARK    7  A    between atoms: C_7  and  C_23
REMARK    8  A    between atoms: C_10  and  C_11
REMARK    9  A    between atoms: C_10  and  O_18
REMARK                            x       y       z     vdW  Elec       q    Type
REMARK                         _______ _______ _______ _____ _____    ______ ____
ROOT
ATOM      1  N   UNL     1      -1.068   2.019  -0.753  0.00  0.00    -0.284 N 
ATOM      2  C   UNL     1      -0.715   3.376  -0.328  0.00  0.00    +0.144 C 
ATOM      3  C   UNL     1       0.794   3.450  -0.322  0.00  0.00    +0.071 C 
ATOM      4  C   UNL     1       1.570   4.541   0.011  0.00  0.00    +0.133 C 
ATOM      5  C   UNL     1       1.248   2.182  -0.721  0.00  0.00    +0.249 C 
ATOM      6  O   UNL     1       2.412   1.845  -0.839  0.00  0.00    -0.282 OA
ATOM      7  C   UNL     1       0.060   1.323  -0.976  0.00  0.00    +0.288 C 
ATOM      8  O   UNL     1       0.103   0.166  -1.338  0.00  0.00    -0.266 OA
ENDROOT
BRANCH   4   9
ATOM      9  C   UNL     1       3.033   4.403   0.108  0.00  0.00    +0.017 A 
ATOM     10  C   UNL     1       3.593   3.387   0.889  0.00  0.00    +0.012 A 
ATOM     11  C   UNL     1       4.963   3.260   0.971  0.00  0.00    +0.016 A 
ATOM     12  C   UNL     1       5.785   4.143   0.290  0.00  0.00    +0.018 A 
ATOM     13  C   UNL     1       5.238   5.156  -0.481  0.00  0.00    +0.016 A 
ATOM     14  C   UNL     1       3.870   5.291  -0.577  0.00  0.00    +0.012 A 
ATOM     15 BR   UNL     1       7.664   3.966   0.415  0.00  0.00    -0.050 Br
ENDBRANCH   4   9
BRANCH   2  16
ATOM     16  C   UNL     1      -1.276   4.380  -1.302  0.00  0.00    -0.022 A 
ATOM     17  C   UNL     1      -1.265   4.109  -2.658  0.00  0.00    +0.007 A 
ATOM     18  C   UNL     1      -1.784   5.026  -3.551  0.00  0.00    +0.020 A 
ATOM     19  C   UNL     1      -2.305   6.222  -3.090  0.00  0.00    +0.041 A 
ATOM     20  C   UNL     1      -2.311   6.496  -1.734  0.00  0.00    +0.020 A 
ATOM     21  C   UNL     1      -1.797   5.575  -0.841  0.00  0.00    +0.007 A 
ATOM     22 CL   UNL     1      -2.952   7.378  -4.212  0.00  0.00    -0.084 Cl
ENDBRANCH   2  16
BRANCH   4  23
ATOM     23  O   UNL     1       0.988   5.736   0.247  0.00  0.00    -0.506 OA
ATOM     24  H   UNL     1       1.691   6.411   0.472  0.00  0.00    +0.292 HD
ENDBRANCH   4  23
BRANCH   1  25
ATOM     25  C   UNL     1      -2.430   1.502  -0.906  0.00  0.00    +0.107 C 
BRANCH  25  26
ATOM     26  C   UNL     1      -2.897   0.893   0.418  0.00  0.00    +0.000 C 
BRANCH  26  27
ATOM     27  C   UNL     1      -4.319   0.353   0.258  0.00  0.00    -0.078 C 
BRANCH  27  30
ATOM     28  C   UNL     1      -4.899   0.802   2.566  0.00  0.00    -0.097 C 
ATOM     29  C   UNL     1      -6.026  -0.967   1.355  0.00  0.00    -0.097 C 
ATOM     30  N   UNL     1      -4.747  -0.250   1.538  0.00  0.00    +0.376 N 
ATOM     31  H   UNL     1      -4.031  -0.917   1.847  0.00  0.00    -0.083 HD
ENDBRANCH  27  30
ENDBRANCH  26  27
ENDBRANCH  25  26
ENDBRANCH   1  25
TORSDOF 7
