REMARK  Name = ZINC64870826
REMARK  8 active torsions:
REMARK  status: ('A' for Active; 'I' for Inactive)
REMARK    1  A    between atoms: C_1  and  S_2
REMARK    2  A    between atoms: S_2  and  C_3
REMARK    3  A    between atoms: C_6  and  C_9
REMARK    4  A    between atoms: C_12  and  C_16
REMARK    5  A    between atoms: N_26  and  C_29
REMARK    6  A    between atoms: C_29  and  C_30
REMARK    7  A    between atoms: C_30  and  C_31
REMARK    8  A    between atoms: C_31  and  C_32
REMARK                            x       y       z     vdW  Elec       q    Type
REMARK                         _______ _______ _______ _____ _____    ______ ____
ROOT
ATOM      1  C   UNL     1       3.215  -3.508  -7.807  0.00  0.00    -0.000 A 
ATOM      2  C   UNL     1       4.327  -4.003  -7.142  0.00  0.00    +0.008 A 
ATOM      3  C   UNL     1       5.136  -4.946  -7.741  0.00  0.00    +0.016 A 
ATOM      4  C   UNL     1       4.829  -5.399  -9.022  0.00  0.00    +0.063 A 
ATOM      5  C   UNL     1       3.702  -4.896  -9.695  0.00  0.00    +0.056 A 
ATOM      6  C   UNL     1       2.897  -3.953  -9.075  0.00  0.00    +0.034 A 
ATOM      7  N   UNL     1       3.420  -5.367 -10.970  0.00  0.00    -0.307 N 
ATOM      8  H   UNL     1       2.646  -5.028 -11.446  0.00  0.00    +0.170 HD
ATOM      9  C   UNL     1       4.210  -6.286 -11.550  0.00  0.00    +0.330 A 
ATOM     10  O   UNL     1       3.929  -6.671 -12.669  0.00  0.00    -0.246 OA
ATOM     11  N   UNL     1       5.296  -6.796 -10.949  0.00  0.00    -0.261 N 
ATOM     12  C   UNL     1       5.659  -6.406  -9.708  0.00  0.00    +0.264 A 
ATOM     13  O   UNL     1       6.644  -6.873  -9.170  0.00  0.00    -0.267 OA
ENDROOT
BRANCH   1  16
ATOM     14  C   UNL     1       2.901  -1.397  -5.106  0.00  0.00    +0.180 C 
ATOM     15  N   UNL     1       2.381  -2.664  -5.672  0.00  0.00    -0.265 NA
ATOM     16  C   UNL     1       2.342  -2.478  -7.137  0.00  0.00    +0.242 C 
ATOM     17  O   UNL     1       2.841  -1.156  -7.412  0.00  0.00    -0.274 OA
ATOM     18  N   UNL     1       2.611  -0.392  -6.163  0.00  0.00    -0.177 NA
ATOM     19  H   UNL     1       2.972  -3.442  -5.421  0.00  0.00    +0.127 HD
ATOM     20  H   UNL     1       3.240   0.394  -6.097  0.00  0.00    +0.156 HD
BRANCH  14  24
ATOM     21  C   UNL     1       0.848  -0.411  -1.489  0.00  0.00    +0.008 A 
ATOM     22  C   UNL     1       1.315   0.599  -2.322  0.00  0.00    +0.015 A 
ATOM     23  C   UNL     1       1.978   0.276  -3.490  0.00  0.00    +0.007 A 
ATOM     24  C   UNL     1       2.178  -1.049  -3.830  0.00  0.00    -0.014 A 
ATOM     25  C   UNL     1       1.714  -2.056  -3.004  0.00  0.00    +0.007 A 
ATOM     26  C   UNL     1       1.056  -1.742  -1.831  0.00  0.00    +0.015 A 
BRANCH  21  28
ATOM     27  C   UNL     1      -0.022   1.810   0.012  0.00  0.00    +0.090 C 
ATOM     28  S   UNL     1       0.002  -0.004   0.002  0.00  0.00    -0.129 S 
ENDBRANCH  21  28
ENDBRANCH  14  24
ENDBRANCH   1  16
BRANCH  11  29
ATOM     29  C   UNL     1       6.105  -7.795 -11.653  0.00  0.00    +0.130 C 
BRANCH  29  30
ATOM     30  C   UNL     1       7.194  -7.090 -12.464  0.00  0.00    +0.026 C 
BRANCH  30  31
ATOM     31  C   UNL     1       8.038  -8.134 -13.199  0.00  0.00    +0.037 C 
BRANCH  31  32
ATOM     32  C   UNL     1       9.111  -7.440 -13.998  0.00  0.00    -0.047 A 
ATOM     33  C   UNL     1       8.861  -7.054 -15.302  0.00  0.00    +0.003 A 
ATOM     34  C   UNL     1       9.845  -6.417 -16.035  0.00  0.00    +0.000 A 
ATOM     35  C   UNL     1      11.079  -6.166 -15.464  0.00  0.00    +0.000 A 
ATOM     36  C   UNL     1      11.328  -6.551 -14.160  0.00  0.00    +0.000 A 
ATOM     37  C   UNL     1      10.343  -7.184 -13.426  0.00  0.00    +0.003 A 
ENDBRANCH  31  32
ENDBRANCH  30  31
ENDBRANCH  29  30
ENDBRANCH  11  29
TORSDOF 7
