REMARK  Name = ZINC45334073
REMARK  8 active torsions:
REMARK  status: ('A' for Active; 'I' for Inactive)
REMARK    1  A    between atoms: C_1  and  C_2
REMARK    2  A    between atoms: C_3  and  C_27
REMARK    3  A    between atoms: C_11  and  C_13
REMARK    4  A    between atoms: C_13  and  C_14
REMARK    5  A    between atoms: N_16  and  N_17
REMARK    6  A    between atoms: C_18  and  C_19
REMARK    7  A    between atoms: C_22  and  O_26
REMARK    8  A    between atoms: C_24  and  O_25
REMARK                            x       y       z     vdW  Elec       q    Type
REMARK                         _______ _______ _______ _____ _____    ______ ____
ROOT
ATOM      1  C   UNL     1       0.105  -4.851   4.038  0.00  0.00    +0.239 C 
ATOM      2  O   UNL     1       0.097  -5.067   2.845  0.00  0.00    -0.274 OA
ATOM      3  N   UNL     1       0.126  -5.879   4.909  0.00  0.00    -0.207 N 
ATOM      4  H   UNL     1       0.132  -5.706   5.864  0.00  0.00    +0.177 HD
ENDROOT
BRANCH   3   5
ATOM      5  N   UNL     1       0.140  -7.197   4.436  0.00  0.00    -0.188 NA
ATOM      6  C   UNL     1       0.161  -8.188   5.275  0.00  0.00    +0.142 C 
BRANCH   6   7
ATOM      7  C   UNL     1       0.175  -9.574   4.778  0.00  0.00    +0.036 A 
ATOM      8  C   UNL     1       0.192 -10.643   5.678  0.00  0.00    +0.016 A 
ATOM      9  C   UNL     1       0.205 -11.938   5.209  0.00  0.00    +0.046 A 
ATOM     10  C   UNL     1       0.202 -12.186   3.842  0.00  0.00    +0.120 A 
ATOM     11  C   UNL     1       0.186 -11.133   2.939  0.00  0.00    +0.091 A 
ATOM     12  C   UNL     1       0.167  -9.828   3.399  0.00  0.00    +0.129 A 
BRANCH  12  13
ATOM     13  O   UNL     1       0.145  -8.795   2.517  0.00  0.00    -0.506 OA
ATOM     14  H   UNL     1       1.022  -8.485   2.253  0.00  0.00    +0.292 HD
ENDBRANCH  12  13
BRANCH  10  15
ATOM     15  O   UNL     1       0.215 -13.466   3.387  0.00  0.00    -0.507 OA
ATOM     16  H   UNL     1      -0.664 -13.848   3.259  0.00  0.00    +0.292 HD
ENDBRANCH  10  15
ENDBRANCH   6   7
ENDBRANCH   3   5
BRANCH   1  17
ATOM     17  C   UNL     1       0.090  -3.432   4.547  0.00  0.00    +0.171 C 
BRANCH  17  28
ATOM     18  C   UNL     1      -0.018   1.503   0.010  0.00  0.00    +0.045 C 
ATOM     19  C   UNL     1       0.002  -0.004   0.002  0.00  0.00    -0.026 A 
ATOM     20  C   UNL     1       0.006  -0.677  -1.160  0.00  0.00    -0.008 A 
ATOM     21  S   UNL     1       0.032  -2.385  -0.648  0.00  0.00    -0.073 S 
ATOM     22  C   UNL     1       0.037  -2.144   1.110  0.00  0.00    +0.116 A 
ATOM     23  C   UNL     1       0.024  -0.745   1.250  0.00  0.00    +0.075 A 
ATOM     24  C   UNL     1       0.029  -0.257   2.597  0.00  0.00    +0.260 A 
ATOM     25  O   UNL     1       0.014   0.942   2.821  0.00  0.00    -0.267 OA
ATOM     26  N   UNL     1       0.051  -1.142   3.611  0.00  0.00    -0.310 N 
ATOM     27  H   UNL     1       0.054  -0.817   4.525  0.00  0.00    +0.170 HD
ATOM     28  C   UNL     1       0.067  -2.480   3.380  0.00  0.00    +0.120 A 
ATOM     29  N   UNL     1       0.053  -2.956   2.163  0.00  0.00    -0.226 NA
ATOM     30  C   UNL     1      -0.009  -0.122  -2.561  0.00  0.00    +0.052 C 
ENDBRANCH  17  28
ENDBRANCH   1  17
TORSDOF 6
