REMARK  Name = ZINC12741251
REMARK  8 active torsions:
REMARK  status: ('A' for Active; 'I' for Inactive)
REMARK    1  A    between atoms: C_1  and  C_2
REMARK    2  A    between atoms: C_2  and  N_3
REMARK    3  A    between atoms: N_3  and  C_4
REMARK    4  A    between atoms: N_3  and  C_8
REMARK    5  A    between atoms: C_4  and  C_5
REMARK    6  A    between atoms: C_5  and  C_6
REMARK    7  A    between atoms: C_11  and  C_15
REMARK    8  A    between atoms: C_12  and  C_14
REMARK                            x       y       z     vdW  Elec       q    Type
REMARK                         _______ _______ _______ _____ _____    ______ ____
ROOT
ATOM      1  C   UNL     1      -1.861  -1.592  -6.124  0.00  0.00    +0.209 C 
ATOM      2  N   UNL     1      -0.983  -2.549  -6.822  0.00  0.00    -0.294 N 
ATOM      3  C   UNL     1       0.119  -2.097  -7.497  0.00  0.00    +0.160 C 
ATOM      4  N   UNL     1       0.147  -0.895  -8.045  0.00  0.00    -0.302 N 
ATOM      5  C   UNL     1      -0.924  -0.083  -7.871  0.00  0.00    +0.213 A 
ATOM      6  N   UNL     1      -1.919  -0.387  -6.959  0.00  0.00    -0.286 N 
ATOM      7  C   UNL     1      -2.866   0.608  -7.019  0.00  0.00    +0.076 A 
ATOM      8  C   UNL     1      -4.071   0.841  -6.370  0.00  0.00    +0.077 A 
ATOM      9  C   UNL     1      -4.806   1.974  -6.667  0.00  0.00    +0.164 A 
ATOM     10  C   UNL     1      -4.346   2.884  -7.614  0.00  0.00    +0.164 A 
ATOM     11  C   UNL     1      -3.152   2.668  -8.269  0.00  0.00    +0.079 A 
ATOM     12  C   UNL     1      -2.398   1.527  -7.978  0.00  0.00    +0.095 A 
ATOM     13  N   UNL     1      -1.206   1.053  -8.452  0.00  0.00    -0.212 NA
ATOM     14  O   UNL     1      -5.087   3.998  -7.892  0.00  0.00    -0.488 OA
ATOM     15  C   UNL     1      -6.331   3.772  -8.557  0.00  0.00    +0.232 C 
ATOM     16  C   UNL     1      -7.425   3.434  -7.557  0.00  0.00    +0.082 C 
ATOM     17  C   UNL     1      -7.165   2.119  -6.838  0.00  0.00    +0.232 C 
ATOM     18  O   UNL     1      -5.991   2.207  -6.028  0.00  0.00    -0.488 OA
ATOM     19  N   UNL     1       1.216  -2.908  -7.607  0.00  0.00    -0.332 N 
ATOM     20  H   UNL     1       1.208  -3.792  -7.208  0.00  0.00    +0.145 HD
ATOM     21  H   UNL     1       2.003  -2.598  -8.083  0.00  0.00    +0.145 HD
ATOM     22  H   UNL     1      -1.187  -3.498  -6.803  0.00  0.00    +0.151 HD
ATOM     23  H   UNL     1       0.915  -0.600  -8.559  0.00  0.00    +0.171 HD
ENDROOT
BRANCH   1  27
ATOM     24  C   UNL     1      -0.230  -0.638  -2.290  0.00  0.00    +0.030 A 
ATOM     25  C   UNL     1      -0.089   0.252  -3.348  0.00  0.00    +0.023 A 
ATOM     26  C   UNL     1      -0.617  -0.060  -4.585  0.00  0.00    +0.009 A 
ATOM     27  C   UNL     1      -1.286  -1.256  -4.772  0.00  0.00    -0.004 A 
ATOM     28  C   UNL     1      -1.428  -2.144  -3.722  0.00  0.00    -0.042 A 
ATOM     29  C   UNL     1      -0.897  -1.841  -2.483  0.00  0.00    +0.027 A 
ATOM     30  C   UNL     1      -2.159  -3.445  -3.930  0.00  0.00    +0.044 C 
BRANCH  24  31
ATOM     31  N   UNL     1       0.303  -0.327  -1.037  0.00  0.00    -0.329 N 
BRANCH  31  33
ATOM     32  C   UNL     1      -1.135  -0.967   0.835  0.00  0.00    +0.024 C 
ATOM     33  C   UNL     1       0.159  -1.269   0.075  0.00  0.00    +0.102 C 
ENDBRANCH  31  33
BRANCH  31  34
ATOM     34  C   UNL     1       1.006   0.943  -0.836  0.00  0.00    +0.120 C 
BRANCH  34  35
ATOM     35  C   UNL     1       2.494   0.755  -1.138  0.00  0.00    +0.137 C 
BRANCH  35  36
ATOM     36  C   UNL     1       3.201   2.030  -0.935  0.00  0.00    +0.064 C 
ATOM     37  N   UNL     1       3.746   3.014  -0.779  0.00  0.00    -0.197 NA
ENDBRANCH  35  36
ENDBRANCH  34  35
ENDBRANCH  31  34
ENDBRANCH  24  31
ENDBRANCH   1  27
TORSDOF 6
