REMARK  Name = ZINC36637489
REMARK  9 active torsions:
REMARK  status: ('A' for Active; 'I' for Inactive)
REMARK    1  A    between atoms: C_1  and  C_2
REMARK    2  A    between atoms: N_8  and  S_9
REMARK    3  A    between atoms: S_9  and  C_12
REMARK    4  A    between atoms: C_15  and  C_18
REMARK    5  A    between atoms: N_20  and  C_21
REMARK    6  A    between atoms: C_21  and  C_22
REMARK    7  A    between atoms: C_22  and  N_23
REMARK    8  A    between atoms: N_23  and  C_24
REMARK    9  A    between atoms: N_23  and  C_25
REMARK                            x       y       z     vdW  Elec       q    Type
REMARK                         _______ _______ _______ _____ _____    ______ ____
ROOT
ATOM      1  C   UNL     1      -3.845   0.659   5.399  0.00  0.00    +0.252 C 
ATOM      2  O   UNL     1      -4.750   1.419   5.114  0.00  0.00    -0.270 OA
ATOM      3  N   UNL     1      -3.829   0.053   6.603  0.00  0.00    -0.248 N 
ATOM      4  C   UNL     1      -4.813   0.338   7.535  0.00  0.00    +0.168 A 
ATOM      5  N   UNL     1      -4.961  -0.141   8.748  0.00  0.00    -0.223 NA
ATOM      6  C   UNL     1      -5.979   0.229   9.555  0.00  0.00    +0.099 A 
ATOM      7  C   UNL     1      -6.882   1.169   9.009  0.00  0.00    +0.042 A 
ATOM      8  S   UNL     1      -6.201   1.455   7.394  0.00  0.00    -0.052 S 
ATOM      9  C   UNL     1      -7.967   1.644   9.704  0.00  0.00    +0.017 A 
ATOM     10  C   UNL     1      -8.204   1.196  10.991  0.00  0.00    +0.003 A 
ATOM     11  C   UNL     1      -7.338   0.273  11.559  0.00  0.00    +0.022 A 
ATOM     12  C   UNL     1      -6.251  -0.207  10.873  0.00  0.00    +0.067 A 
ATOM     13 CL   UNL     1      -5.200  -1.362  11.631  0.00  0.00    -0.081 Cl
ENDROOT
BRANCH   1  17
ATOM     14  C   UNL     1      -0.738  -0.090   2.603  0.00  0.00    +0.106 A 
ATOM     15  C   UNL     1      -0.433   0.081   3.942  0.00  0.00    +0.029 A 
ATOM     16  C   UNL     1      -1.438   0.324   4.855  0.00  0.00    +0.015 A 
ATOM     17  C   UNL     1      -2.764   0.399   4.426  0.00  0.00    +0.037 A 
ATOM     18  C   UNL     1      -3.064   0.226   3.074  0.00  0.00    +0.015 A 
ATOM     19  C   UNL     1      -2.050  -0.013   2.170  0.00  0.00    +0.029 A 
BRANCH  14  20
ATOM     20  S   UNL     1       0.552  -0.401   1.443  0.00  0.00    +0.061 S 
ATOM     21  O   UNL     1      -0.048  -1.060   0.336  0.00  0.00    -0.153 OA
ATOM     22  O   UNL     1       1.629  -0.969   2.176  0.00  0.00    -0.153 OA
BRANCH  20  29
ATOM     23  C   UNL     1       2.579   1.008   2.827  0.00  0.00    +0.026 C 
ATOM     24  C   UNL     1       2.069   1.843   1.650  0.00  0.00    +0.077 C 
ATOM     25  C   UNL     1       3.237   2.196   0.726  0.00  0.00    +0.020 C 
ATOM     26  C   UNL     1       2.701   2.910  -0.518  0.00  0.00    +0.003 C 
ATOM     27  C   UNL     1       1.752   1.977  -1.274  0.00  0.00    +0.017 C 
ATOM     28  C   UNL     1       0.566   1.621  -0.371  0.00  0.00    +0.110 C 
ATOM     29  N   UNL     1       1.078   1.068   0.890  0.00  0.00    -0.174 NA
ENDBRANCH  20  29
ENDBRANCH  14  20
ENDBRANCH   1  17
BRANCH   3  30
ATOM     30  C   UNL     1      -2.769  -0.905   6.926  0.00  0.00    +0.097 C 
BRANCH  30  31
ATOM     31  C   UNL     1      -1.788  -0.268   7.912  0.00  0.00    -0.060 C 
BRANCH  31  32
ATOM     32  N   UNL     1      -0.683  -1.200   8.174  0.00  0.00    +0.377 N 
ATOM     33  C   UNL     1       0.320  -0.544   9.024  0.00  0.00    -0.097 C 
ATOM     34  C   UNL     1      -1.200  -2.393   8.857  0.00  0.00    -0.097 C 
ATOM     35  H   UNL     1      -0.257  -1.470   7.300  0.00  0.00    -0.083 HD
ENDBRANCH  31  32
ENDBRANCH  30  31
ENDBRANCH   3  30
TORSDOF 6
