REMARK  Name = ZINC18102542
REMARK  11 active torsions:
REMARK  status: ('A' for Active; 'I' for Inactive)
REMARK    1  A    between atoms: C_1  and  C_2
REMARK    2  A    between atoms: C_6  and  O_9
REMARK    3  A    between atoms: C_7  and  C_8
REMARK    4  A    between atoms: O_9  and  C_10
REMARK    5  A    between atoms: C_10  and  C_12
REMARK    6  A    between atoms: C_10  and  C_13
REMARK    7  A    between atoms: N_15  and  N_16
REMARK    8  A    between atoms: C_17  and  C_19
REMARK    9  A    between atoms: C_19  and  S_20
REMARK   10  A    between atoms: S_20  and  C_21
REMARK   11  A    between atoms: C_21  and  C_22
REMARK                            x       y       z     vdW  Elec       q    Type
REMARK                         _______ _______ _______ _____ _____    ______ ____
ROOT
ATOM      1  N   UNL     1      -2.224   4.457 -11.327  0.00  0.00    -0.234 N 
ATOM      2  C   UNL     1      -2.067   4.325  -9.995  0.00  0.00    +0.239 C 
ATOM      3  O   UNL     1      -2.939   4.702  -9.241  0.00  0.00    -0.273 OA
ATOM      4  H   UNL     1      -1.526   4.155 -11.930  0.00  0.00    +0.173 HD
ENDROOT
BRANCH   1   7
ATOM      5  C   UNL     1      -3.552   5.161 -13.173  0.00  0.00    +0.270 C 
ATOM      6  O   UNL     1      -2.679   4.784 -13.927  0.00  0.00    -0.270 OA
ATOM      7  N   UNL     1      -3.395   5.029 -11.841  0.00  0.00    -0.231 N 
ATOM      8  H   UNL     1      -4.092   5.331 -11.239  0.00  0.00    +0.173 HD
BRANCH   5   9
ATOM      9  C   UNL     1      -4.811   5.777 -13.726  0.00  0.00    +0.257 C 
ATOM     10  C   UNL     1      -6.005   4.878 -13.399  0.00  0.00    +0.062 C 
BRANCH   9  11
ATOM     11  O   UNL     1      -4.692   5.913 -15.144  0.00  0.00    -0.480 OA
BRANCH  11  17
ATOM     12  C   UNL     1      -5.908   8.399 -19.164  0.00  0.00    +0.044 C 
ATOM     13  C   UNL     1      -6.065   8.117 -17.692  0.00  0.00    -0.044 A 
ATOM     14  C   UNL     1      -6.976   8.839 -16.944  0.00  0.00    +0.004 A 
ATOM     15  C   UNL     1      -7.123   8.582 -15.593  0.00  0.00    +0.004 A 
ATOM     16  C   UNL     1      -6.364   7.598 -14.989  0.00  0.00    +0.046 A 
ATOM     17  C   UNL     1      -5.445   6.877 -15.737  0.00  0.00    +0.125 A 
ATOM     18  C   UNL     1      -5.299   7.136 -17.092  0.00  0.00    -0.006 A 
ATOM     19  C   UNL     1      -4.306   6.350 -17.909  0.00  0.00    +0.048 C 
ENDBRANCH  11  17
ENDBRANCH   9  11
ENDBRANCH   5   9
ENDBRANCH   1   7
BRANCH   2  20
ATOM     20  C   UNL     1      -0.808   3.709  -9.442  0.00  0.00    +0.166 C 
BRANCH  20  21
ATOM     21  S   UNL     1      -0.898   3.673  -7.630  0.00  0.00    -0.144 S 
BRANCH  21  22
ATOM     22  C   UNL     1       0.671   2.914  -7.128  0.00  0.00    +0.143 C 
BRANCH  22  23
ATOM     23  C   UNL     1       0.727   2.822  -5.625  0.00  0.00    +0.121 A 
ATOM     24  N   UNL     1       1.821   2.281  -5.031  0.00  0.00    -0.310 N 
ATOM     25  H   UNL     1       2.553   1.962  -5.582  0.00  0.00    +0.170 HD
ATOM     26  C   UNL     1       1.912   2.180  -3.691  0.00  0.00    +0.260 A 
ATOM     27  O   UNL     1       2.901   1.692  -3.171  0.00  0.00    -0.267 OA
ATOM     28  C   UNL     1       0.825   2.655  -2.888  0.00  0.00    +0.075 A 
ATOM     29  C   UNL     1       0.707   2.645  -1.422  0.00  0.00    -0.023 A 
ATOM     30  C   UNL     1      -0.422   3.154  -0.900  0.00  0.00    -0.004 A 
ATOM     31  S   UNL     1      -1.386   3.668  -2.303  0.00  0.00    -0.073 S 
ATOM     32  C   UNL     1      -0.261   3.197  -3.590  0.00  0.00    +0.116 A 
ATOM     33  N   UNL     1      -0.279   3.264  -4.919  0.00  0.00    -0.226 NA
ATOM     34  C   UNL     1      -0.430   3.094   0.604  0.00  0.00    +0.043 C 
ATOM     35  C   UNL     1       1.050   2.868   0.991  0.00  0.00    +0.010 C 
ATOM     36  C   UNL     1       1.599   2.172  -0.271  0.00  0.00    +0.037 C 
ENDBRANCH  22  23
ENDBRANCH  21  22
ENDBRANCH  20  21
ENDBRANCH   2  20
TORSDOF 8
