REMARK  Name = ZINC13636969
REMARK  3 active torsions:
REMARK  status: ('A' for Active; 'I' for Inactive)
REMARK    1  A    between atoms: C_1  and  C_2
REMARK    2  A    between atoms: C_15  and  C_18
REMARK    3  A    between atoms: C_21  and  O_24
REMARK                            x       y       z     vdW  Elec       q    Type
REMARK                         _______ _______ _______ _____ _____    ______ ____
ROOT
ATOM      1  C   UNL     1       4.470   4.329   6.363  0.00  0.00    +0.044 C 
ATOM      2  C   UNL     1       4.849   3.925   4.961  0.00  0.00    -0.050 A 
ATOM      3  C   UNL     1       5.621   2.796   4.755  0.00  0.00    +0.005 A 
ATOM      4  C   UNL     1       5.965   2.428   3.469  0.00  0.00    +0.023 A 
ATOM      5  C   UNL     1       5.537   3.191   2.390  0.00  0.00    +0.031 A 
ATOM      6  C   UNL     1       4.765   4.324   2.592  0.00  0.00    -0.019 A 
ATOM      7  C   UNL     1       4.424   4.683   3.889  0.00  0.00    +0.009 A 
ATOM      8  C   UNL     1       4.285   5.178   1.461  0.00  0.00    +0.049 C 
ATOM      9  C   UNL     1       2.814   4.963   1.193  0.00  0.00    -0.023 C 
ATOM     10  C   UNL     1       2.573   5.032  -0.093  0.00  0.00    -0.030 C 
ATOM     11  C   UNL     1       3.852   5.307  -0.860  0.00  0.00    +0.033 C 
ATOM     12  C   UNL     1       4.968   4.841   0.121  0.00  0.00    +0.029 C 
ATOM     13  C   UNL     1       5.103   3.323  -0.029  0.00  0.00    +0.105 C 
ATOM     14  N   UNL     1       5.892   2.804   1.093  0.00  0.00    -0.336 N 
ATOM     15  H   UNL     1       6.640   2.206   0.940  0.00  0.00    +0.147 HD
ENDROOT
BRANCH  13  16
ATOM     16  C   UNL     1       3.735   2.692  -0.019  0.00  0.00    -0.027 A 
ATOM     17  C   UNL     1       3.163   2.300   1.178  0.00  0.00    +0.009 A 
ATOM     18  C   UNL     1       1.909   1.721   1.189  0.00  0.00    +0.046 A 
ATOM     19  C   UNL     1       1.223   1.532  -0.001  0.00  0.00    +0.117 A 
ATOM     20  C   UNL     1       1.800   1.921  -1.202  0.00  0.00    +0.046 A 
ATOM     21  C   UNL     1       3.052   2.505  -1.207  0.00  0.00    +0.009 A 
BRANCH  19  22
ATOM     22  O   UNL     1      -0.011   0.963   0.007  0.00  0.00    -0.507 OA
ATOM     23  H   UNL     1      -0.736   1.597   0.095  0.00  0.00    +0.292 HD
ENDBRANCH  19  22
ENDBRANCH  13  16
TORSDOF 2
