REMARK  Name = ZINC46842975
REMARK  10 active torsions:
REMARK  status: ('A' for Active; 'I' for Inactive)
REMARK    1  A    between atoms: C_1  and  C_2
REMARK    2  A    between atoms: C_2  and  C_3
REMARK    3  A    between atoms: C_2  and  C_4
REMARK    4  A    between atoms: C_2  and  C_5
REMARK    5  A    between atoms: C_10  and  N_13
REMARK    6  A    between atoms: C_14  and  C_16
REMARK    7  A    between atoms: C_16  and  C_18
REMARK    8  A    between atoms: C_16  and  N_29
REMARK    9  A    between atoms: C_18  and  C_19
REMARK   10  A    between atoms: C_30  and  C_32
REMARK                            x       y       z     vdW  Elec       q    Type
REMARK                         _______ _______ _______ _____ _____    ______ ____
ROOT
ATOM      1  C   UNL     1       2.078  -8.300  -1.543  0.00  0.00    +0.163 C 
ENDROOT
BRANCH   1   3
ATOM      2  N   UNL     1       1.373  -5.987  -1.021  0.00  0.00    -0.311 N 
ATOM      3  C   UNL     1       1.237  -7.076  -1.803  0.00  0.00    +0.234 C 
ATOM      4  O   UNL     1       0.439  -7.072  -2.716  0.00  0.00    -0.274 OA
ATOM      5  H   UNL     1       2.011  -5.991  -0.290  0.00  0.00    +0.149 HD
BRANCH   2  11
ATOM      6  C   UNL     1       0.363  -0.695  -1.238  0.00  0.00    +0.221 C 
ATOM      7  O   UNL     1       0.920  -0.101  -2.138  0.00  0.00    -0.275 OA
ATOM      8  N   UNL     1       0.093  -2.009  -1.364  0.00  0.00    -0.301 N 
ATOM      9  C   UNL     1      -0.470  -2.768  -0.239  0.00  0.00    +0.109 C 
ATOM     10  C   UNL     1       0.414  -3.992   0.021  0.00  0.00    +0.041 C 
ATOM     11  C   UNL     1       0.555  -4.798  -1.273  0.00  0.00    +0.076 C 
ATOM     12  C   UNL     1       1.228  -3.934  -2.343  0.00  0.00    +0.041 C 
ATOM     13  C   UNL     1       0.348  -2.708  -2.631  0.00  0.00    +0.109 C 
BRANCH   6  15
ATOM     14  C   UNL     1       0.221   1.537  -0.166  0.00  0.00    +0.020 C 
ATOM     15  C   UNL     1      -0.025   0.038   0.020  0.00  0.00    +0.039 C 
ATOM     16  C   UNL     1       0.816  -0.476   1.190  0.00  0.00    +0.020 C 
ATOM     17  C   UNL     1      -1.507  -0.203   0.313  0.00  0.00    +0.020 C 
ENDBRANCH   6  15
ENDBRANCH   2  11
ENDBRANCH   1   3
BRANCH   1  18
ATOM     18  N   UNL     1       2.115  -9.132  -2.748  0.00  0.00    -0.299 N 
ATOM     19  C   UNL     1       0.971  -9.626  -3.261  0.00  0.00    +0.251 C 
ATOM     20  O   UNL     1      -0.093  -9.381  -2.723  0.00  0.00    -0.270 OA
ATOM     21  H   UNL     1       2.963  -9.327  -3.177  0.00  0.00    +0.150 HD
BRANCH  19  22
ATOM     22  C   UNL     1       1.008 -10.458  -4.467  0.00  0.00    +0.074 A 
ATOM     23  C   UNL     1      -0.042 -11.053  -5.151  0.00  0.00    +0.021 A 
ATOM     24  C   UNL     1       0.307 -11.783  -6.262  0.00  0.00    +0.008 A 
ATOM     25  C   UNL     1       1.615 -11.873  -6.607  0.00  0.00    +0.046 A 
ATOM     26  S   UNL     1       2.413 -10.964  -5.441  0.00  0.00    -0.092 S 
ENDBRANCH  19  22
ENDBRANCH   1  18
BRANCH   1  27
ATOM     27  C   UNL     1       1.471  -9.100  -0.389  0.00  0.00    +0.069 C 
BRANCH  27  28
ATOM     28  C   UNL     1       2.376 -10.256  -0.048  0.00  0.00    -0.020 A 
ATOM     29  C   UNL     1       2.275 -11.512  -0.510  0.00  0.00    +0.087 A 
ATOM     30  N   UNL     1       3.273 -12.285   0.019  0.00  0.00    -0.360 N 
ATOM     31  H   UNL     1       3.406 -13.228  -0.168  0.00  0.00    +0.165 HD
ATOM     32  C   UNL     1       4.060 -11.525   0.855  0.00  0.00    +0.047 A 
ATOM     33  C   UNL     1       3.537 -10.219   0.844  0.00  0.00    +0.003 A 
ATOM     34  C   UNL     1       4.144  -9.220   1.606  0.00  0.00    +0.010 A 
ATOM     35  C   UNL     1       5.248  -9.514   2.357  0.00  0.00    +0.001 A 
ATOM     36  C   UNL     1       5.770 -10.800   2.367  0.00  0.00    +0.002 A 
ATOM     37  C   UNL     1       5.181 -11.804   1.630  0.00  0.00    +0.026 A 
ENDBRANCH  27  28
ENDBRANCH   1  27
TORSDOF 7
