REMARK  Name = ZINC09292711
REMARK  11 active torsions:
REMARK  status: ('A' for Active; 'I' for Inactive)
REMARK    1  A    between atoms: C_1  and  C_2
REMARK    2  A    between atoms: C_2  and  C_3
REMARK    3  A    between atoms: C_2  and  O_4
REMARK    4  A    between atoms: O_4  and  C_5
REMARK    5  A    between atoms: C_8  and  C_11
REMARK    6  A    between atoms: C_14  and  C_25
REMARK    7  A    between atoms: C_20  and  N_24
REMARK    8  A    between atoms: C_21  and  C_22
REMARK    9  A    between atoms: C_28  and  O_31
REMARK   10  A    between atoms: O_31  and  C_32
REMARK   11  A    between atoms: C_32  and  C_33
REMARK                            x       y       z     vdW  Elec       q    Type
REMARK                         _______ _______ _______ _____ _____    ______ ____
ROOT
ATOM      1  C   UNL     1      -2.167  -5.641  -2.132  0.00  0.00    +0.102 C 
ATOM      2  C   UNL     1      -2.775  -6.537  -1.084  0.00  0.00    +0.054 A 
ATOM      3  C   UNL     1      -2.184  -7.095   0.053  0.00  0.00    +0.100 A 
ATOM      4  N   UNL     1      -3.101  -7.810   0.677  0.00  0.00    -0.171 NA
ATOM      5  N   UNL     1      -4.299  -7.724  -0.049  0.00  0.00    -0.246 N 
ATOM      6  H   UNL     1      -5.138  -8.152   0.182  0.00  0.00    +0.192 HD
ATOM      7  C   UNL     1      -4.078  -6.940  -1.125  0.00  0.00    +0.223 A 
ATOM      8  O   UNL     1      -4.929  -6.569  -2.114  0.00  0.00    -0.423 OA
ATOM      9  C   UNL     1      -4.396  -6.008  -3.219  0.00  0.00    +0.200 C 
ATOM     10  C   UNL     1      -3.123  -5.559  -3.296  0.00  0.00    +0.098 C 
ENDROOT
BRANCH   1  14
ATOM     11  C   UNL     1      -1.538  -1.739  -0.505  0.00  0.00    +0.121 A 
ATOM     12  C   UNL     1      -0.465  -2.468  -0.997  0.00  0.00    +0.046 A 
ATOM     13  C   UNL     1      -0.671  -3.729  -1.522  0.00  0.00    +0.008 A 
ATOM     14  C   UNL     1      -1.945  -4.265  -1.558  0.00  0.00    -0.034 A 
ATOM     15  C   UNL     1      -3.017  -3.540  -1.070  0.00  0.00    +0.008 A 
ATOM     16  C   UNL     1      -2.815  -2.281  -0.538  0.00  0.00    +0.046 A 
BRANCH  11  17
ATOM     17  O   UNL     1      -1.339  -0.499   0.012  0.00  0.00    -0.489 OA
BRANCH  17  19
ATOM     18  C   UNL     1      -1.982   1.168   1.640  0.00  0.00    +0.051 C 
ATOM     19  C   UNL     1      -2.466   0.143   0.612  0.00  0.00    +0.167 C 
ATOM     20  C   UNL     1      -3.283   0.853  -0.469  0.00  0.00    +0.051 C 
ENDBRANCH  17  19
ENDBRANCH  11  17
ENDBRANCH   1  14
BRANCH   3  21
ATOM     21  C   UNL     1      -0.775  -6.916   0.482  0.00  0.00    +0.003 A 
ATOM     22  C   UNL     1       0.237  -6.808  -0.470  0.00  0.00    +0.013 A 
ATOM     23  C   UNL     1       1.546  -6.641  -0.068  0.00  0.00    +0.046 A 
ATOM     24  C   UNL     1       1.856  -6.582   1.284  0.00  0.00    +0.121 A 
ATOM     25  C   UNL     1       0.850  -6.690   2.235  0.00  0.00    +0.046 A 
ATOM     26  C   UNL     1      -0.461  -6.850   1.839  0.00  0.00    +0.013 A 
BRANCH  24  27
ATOM     27  O   UNL     1       3.146  -6.418   1.677  0.00  0.00    -0.487 OA
BRANCH  27  28
ATOM     28  C   UNL     1       3.394  -6.365   3.083  0.00  0.00    +0.264 C 
BRANCH  28  29
ATOM     29  C   UNL     1       4.870  -6.180   3.326  0.00  0.00    -0.010 A 
ATOM     30  C   UNL     1       5.693  -7.284   3.451  0.00  0.00    +0.007 A 
ATOM     31  C   UNL     1       7.047  -7.115   3.675  0.00  0.00    +0.000 A 
ATOM     32  C   UNL     1       7.577  -5.842   3.772  0.00  0.00    +0.000 A 
ATOM     33  C   UNL     1       6.754  -4.739   3.647  0.00  0.00    +0.000 A 
ATOM     34  C   UNL     1       5.401  -4.908   3.419  0.00  0.00    +0.007 A 
ENDBRANCH  28  29
ENDBRANCH  27  28
ENDBRANCH  24  27
ENDBRANCH   3  21
BRANCH   9  35
ATOM     35  N   UNL     1      -5.193  -5.886  -4.330  0.00  0.00    -0.328 N 
ATOM     36  H   UNL     1      -6.111  -6.199  -4.306  0.00  0.00    +0.145 HD
ATOM     37  H   UNL     1      -4.838  -5.487  -5.139  0.00  0.00    +0.145 HD
ENDBRANCH   9  35
BRANCH  10  38
ATOM     38  C   UNL     1      -2.666  -4.984  -4.525  0.00  0.00    +0.101 C 
ATOM     39  N   UNL     1      -2.304  -4.529  -5.501  0.00  0.00    -0.191 NA
ENDBRANCH  10  38
TORSDOF 9
