REMARK  Name = ZINC67463886
REMARK  9 active torsions:
REMARK  status: ('A' for Active; 'I' for Inactive)
REMARK    1  A    between atoms: C_1  and  C_2
REMARK    2  A    between atoms: C_5  and  N_9
REMARK    3  A    between atoms: C_6  and  C_8
REMARK    4  A    between atoms: N_9  and  C_10
REMARK    5  A    between atoms: C_10  and  N_12
REMARK    6  A    between atoms: N_12  and  N_13
REMARK    7  A    between atoms: C_14  and  C_16
REMARK    8  A    between atoms: C_19  and  N_23
REMARK    9  A    between atoms: C_20  and  C_22
REMARK                            x       y       z     vdW  Elec       q    Type
REMARK                         _______ _______ _______ _____ _____    ______ ____
ROOT
ATOM      1  N   UNL     1      -0.111  -6.886   0.025  0.00  0.00    -0.231 N 
ATOM      2  C   UNL     1      -0.195  -8.232   0.025  0.00  0.00    +0.260 C 
ATOM      3  O   UNL     1      -0.284  -8.835  -1.027  0.00  0.00    -0.269 OA
ATOM      4  H   UNL     1      -0.039  -6.405   0.864  0.00  0.00    +0.173 HD
ENDROOT
BRANCH   2   5
ATOM      5  C   UNL     1      -0.178  -8.972   1.301  0.00  0.00    +0.039 A 
ATOM      6  C   UNL     1      -0.082  -8.280   2.511  0.00  0.00    +0.015 A 
ATOM      7  C   UNL     1      -0.067  -8.973   3.700  0.00  0.00    +0.024 A 
ATOM      8  C   UNL     1      -0.147 -10.363   3.698  0.00  0.00    +0.041 A 
ATOM      9  C   UNL     1      -0.244 -11.055   2.495  0.00  0.00    -0.028 A 
ATOM     10  C   UNL     1      -0.266 -10.367   1.302  0.00  0.00    +0.018 A 
ATOM     11  C   UNL     1      -0.331 -12.559   2.497  0.00  0.00    +0.046 C 
BRANCH   8  12
ATOM     12  N   UNL     1      -0.131 -11.062   4.904  0.00  0.00    -0.254 N 
ATOM     13  C   UNL     1       1.075 -11.554   5.587  0.00  0.00    +0.134 C 
ATOM     14  C   UNL     1       0.527 -12.243   6.852  0.00  0.00    +0.125 C 
ATOM     15  N   UNL     1      -0.929 -12.066   6.747  0.00  0.00    -0.297 N 
ATOM     16  C   UNL     1      -1.210 -11.388   5.626  0.00  0.00    +0.307 C 
ATOM     17  O   UNL     1      -2.343 -11.098   5.294  0.00  0.00    -0.252 OA
ATOM     18  H   UNL     1      -1.582 -12.386   7.389  0.00  0.00    +0.150 HD
ENDBRANCH   8  12
ENDBRANCH   2   5
BRANCH   1  19
ATOM     19  N   UNL     1      -0.126  -6.183  -1.187  0.00  0.00    -0.245 N 
ATOM     20  H   UNL     1      -0.197  -6.665  -2.026  0.00  0.00    +0.172 HD
BRANCH  19  21
ATOM     21  C   UNL     1      -0.042  -4.838  -1.187  0.00  0.00    +0.151 C 
ATOM     22  S   UNL     1      -0.061  -3.979  -2.667  0.00  0.00    -0.017 S 
BRANCH  21  23
ATOM     23  N   UNL     1       0.057  -4.169  -0.021  0.00  0.00    -0.296 N 
ATOM     24  H   UNL     1       0.131  -4.658   0.814  0.00  0.00    +0.154 HD
BRANCH  23  29
ATOM     25  C   UNL     1       0.039   1.503   0.004  0.00  0.00    +0.044 C 
ATOM     26  C   UNL     1       0.044  -0.004  -0.003  0.00  0.00    -0.050 A 
ATOM     27  C   UNL     1       0.855  -0.687  -0.890  0.00  0.00    +0.005 A 
ATOM     28  C   UNL     1       0.862  -2.068  -0.899  0.00  0.00    +0.024 A 
ATOM     29  C   UNL     1       0.053  -2.771  -0.015  0.00  0.00    +0.036 A 
ATOM     30  C   UNL     1      -0.760  -2.081   0.875  0.00  0.00    -0.029 A 
ATOM     31  C   UNL     1      -0.758  -0.700   0.882  0.00  0.00    +0.008 A 
ATOM     32  C   UNL     1      -1.639  -2.839   1.836  0.00  0.00    +0.045 C 
ENDBRANCH  23  29
ENDBRANCH  21  23
ENDBRANCH  19  21
ENDBRANCH   1  19
TORSDOF 6
