REMARK  Name = ZINC40356955
REMARK  6 active torsions:
REMARK  status: ('A' for Active; 'I' for Inactive)
REMARK    1  A    between atoms: C_1  and  C_2
REMARK    2  A    between atoms: C_5  and  C_8
REMARK    3  A    between atoms: C_5  and  N_11
REMARK    4  A    between atoms: C_8  and  N_10
REMARK    5  A    between atoms: C_12  and  C_14
REMARK    6  A    between atoms: C_19  and  O_20
REMARK                            x       y       z     vdW  Elec       q    Type
REMARK                         _______ _______ _______ _____ _____    ______ ____
ROOT
ATOM      1  N   UNL     1      -1.308  -2.001   2.416  0.00  0.00    -0.300 N 
ATOM      2  C   UNL     1      -2.563  -2.374   2.737  0.00  0.00    +0.248 C 
ATOM      3  O   UNL     1      -3.185  -3.114   2.000  0.00  0.00    -0.270 OA
ATOM      4  H   UNL     1      -0.839  -1.353   2.964  0.00  0.00    +0.150 HD
ENDROOT
BRANCH   1   9
ATOM      5  C   UNL     1       0.108   1.408  -0.277  0.00  0.00    +0.007 C 
ATOM      6  C   UNL     1       0.082  -0.119  -0.182  0.00  0.00    -0.014 C 
ATOM      7  C   UNL     1      -1.369  -0.602  -0.120  0.00  0.00    +0.006 C 
ATOM      8  C   UNL     1      -1.394  -2.129  -0.025  0.00  0.00    +0.032 C 
ATOM      9  C   UNL     1      -0.653  -2.574   1.237  0.00  0.00    +0.079 C 
ATOM     10  C   UNL     1       0.797  -2.091   1.175  0.00  0.00    +0.032 C 
ATOM     11  C   UNL     1       0.823  -0.565   1.080  0.00  0.00    +0.006 C 
BRANCH   9  12
ATOM     12  C   UNL     1      -0.679  -4.078   1.330  0.00  0.00    +0.070 C 
ATOM     13  S   UNL     1      -1.290  -4.943   0.132  0.00  0.00    -0.038 S 
BRANCH  12  14
ATOM     14  N   UNL     1      -0.186  -4.694   2.423  0.00  0.00    -0.354 N 
ATOM     15  H   UNL     1       0.117  -4.169   3.180  0.00  0.00    +0.143 HD
ATOM     16  H   UNL     1      -0.135  -5.662   2.452  0.00  0.00    +0.143 HD
ENDBRANCH  12  14
ENDBRANCH   9  12
ENDBRANCH   1   9
BRANCH   2  17
ATOM     17  C   UNL     1      -3.181  -1.884   3.984  0.00  0.00    +0.078 A 
ATOM     18  C   UNL     1      -2.471  -1.029   4.831  0.00  0.00    +0.018 A 
ATOM     19  C   UNL     1      -3.053  -0.575   5.994  0.00  0.00    +0.021 A 
ATOM     20  C   UNL     1      -4.342  -0.963   6.328  0.00  0.00    +0.044 A 
ATOM     21  C   UNL     1      -5.055  -1.808   5.499  0.00  0.00    +0.066 A 
ATOM     22  C   UNL     1      -4.485  -2.270   4.322  0.00  0.00    +0.130 A 
ATOM     23 CL   UNL     1      -5.064  -0.384   7.797  0.00  0.00    -0.083 Cl
BRANCH  22  24
ATOM     24  O   UNL     1      -5.186  -3.095   3.505  0.00  0.00    -0.506 OA
ATOM     25  H   UNL     1      -5.069  -4.035   3.701  0.00  0.00    +0.292 HD
ENDBRANCH  22  24
ENDBRANCH   2  17
TORSDOF 5
