REMARK  Name = ZINC53679577
REMARK  9 active torsions:
REMARK  status: ('A' for Active; 'I' for Inactive)
REMARK    1  A    between atoms: C_1  and  C_2
REMARK    2  A    between atoms: C_5  and  N_9
REMARK    3  A    between atoms: C_6  and  C_8
REMARK    4  A    between atoms: N_9  and  C_10
REMARK    5  A    between atoms: N_9  and  C_11
REMARK    6  A    between atoms: C_11  and  C_12
REMARK    7  A    between atoms: C_18  and  S_25
REMARK    8  A    between atoms: C_22  and  C_24
REMARK    9  A    between atoms: S_25  and  N_28
REMARK                            x       y       z     vdW  Elec       q    Type
REMARK                         _______ _______ _______ _____ _____    ______ ____
ROOT
ATOM      1  C   UNL     1      -1.640  -5.166  -1.439  0.00  0.00    +0.237 C 
ATOM      2  O   UNL     1      -0.967  -4.758  -2.362  0.00  0.00    -0.274 OA
ATOM      3  N   UNL     1      -2.780  -5.842  -1.683  0.00  0.00    -0.267 N 
ATOM      4  C   UNL     1      -3.635  -6.352  -0.702  0.00  0.00    +0.040 A 
ATOM      5  C   UNL     1      -3.523  -6.290   0.689  0.00  0.00    +0.026 A 
ATOM      6  C   UNL     1      -4.487  -6.864   1.490  0.00  0.00    +0.030 A 
ATOM      7  C   UNL     1      -5.572  -7.507   0.922  0.00  0.00    +0.105 A 
ATOM      8  C   UNL     1      -5.689  -7.572  -0.454  0.00  0.00    +0.034 A 
ATOM      9  C   UNL     1      -4.726  -6.998  -1.261  0.00  0.00    -0.022 A 
ATOM     10  C   UNL     1      -4.609  -6.924  -2.767  0.00  0.00    +0.059 C 
ATOM     11  C   UNL     1      -3.307  -6.145  -3.016  0.00  0.00    +0.083 C 
ATOM     12  C   UNL     1      -2.315  -7.010  -3.796  0.00  0.00    +0.029 C 
ENDROOT
BRANCH   7  13
ATOM     13  S   UNL     1      -6.801  -8.240   1.949  0.00  0.00    +0.056 S 
ATOM     14  O   UNL     1      -7.429  -9.251   1.173  0.00  0.00    -0.153 OA
ATOM     15  O   UNL     1      -6.178  -8.515   3.196  0.00  0.00    -0.153 OA
BRANCH  13  16
ATOM     16  N   UNL     1      -7.951  -7.084   2.239  0.00  0.00    -0.204 NA
ATOM     17  H   UNL     1      -7.854  -6.198   1.857  0.00  0.00    +0.144 HD
ATOM     18  H   UNL     1      -8.721  -7.293   2.791  0.00  0.00    +0.144 HD
ENDBRANCH  13  16
ENDBRANCH   7  13
BRANCH   1  19
ATOM     19  C   UNL     1      -1.201  -4.917  -0.019  0.00  0.00    +0.201 C 
BRANCH  19  20
ATOM     20  N   UNL     1       0.058  -4.167  -0.021  0.00  0.00    -0.324 N 
ATOM     21  C   UNL     1       1.336  -4.883  -0.031  0.00  0.00    +0.130 C 
BRANCH  20  26
ATOM     22  C   UNL     1      -0.018   1.503   0.010  0.00  0.00    +0.044 C 
ATOM     23  C   UNL     1       0.002  -0.004   0.002  0.00  0.00    -0.050 A 
ATOM     24  C   UNL     1       0.006  -0.687  -1.200  0.00  0.00    +0.005 A 
ATOM     25  C   UNL     1       0.024  -2.068  -1.212  0.00  0.00    +0.023 A 
ATOM     26  C   UNL     1       0.040  -2.771  -0.013  0.00  0.00    +0.033 A 
ATOM     27  C   UNL     1       0.036  -2.081   1.192  0.00  0.00    -0.029 A 
ATOM     28  C   UNL     1       0.023  -0.700   1.196  0.00  0.00    +0.008 A 
ATOM     29  C   UNL     1       0.052  -2.839   2.495  0.00  0.00    +0.045 C 
ENDBRANCH  20  26
ENDBRANCH  19  20
ENDBRANCH   1  19
TORSDOF 5
