REMARK  Name = ZINC63874549
REMARK  8 active torsions:
REMARK  status: ('A' for Active; 'I' for Inactive)
REMARK    1  A    between atoms: C_7  and  C_10
REMARK    2  A    between atoms: C_13  and  S_22
REMARK    3  A    between atoms: N_14  and  C_15
REMARK    4  A    between atoms: C_15  and  C_16
REMARK    5  A    between atoms: S_22  and  C_23
REMARK    6  A    between atoms: C_23  and  C_24
REMARK    7  A    between atoms: N_26  and  C_27
REMARK    8  A    between atoms: C_32  and  C_33
REMARK                            x       y       z     vdW  Elec       q    Type
REMARK                         _______ _______ _______ _____ _____    ______ ____
ROOT
ATOM      1  C   UNL     1       0.677  -3.132   0.029  0.00  0.00    +0.163 A 
ATOM      2  N   UNL     1      -0.647  -3.068   0.035  0.00  0.00    -0.129 NA
ATOM      3  N   UNL     1      -1.139  -4.255   0.025  0.00  0.00    -0.122 NA
ATOM      4  C   UNL     1      -0.164  -5.152   0.013  0.00  0.00    +0.192 A 
ATOM      5  N   UNL     1       1.016  -4.473   0.009  0.00  0.00    -0.300 N 
ENDROOT
BRANCH   1  12
ATOM      6  C   UNL     1      -0.013   1.352   0.092  0.00  0.00    +0.001 A 
ATOM      7  C   UNL     1       1.167   2.099   0.092  0.00  0.00    +0.002 A 
ATOM      8  C   UNL     1       2.388   1.509   0.075  0.00  0.00    +0.026 A 
ATOM      9  C   UNL     1       2.487   0.093   0.056  0.00  0.00    +0.043 A 
ATOM     10  N   UNL     1       3.534  -0.708   0.037  0.00  0.00    -0.380 N 
ATOM     11  C   UNL     1       3.078  -2.101   0.023  0.00  0.00    +0.152 C 
ATOM     12  C   UNL     1       1.566  -2.045   0.036  0.00  0.00    +0.025 C 
ATOM     13  C   UNL     1       1.240  -0.690   0.057  0.00  0.00    +0.006 A 
ATOM     14  C   UNL     1       0.005  -0.006   0.075  0.00  0.00    +0.010 A 
ATOM     15  H   UNL     1       4.460  -0.420   0.033  0.00  0.00    +0.160 HD
ENDBRANCH   1  12
BRANCH   5  16
ATOM     16  C   UNL     1       2.365  -5.044  -0.010  0.00  0.00    +0.157 C 
BRANCH  16  17
ATOM     17  C   UNL     1       2.847  -5.262   1.426  0.00  0.00    +0.138 C 
ATOM     18  C   UNL     1       4.311  -5.749   1.418  0.00  0.00    +0.035 C 
ATOM     19  C   UNL     1       4.313  -6.805   2.557  0.00  0.00    +0.031 C 
ATOM     20  C   UNL     1       2.886  -7.392   2.417  0.00  0.00    +0.160 C 
ATOM     21  O   UNL     1       2.054  -6.275   2.056  0.00  0.00    -0.375 OA
ENDBRANCH  16  17
ENDBRANCH   5  16
BRANCH   4  22
ATOM     22  S   UNL     1      -0.359  -6.904  -0.003  0.00  0.00    -0.077 S 
BRANCH  22  23
ATOM     23  C   UNL     1      -2.157  -7.145   0.001  0.00  0.00    +0.173 C 
BRANCH  23  24
ATOM     24  C   UNL     1      -2.465  -8.620  -0.013  0.00  0.00    +0.228 C 
ATOM     25  O   UNL     1      -1.562  -9.429  -0.023  0.00  0.00    -0.275 OA
ATOM     26  N   UNL     1      -3.746  -9.041  -0.012  0.00  0.00    -0.284 N 
ATOM     27  H   UNL     1      -4.468  -8.397   0.062  0.00  0.00    +0.155 HD
BRANCH  26  28
ATOM     28  C   UNL     1      -4.033 -10.401  -0.119  0.00  0.00    +0.052 A 
ATOM     29  C   UNL     1      -3.193 -11.338   0.465  0.00  0.00    +0.044 A 
ATOM     30  C   UNL     1      -3.479 -12.686   0.357  0.00  0.00    +0.043 A 
ATOM     31  C   UNL     1      -4.605 -13.111  -0.332  0.00  0.00    +0.021 A 
ATOM     32  C   UNL     1      -5.450 -12.194  -0.917  0.00  0.00    +0.022 A 
ATOM     33  C   UNL     1      -5.176 -10.828  -0.812  0.00  0.00    +0.073 A 
ATOM     34 CL   UNL     1      -2.423 -13.854   1.089  0.00  0.00    -0.083 Cl
BRANCH  33  35
ATOM     35  C   UNL     1      -6.053  -9.869  -1.414  0.00  0.00    +0.101 C 
ATOM     36  N   UNL     1      -6.749  -9.108  -1.891  0.00  0.00    -0.191 NA
ENDBRANCH  33  35
ENDBRANCH  26  28
ENDBRANCH  23  24
ENDBRANCH  22  23
ENDBRANCH   4  22
TORSDOF 8
