REMARK  Name = ZINC48846714
REMARK  8 active torsions:
REMARK  status: ('A' for Active; 'I' for Inactive)
REMARK    1  A    between atoms: C_1  and  C_2
REMARK    2  A    between atoms: C_5  and  C_9
REMARK    3  A    between atoms: C_6  and  C_8
REMARK    4  A    between atoms: C_9  and  C_10
REMARK    5  A    between atoms: C_9  and  C_11
REMARK    6  A    between atoms: C_9  and  N_14
REMARK    7  A    between atoms: N_14  and  C_15
REMARK    8  A    between atoms: C_21  and  N_23
REMARK                            x       y       z     vdW  Elec       q    Type
REMARK                         _______ _______ _______ _____ _____    ______ ____
ROOT
ATOM      1  C   UNL     1       0.047  -4.769   0.528  0.00  0.00    +0.144 C 
ATOM      2  C   UNL     1       0.885  -6.030   0.749  0.00  0.00    +0.045 C 
ENDROOT
BRANCH   1   7
ATOM      3  C   UNL     1       2.163  -0.463   3.749  0.00  0.00    +0.044 C 
ATOM      4  C   UNL     1       1.611  -1.586   2.909  0.00  0.00    -0.050 A 
ATOM      5  C   UNL     1       2.222  -2.826   2.926  0.00  0.00    +0.004 A 
ATOM      6  C   UNL     1       1.716  -3.856   2.156  0.00  0.00    +0.006 A 
ATOM      7  C   UNL     1       0.599  -3.646   1.369  0.00  0.00    -0.014 A 
ATOM      8  C   UNL     1      -0.012  -2.406   1.353  0.00  0.00    -0.045 A 
ATOM      9  C   UNL     1       0.492  -1.377   2.126  0.00  0.00    +0.007 A 
ATOM     10  C   UNL     1      -1.230  -2.177   0.494  0.00  0.00    +0.044 C 
ENDBRANCH   1   7
BRANCH   1  11
ATOM     11  C   UNL     1      -1.381  -5.039   0.926  0.00  0.00    +0.380 C 
ATOM     12  O   UNL     1      -2.260  -5.034   0.081  0.00  0.00    -0.244 OA
ATOM     13  O   UNL     1      -1.658  -5.262   2.092  0.00  0.00    -0.244 OA
ENDBRANCH   1  11
BRANCH   1  14
ATOM     14  N   UNL     1       0.098  -4.389  -0.890  0.00  0.00    -0.297 NA
ATOM     15  H   UNL     1      -0.309  -5.107  -1.471  0.00  0.00    +0.123 HD
BRANCH  14  16
ATOM     16  C   UNL     1       1.474  -4.091  -1.306  0.00  0.00    +0.040 C 
ATOM     17  C   UNL     1       1.619  -2.588  -1.552  0.00  0.00    +0.017 C 
ATOM     18  C   UNL     1       0.648  -2.156  -2.653  0.00  0.00    +0.001 C 
ATOM     19  C   UNL     1       0.967  -2.916  -3.942  0.00  0.00    -0.001 C 
ATOM     20  C   UNL     1       0.823  -4.419  -3.696  0.00  0.00    -0.015 C 
ATOM     21  C   UNL     1       1.793  -4.852  -2.595  0.00  0.00    -0.058 C 
BRANCH  21  22
ATOM     22  N   UNL     1       1.655  -6.295  -2.359  0.00  0.00    +0.381 N 
ATOM     23  H   UNL     1       0.709  -6.500  -2.073  0.00  0.00    -0.090 HD
ATOM     24  H   UNL     1       1.865  -6.796  -3.209  0.00  0.00    -0.090 HD
ATOM     25  H   UNL     1       2.295  -6.580  -1.633  0.00  0.00    -0.090 HD
ENDBRANCH  21  22
ENDBRANCH  14  16
ENDBRANCH   1  14
TORSDOF 5
