REMARK  Name = ZINC03665860
REMARK  10 active torsions:
REMARK  status: ('A' for Active; 'I' for Inactive)
REMARK    1  A    between atoms: C_1  and  C_2
REMARK    2  A    between atoms: C_2  and  O_3
REMARK    3  A    between atoms: O_3  and  C_4
REMARK    4  A    between atoms: C_7  and  N_10
REMARK    5  A    between atoms: C_20  and  C_21
REMARK    6  A    between atoms: C_20  and  O_33
REMARK    7  A    between atoms: N_23  and  C_24
REMARK    8  A    between atoms: C_24  and  C_25
REMARK    9  A    between atoms: C_28  and  O_31
REMARK   10  A    between atoms: O_31  and  C_32
REMARK                            x       y       z     vdW  Elec       q    Type
REMARK                         _______ _______ _______ _____ _____    ______ ____
ROOT
ATOM      1  N   UNL     1      -1.989  -5.990  -0.011  0.00  0.00    -0.214 N 
ATOM      2  C   UNL     1      -0.921  -6.802  -0.117  0.00  0.00    +0.314 C 
ATOM      3  O   UNL     1       0.183  -6.299  -0.205  0.00  0.00    -0.252 OA
ATOM      4  N   UNL     1      -1.017  -8.138  -0.128  0.00  0.00    -0.269 N 
ATOM      5  C   UNL     1      -2.234  -8.812  -0.031  0.00  0.00    +0.043 A 
ATOM      6  C   UNL     1      -2.280 -10.200  -0.048  0.00  0.00    +0.024 A 
ATOM      7  C   UNL     1      -3.495 -10.849   0.048  0.00  0.00    +0.002 A 
ATOM      8  C   UNL     1      -4.668 -10.124   0.160  0.00  0.00    +0.001 A 
ATOM      9  C   UNL     1      -4.628  -8.740   0.177  0.00  0.00    +0.010 A 
ATOM     10  C   UNL     1      -3.418  -8.091   0.082  0.00  0.00    +0.033 A 
ATOM     11  C   UNL     1      -3.332  -6.582   0.104  0.00  0.00    +0.247 C 
ATOM     12  H   UNL     1      -0.203  -8.660  -0.207  0.00  0.00    +0.156 HD
ENDROOT
BRANCH   1  16
ATOM     13  C   UNL     1      -1.497  -1.849   0.008  0.00  0.00    +0.121 A 
ATOM     14  C   UNL     1      -1.585  -2.542   1.206  0.00  0.00    +0.047 A 
ATOM     15  C   UNL     1      -1.748  -3.914   1.201  0.00  0.00    +0.027 A 
ATOM     16  C   UNL     1      -1.824  -4.598  -0.005  0.00  0.00    +0.042 A 
ATOM     17  C   UNL     1      -1.736  -3.904  -1.204  0.00  0.00    +0.027 A 
ATOM     18  C   UNL     1      -1.578  -2.532  -1.197  0.00  0.00    +0.047 A 
BRANCH  13  19
ATOM     19  O   UNL     1      -1.337  -0.499   0.014  0.00  0.00    -0.492 OA
BRANCH  19  21
ATOM     20  C   UNL     1      -1.082   1.647   1.097  0.00  0.00    +0.048 C 
ATOM     21  C   UNL     1      -1.261   0.140   1.290  0.00  0.00    +0.225 C 
ENDBRANCH  19  21
ENDBRANCH  13  19
ENDBRANCH   1  16
BRANCH  11  22
ATOM     22  C   UNL     1      -4.170  -6.058  -1.034  0.00  0.00    +0.269 C 
ATOM     23  O   UNL     1      -5.181  -5.428  -0.802  0.00  0.00    -0.270 OA
ATOM     24  N   UNL     1      -3.797  -6.288  -2.308  0.00  0.00    -0.307 N 
ATOM     25  H   UNL     1      -2.989  -6.792  -2.493  0.00  0.00    +0.149 HD
BRANCH  24  26
ATOM     26  C   UNL     1      -4.612  -5.778  -3.414  0.00  0.00    +0.139 C 
BRANCH  26  27
ATOM     27  C   UNL     1      -3.980  -6.169  -4.725  0.00  0.00    -0.030 A 
ATOM     28  C   UNL     1      -3.053  -5.334  -5.321  0.00  0.00    +0.009 A 
ATOM     29  C   UNL     1      -2.473  -5.690  -6.523  0.00  0.00    +0.046 A 
ATOM     30  C   UNL     1      -2.821  -6.887  -7.132  0.00  0.00    +0.120 A 
ATOM     31  C   UNL     1      -3.752  -7.723  -6.532  0.00  0.00    +0.046 A 
ATOM     32  C   UNL     1      -4.325  -7.365  -5.327  0.00  0.00    +0.009 A 
BRANCH  30  33
ATOM     33  O   UNL     1      -2.253  -7.239  -8.315  0.00  0.00    -0.495 OA
ATOM     34  C   UNL     1      -2.659  -8.485  -8.885  0.00  0.00    +0.277 C 
ENDBRANCH  30  33
ENDBRANCH  26  27
ENDBRANCH  24  26
ENDBRANCH  11  22
BRANCH  11  35
ATOM     35  O   UNL     1      -3.915  -6.121   1.324  0.00  0.00    -0.360 OA
ATOM     36  H   UNL     1      -4.806  -6.460   1.488  0.00  0.00    +0.213 HD
ENDBRANCH  11  35
TORSDOF 8
