REMARK  Name = ZINC09330105
REMARK  4 active torsions:
REMARK  status: ('A' for Active; 'I' for Inactive)
REMARK    1  A    between atoms: C_6  and  N_11
REMARK    2  A    between atoms: C_26  and  C_32
REMARK    3  A    between atoms: C_32  and  C_34
REMARK    4  A    between atoms: C_38  and  N_40
REMARK                            x       y       z     vdW  Elec       q    Type
REMARK                         _______ _______ _______ _____ _____    ______ ____
ROOT
ATOM      1  N   UNL     1       1.956   0.914   0.778  0.00  0.00    -0.210 N 
ATOM      2  C   UNL     1       1.103  -0.122   1.029  0.00  0.00    +0.232 C 
ATOM      3  O   UNL     1       1.207  -0.962   1.897  0.00  0.00    -0.274 OA
ATOM      4  C   UNL     1       0.002  -0.004   0.002  0.00  0.00    +0.113 C 
ATOM      5  C   UNL     1      -1.430  -0.219   0.354  0.00  0.00    +0.100 C 
ATOM      6  C   UNL     1      -1.899  -0.674   1.668  0.00  0.00    -0.021 A 
ATOM      7  C   UNL     1      -1.120  -1.440   2.518  0.00  0.00    +0.006 A 
ATOM      8  C   UNL     1      -1.612  -1.872   3.734  0.00  0.00    +0.000 A 
ATOM      9  C   UNL     1      -2.907  -1.561   4.112  0.00  0.00    +0.001 A 
ATOM     10  C   UNL     1      -3.706  -0.814   3.274  0.00  0.00    +0.008 A 
ATOM     11  C   UNL     1      -3.215  -0.361   2.050  0.00  0.00    -0.019 A 
ATOM     12  C   UNL     1      -4.076   0.439   1.159  0.00  0.00    +0.022 C 
ATOM     13  C   UNL     1      -3.568   1.067   0.081  0.00  0.00    +0.054 C 
ATOM     14  C   UNL     1      -1.255   1.895  -0.743  0.00  0.00    +0.141 C 
ATOM     15  C   UNL     1      -0.019   1.586   0.011  0.00  0.00    +0.116 C 
ATOM     16  C   UNL     1       1.389   1.892  -0.001  0.00  0.00    +0.232 C 
ATOM     17  O   UNL     1       1.946   2.805  -0.570  0.00  0.00    -0.274 OA
ATOM     18  N   UNL     1      -2.167   0.734  -0.415  0.00  0.00    -0.384 NA
ATOM     19  H   UNL     1      -2.335   0.267  -1.313  0.00  0.00    +0.127 HD
ENDROOT
BRANCH   1  25
ATOM     20  C   UNL     1       7.963   2.186   2.430  0.00  0.00    +0.001 A 
ATOM     21  C   UNL     1       7.475   3.229   1.645  0.00  0.00    +0.001 A 
ATOM     22  C   UNL     1       6.205   3.204   1.157  0.00  0.00    +0.008 A 
ATOM     23  C   UNL     1       5.370   2.111   1.447  0.00  0.00    -0.016 A 
ATOM     24  C   UNL     1       4.053   2.051   0.961  0.00  0.00    +0.032 A 
ATOM     25  C   UNL     1       3.270   0.973   1.264  0.00  0.00    +0.044 A 
ATOM     26  C   UNL     1       3.761  -0.071   2.057  0.00  0.00    +0.024 A 
ATOM     27  C   UNL     1       5.032  -0.044   2.537  0.00  0.00    +0.010 A 
ATOM     28  C   UNL     1       5.866   1.050   2.245  0.00  0.00    -0.018 A 
ATOM     29  C   UNL     1       7.183   1.112   2.732  0.00  0.00    +0.008 A 
ENDBRANCH   1  25
BRANCH  14  30
ATOM     30  C   UNL     1      -1.079   1.614  -2.213  0.00  0.00    +0.183 C 
ATOM     31  O   UNL     1      -1.589   0.631  -2.707  0.00  0.00    -0.290 OA
BRANCH  30  32
ATOM     32  C   UNL     1      -0.289   2.532  -3.049  0.00  0.00    +0.021 A 
ATOM     33  C   UNL     1       0.301   3.667  -2.482  0.00  0.00    +0.011 A 
ATOM     34  C   UNL     1       1.040   4.521  -3.272  0.00  0.00    +0.003 A 
ATOM     35  C   UNL     1       1.200   4.259  -4.622  0.00  0.00    +0.033 A 
ATOM     36  C   UNL     1       0.619   3.139  -5.189  0.00  0.00    +0.127 A 
ATOM     37  C   UNL     1      -0.119   2.271  -4.412  0.00  0.00    +0.044 A 
BRANCH  36  38
ATOM     38  N   UNL     1       0.795   2.867  -6.633  0.00  0.00    +0.056 N 
ATOM     39  O   UNL     1       1.451   3.630  -7.321  0.00  0.00    -0.126 OA
ATOM     40  O   UNL     1       0.285   1.882  -7.135  0.00  0.00    -0.126 OA
ENDBRANCH  36  38
ENDBRANCH  30  32
ENDBRANCH  14  30
TORSDOF 4
