REMARK  Name = ZINC67298113
REMARK  3 active torsions:
REMARK  status: ('A' for Active; 'I' for Inactive)
REMARK    1  A    between atoms: C_3  and  N_8
REMARK    2  A    between atoms: C_10  and  C_20
REMARK    3  A    between atoms: C_15  and  O_19
REMARK                            x       y       z     vdW  Elec       q    Type
REMARK                         _______ _______ _______ _____ _____    ______ ____
ROOT
ATOM      1  N   UNL     1       3.560   2.114  -0.018  0.00  0.00    -0.325 N 
ATOM      2  C   UNL     1       4.543   1.751   0.776  0.00  0.00    +0.212 A 
ATOM      3  C   UNL     1       5.860   2.416   0.714  0.00  0.00    +0.098 A 
ATOM      4  C   UNL     1       6.641   2.392   1.862  0.00  0.00    +0.030 A 
ATOM      5  C   UNL     1       6.141   1.709   2.999  0.00  0.00    +0.018 A 
ATOM      6  C   UNL     1       6.790   1.823   4.238  0.00  0.00    +0.015 A 
ATOM      7  C   UNL     1       6.276   1.196   5.334  0.00  0.00    +0.046 A 
ATOM      8  C   UNL     1       5.113   0.434   5.233  0.00  0.00    +0.120 A 
ATOM      9  C   UNL     1       4.468   0.294   4.013  0.00  0.00    +0.092 A 
ATOM     10  C   UNL     1       4.981   0.918   2.888  0.00  0.00    +0.141 A 
ATOM     11  O   UNL     1       4.381   0.756   1.686  0.00  0.00    -0.438 OA
ATOM     12  H   UNL     1       3.665   2.882  -0.601  0.00  0.00    +0.169 HD
ENDROOT
BRANCH   3  13
ATOM     13  C   UNL     1       6.326   3.076  -0.515  0.00  0.00    +0.255 C 
ATOM     14  O   UNL     1       5.588   3.158  -1.478  0.00  0.00    -0.270 OA
ATOM     15  N   UNL     1       7.571   3.590  -0.574  0.00  0.00    -0.261 N 
ATOM     16  C   UNL     1       7.974   4.307  -1.692  0.00  0.00    +0.165 A 
ATOM     17  N   UNL     1       7.283   4.588  -2.776  0.00  0.00    -0.233 NA
ATOM     18  C   UNL     1       7.814   5.287  -3.762  0.00  0.00    +0.120 A 
ATOM     19  C   UNL     1       9.096   5.699  -3.604  0.00  0.00    +0.068 A 
ATOM     20  S   UNL     1       9.463   5.034  -1.988  0.00  0.00    -0.061 S 
ATOM     21  H   UNL     1       8.185   3.458   0.166  0.00  0.00    +0.157 HD
ENDBRANCH   3  13
BRANCH   1  24
ATOM     22  C   UNL     1      -0.013   1.359  -0.012  0.00  0.00    +0.003 A 
ATOM     23  C   UNL     1       1.164   2.078  -0.006  0.00  0.00    +0.026 A 
ATOM     24  C   UNL     1       2.389   1.407  -0.024  0.00  0.00    +0.043 A 
ATOM     25  C   UNL     1       2.413   0.010  -0.047  0.00  0.00    +0.045 A 
ATOM     26  C   UNL     1       1.227  -0.697  -0.052  0.00  0.00    +0.043 A 
ATOM     27  C   UNL     1       0.016  -0.024  -0.035  0.00  0.00    +0.020 A 
ATOM     28 CL   UNL     1       1.253  -2.432  -0.081  0.00  0.00    -0.083 Cl
ENDBRANCH   1  24
BRANCH   8  29
ATOM     29  O   UNL     1       4.608  -0.175   6.336  0.00  0.00    -0.507 OA
ATOM     30  H   UNL     1       3.977   0.366   6.829  0.00  0.00    +0.292 HD
ENDBRANCH   8  29
TORSDOF 3
