REMARK  Name = ZINC38773498
REMARK  4 active torsions:
REMARK  status: ('A' for Active; 'I' for Inactive)
REMARK    1  A    between atoms: C_1  and  O_2
REMARK    2  A    between atoms: O_2  and  C_3
REMARK    3  A    between atoms: C_3  and  C_5
REMARK    4  A    between atoms: C_8  and  C_11
REMARK                            x       y       z     vdW  Elec       q    Type
REMARK                         _______ _______ _______ _____ _____    ______ ____
ROOT
ATOM      1  C   UNL     1       0.851  -6.357   1.260  0.00  0.00    +0.106 C 
ATOM      2  C   UNL     1       2.229  -6.841   0.805  0.00  0.00    +0.047 C 
ATOM      3  C   UNL     1       2.489  -6.475  -0.656  0.00  0.00    +0.011 C 
ATOM      4  C   UNL     1       3.904  -6.939  -1.024  0.00  0.00    +0.028 C 
ATOM      5  C   UNL     1       4.919  -6.318  -0.062  0.00  0.00    +0.160 C 
ATOM      6  O   UNL     1       4.580  -6.644   1.290  0.00  0.00    -0.372 OA
ATOM      7  C   UNL     1       3.293  -6.168   1.675  0.00  0.00    +0.155 C 
ATOM      8  C   UNL     1       3.010  -6.424   3.126  0.00  0.00    +0.003 A 
ATOM      9  C   UNL     1       4.042  -6.362   4.046  0.00  0.00    +0.023 A 
ATOM     10  C   UNL     1       3.795  -6.589   5.387  0.00  0.00    +0.018 A 
ATOM     11  C   UNL     1       2.512  -6.879   5.817  0.00  0.00    +0.017 A 
ATOM     12  C   UNL     1       1.478  -6.945   4.905  0.00  0.00    +0.024 A 
ATOM     13  C   UNL     1       1.722  -6.721   3.555  0.00  0.00    +0.033 A 
ATOM     14  N   UNL     1       0.659  -6.811   2.647  0.00  0.00    -0.336 N 
ATOM     15 BR   UNL     1       5.213  -6.503   6.636  0.00  0.00    -0.050 Br
ATOM     16  H   UNL     1      -0.196  -7.170   2.929  0.00  0.00    +0.147 HD
ENDROOT
BRANCH   1  20
ATOM     17  C   UNL     1       0.680  -2.088   1.091  0.00  0.00    +0.059 A 
ATOM     18  C   UNL     1       0.101  -2.854   0.077  0.00  0.00    +0.015 A 
ATOM     19  C   UNL     1       0.160  -4.231   0.138  0.00  0.00    +0.006 A 
ATOM     20  C   UNL     1       0.791  -4.853   1.200  0.00  0.00    -0.027 A 
ATOM     21  C   UNL     1       1.366  -4.100   2.209  0.00  0.00    +0.006 A 
ATOM     22  C   UNL     1       1.320  -2.722   2.157  0.00  0.00    +0.015 A 
BRANCH  17  23
ATOM     23  C   UNL     1       0.620  -0.613   1.032  0.00  0.00    +0.339 C 
ATOM     24  O   UNL     1       1.129   0.051   1.913  0.00  0.00    -0.245 OA
BRANCH  23  26
ATOM     25  C   UNL     1      -0.017   1.425   0.010  0.00  0.00    +0.280 C 
ATOM     26  O   UNL     1       0.002  -0.004   0.002  0.00  0.00    -0.464 OA
ENDBRANCH  23  26
ENDBRANCH  17  23
ENDBRANCH   1  20
TORSDOF 3
