REMARK  Name = ZINC36480869
REMARK  12 active torsions:
REMARK  status: ('A' for Active; 'I' for Inactive)
REMARK    1  A    between atoms: C_1  and  C_2
REMARK    2  A    between atoms: C_2  and  C_3
REMARK    3  A    between atoms: C_2  and  C_4
REMARK    4  A    between atoms: C_4  and  C_5
REMARK    5  A    between atoms: N_7  and  C_8
REMARK    6  A    between atoms: N_7  and  C_15
REMARK    7  A    between atoms: C_15  and  C_17
REMARK    8  A    between atoms: C_15  and  C_26
REMARK    9  A    between atoms: C_18  and  O_25
REMARK   10  A    between atoms: C_20  and  O_24
REMARK   11  A    between atoms: C_22  and  O_23
REMARK   12  A    between atoms: N_28  and  C_29
REMARK                            x       y       z     vdW  Elec       q    Type
REMARK                         _______ _______ _______ _____ _____    ______ ____
ROOT
ATOM      1  C   UNL     1      -2.346  -4.173  -0.175  0.00  0.00    +0.204 C 
ENDROOT
BRANCH   1   2
ATOM      2  C   UNL     1      -2.749  -4.804   1.133  0.00  0.00    +0.065 A 
ATOM      3  C   UNL     1      -3.964  -4.476   1.716  0.00  0.00    +0.129 A 
ATOM      4  C   UNL     1      -4.335  -5.057   2.920  0.00  0.00    +0.091 A 
ATOM      5  C   UNL     1      -3.491  -5.967   3.539  0.00  0.00    +0.124 A 
ATOM      6  C   UNL     1      -2.278  -6.297   2.955  0.00  0.00    +0.091 A 
ATOM      7  C   UNL     1      -1.909  -5.719   1.749  0.00  0.00    +0.129 A 
BRANCH   7   8
ATOM      8  O   UNL     1      -0.721  -6.045   1.175  0.00  0.00    -0.506 OA
ATOM      9  H   UNL     1       0.016  -5.482   1.447  0.00  0.00    +0.292 HD
ENDBRANCH   7   8
BRANCH   5  10
ATOM     10  O   UNL     1      -3.855  -6.536   4.718  0.00  0.00    -0.507 OA
ATOM     11  H   UNL     1      -4.350  -7.361   4.621  0.00  0.00    +0.292 HD
ENDBRANCH   5  10
BRANCH   3  12
ATOM     12  O   UNL     1      -4.790  -3.583   1.110  0.00  0.00    -0.506 OA
ATOM     13  H   UNL     1      -5.469  -3.991   0.555  0.00  0.00    +0.292 HD
ENDBRANCH   3  12
ENDBRANCH   1   2
BRANCH   1  14
ATOM     14  C   UNL     1      -3.346  -4.542  -1.240  0.00  0.00    +0.239 C 
ATOM     15  O   UNL     1      -3.967  -3.674  -1.816  0.00  0.00    -0.273 OA
ATOM     16  N   UNL     1      -3.550  -5.837  -1.554  0.00  0.00    -0.311 N 
ATOM     17  H   UNL     1      -3.053  -6.531  -1.093  0.00  0.00    +0.149 HD
BRANCH  16  18
ATOM     18  C   UNL     1      -4.522  -6.196  -2.589  0.00  0.00    +0.073 C 
ATOM     19  C   UNL     1      -5.919  -6.277  -1.971  0.00  0.00    +0.022 C 
ATOM     20  C   UNL     1      -6.934  -6.652  -3.053  0.00  0.00    +0.002 C 
ATOM     21  C   UNL     1      -6.562  -8.009  -3.653  0.00  0.00    +0.000 C 
ATOM     22  C   UNL     1      -5.165  -7.928  -4.271  0.00  0.00    +0.002 C 
ATOM     23  C   UNL     1      -4.150  -7.553  -3.190  0.00  0.00    +0.022 C 
ENDBRANCH  16  18
ENDBRANCH   1  14
BRANCH   1  26
ATOM     24  C   UNL     1      -1.928  -1.940  -1.056  0.00  0.00    +0.221 C 
ATOM     25  O   UNL     1      -1.696  -2.440  -2.137  0.00  0.00    -0.275 OA
ATOM     26  N   UNL     1      -2.310  -2.716  -0.023  0.00  0.00    -0.255 N 
BRANCH  26  27
ATOM     27  C   UNL     1      -2.672  -2.131   1.195  0.00  0.00    +0.039 A 
ATOM     28  C   UNL     1      -3.778  -1.292   1.263  0.00  0.00    +0.023 A 
ATOM     29  C   UNL     1      -4.134  -0.716   2.466  0.00  0.00    +0.003 A 
ATOM     30  C   UNL     1      -3.391  -0.972   3.604  0.00  0.00    +0.020 A 
ATOM     31  C   UNL     1      -2.289  -1.807   3.541  0.00  0.00    +0.043 A 
ATOM     32  C   UNL     1      -1.931  -2.391   2.340  0.00  0.00    +0.043 A 
ATOM     33 CL   UNL     1      -1.359  -2.126   4.971  0.00  0.00    -0.083 Cl
ENDBRANCH  26  27
BRANCH  24  34
ATOM     34  C   UNL     1      -1.788  -0.451  -0.869  0.00  0.00    +0.099 C 
BRANCH  34  36
ATOM     35  C   UNL     1      -1.168   1.692  -1.994  0.00  0.00    +0.008 C 
ATOM     36  C   UNL     1      -1.194   0.168  -2.136  0.00  0.00    -0.008 C 
ATOM     37  C   UNL     1       0.231  -0.350  -2.337  0.00  0.00    +0.008 C 
ENDBRANCH  34  36
ENDBRANCH  24  34
ENDBRANCH   1  26
TORSDOF 10
