REMARK  Name = ZINC47856882
REMARK  9 active torsions:
REMARK  status: ('A' for Active; 'I' for Inactive)
REMARK    1  A    between atoms: C_1  and  C_2
REMARK    2  A    between atoms: C_2  and  S_3
REMARK    3  A    between atoms: S_3  and  C_4
REMARK    4  A    between atoms: C_9  and  N_10
REMARK    5  A    between atoms: N_13  and  C_14
REMARK    6  A    between atoms: C_14  and  C_16
REMARK    7  A    between atoms: C_14  and  C_17
REMARK    8  A    between atoms: C_21  and  S_23
REMARK    9  A    between atoms: S_23  and  N_26
REMARK                            x       y       z     vdW  Elec       q    Type
REMARK                         _______ _______ _______ _____ _____    ______ ____
ROOT
ATOM      1  N   UNL     1       2.047  -2.588   3.393  0.00  0.00    -0.268 N 
ATOM      2  C   UNL     1       2.525  -3.369   4.382  0.00  0.00    +0.304 C 
ATOM      3  O   UNL     1       2.483  -4.579   4.276  0.00  0.00    -0.252 OA
ATOM      4  N   UNL     1       3.051  -2.808   5.489  0.00  0.00    -0.293 N 
ATOM      5  H   UNL     1       2.139  -1.624   3.449  0.00  0.00    +0.156 HD
ATOM      6  H   UNL     1       3.085  -1.842   5.574  0.00  0.00    +0.151 HD
ENDROOT
BRANCH   1  12
ATOM      7  C   UNL     1       0.343  -2.520   1.671  0.00  0.00    +0.029 A 
ATOM      8  C   UNL     1      -0.274  -3.098   0.571  0.00  0.00    +0.016 A 
ATOM      9  C   UNL     1       0.171  -4.315   0.089  0.00  0.00    +0.001 A 
ATOM     10  C   UNL     1       1.230  -4.960   0.701  0.00  0.00    +0.002 A 
ATOM     11  C   UNL     1       1.850  -4.392   1.799  0.00  0.00    +0.024 A 
ATOM     12  C   UNL     1       1.415  -3.169   2.285  0.00  0.00    +0.048 A 
BRANCH   7  13
ATOM     13  S   UNL     1      -0.221  -0.969   2.287  0.00  0.00    -0.124 S 
BRANCH  13  15
ATOM     14  C   UNL     1      -2.188   0.810   1.617  0.00  0.00    +0.015 C 
ATOM     15  C   UNL     1      -1.598  -0.535   1.189  0.00  0.00    +0.071 C 
ENDBRANCH  13  15
ENDBRANCH   7  13
ENDBRANCH   1  12
BRANCH   4  16
ATOM     16  C   UNL     1       3.571  -3.657   6.564  0.00  0.00    +0.102 C 
ATOM     17  C   UNL     1       2.425  -4.064   7.492  0.00  0.00    +0.033 C 
BRANCH  16  18
ATOM     18  C   UNL     1       4.608  -2.895   7.349  0.00  0.00    -0.026 A 
ATOM     19  C   UNL     1       4.409  -1.558   7.641  0.00  0.00    +0.005 A 
ATOM     20  C   UNL     1       5.359  -0.859   8.361  0.00  0.00    +0.002 A 
ATOM     21  C   UNL     1       6.508  -1.497   8.790  0.00  0.00    +0.028 A 
ATOM     22  C   UNL     1       6.707  -2.833   8.499  0.00  0.00    +0.105 A 
ATOM     23  C   UNL     1       5.754  -3.533   7.782  0.00  0.00    +0.034 A 
BRANCH  22  24
ATOM     24  S   UNL     1       8.172  -3.646   9.044  0.00  0.00    +0.056 S 
ATOM     25  O   UNL     1       8.371  -4.752   8.175  0.00  0.00    -0.153 OA
ATOM     26  O   UNL     1       9.153  -2.634   9.227  0.00  0.00    -0.153 OA
BRANCH  24  27
ATOM     27  N   UNL     1       7.855  -4.273  10.544  0.00  0.00    -0.204 NA
ATOM     28  H   UNL     1       8.306  -5.079  10.838  0.00  0.00    +0.144 HD
ATOM     29  H   UNL     1       7.217  -3.833  11.128  0.00  0.00    +0.144 HD
ENDBRANCH  24  27
ENDBRANCH  22  24
ENDBRANCH  16  18
ENDBRANCH   4  16
TORSDOF 7
