REMARK  Name = ZINC40459685
REMARK  10 active torsions:
REMARK  status: ('A' for Active; 'I' for Inactive)
REMARK    1  A    between atoms: C_1  and  C_2
REMARK    2  A    between atoms: C_2  and  C_4
REMARK    3  A    between atoms: C_2  and  N_8
REMARK    4  A    between atoms: C_4  and  C_5
REMARK    5  A    between atoms: C_5  and  C_6
REMARK    6  A    between atoms: C_5  and  C_7
REMARK    7  A    between atoms: C_9  and  C_11
REMARK    8  A    between atoms: C_11  and  C_13
REMARK    9  A    between atoms: C_11  and  N_24
REMARK   10  A    between atoms: C_13  and  C_14
REMARK                            x       y       z     vdW  Elec       q    Type
REMARK                         _______ _______ _______ _____ _____    ______ ____
ROOT
ATOM      1  C   UNL     1       0.712  -1.094  -3.598  0.00  0.00    +0.017 C 
ENDROOT
BRANCH   1   3
ATOM      2  N   UNL     1       0.688  -0.476  -1.203  0.00  0.00    -0.314 N 
ATOM      3  C   UNL     1       0.006  -0.608  -2.358  0.00  0.00    +0.199 C 
ATOM      4  O   UNL     1      -1.175  -0.336  -2.400  0.00  0.00    -0.278 OA
ATOM      5  H   UNL     1       1.632  -0.695  -1.170  0.00  0.00    +0.149 HD
BRANCH   2   7
ATOM      6  C   UNL     1      -0.019   1.526   0.010  0.00  0.00    +0.028 C 
ATOM      7  C   UNL     1       0.002  -0.004   0.002  0.00  0.00    +0.070 C 
BRANCH   7   8
ATOM      8  C   UNL     1       0.742  -0.511   1.242  0.00  0.00    +0.025 C 
BRANCH   8   9
ATOM      9  C   UNL     1       0.655  -2.037   1.299  0.00  0.00    -0.015 C 
ATOM     10  C   UNL     1       1.499  -2.553   2.467  0.00  0.00    +0.007 C 
ATOM     11  C   UNL     1      -0.802  -2.458   1.497  0.00  0.00    +0.007 C 
ENDBRANCH   8   9
ENDBRANCH   7   8
ENDBRANCH   2   7
ENDBRANCH   1   3
BRANCH   1  12
ATOM     12  N   UNL     1      -0.278  -1.603  -4.557  0.00  0.00    +0.386 N 
ATOM     13  H   UNL     1      -0.920  -0.865  -4.803  0.00  0.00    -0.089 HD
ATOM     14  H   UNL     1       0.194  -1.929  -5.387  0.00  0.00    -0.089 HD
ATOM     15  H   UNL     1      -0.789  -2.367  -4.139  0.00  0.00    -0.089 HD
ENDBRANCH   1  12
BRANCH   1  16
ATOM     16  C   UNL     1       1.486   0.064  -4.232  0.00  0.00    +0.030 C 
BRANCH  16  17
ATOM     17  C   UNL     1       2.289  -0.448  -5.400  0.00  0.00    -0.023 A 
ATOM     18  C   UNL     1       3.574  -0.834  -5.377  0.00  0.00    +0.087 A 
ATOM     19  N   UNL     1       3.962  -1.238  -6.625  0.00  0.00    -0.360 N 
ATOM     20  H   UNL     1       4.848  -1.560  -6.857  0.00  0.00    +0.165 HD
ATOM     21  C   UNL     1       2.909  -1.119  -7.504  0.00  0.00    +0.047 A 
ATOM     22  C   UNL     1       1.813  -0.625  -6.774  0.00  0.00    +0.003 A 
ATOM     23  C   UNL     1       0.591  -0.408  -7.413  0.00  0.00    +0.010 A 
ATOM     24  C   UNL     1       0.465  -0.680  -8.746  0.00  0.00    +0.001 A 
ATOM     25  C   UNL     1       1.542  -1.171  -9.470  0.00  0.00    +0.002 A 
ATOM     26  C   UNL     1       2.760  -1.384  -8.861  0.00  0.00    +0.026 A 
ENDBRANCH  16  17
ENDBRANCH   1  16
TORSDOF 7
