REMARK  Name = ZINC09327478
REMARK  7 active torsions:
REMARK  status: ('A' for Active; 'I' for Inactive)
REMARK    1  A    between atoms: C_1  and  C_2
REMARK    2  A    between atoms: C_9  and  C_33
REMARK    3  A    between atoms: C_9  and  C_34
REMARK    4  A    between atoms: N_13  and  C_14
REMARK    5  A    between atoms: C_17  and  S_20
REMARK    6  A    between atoms: S_20  and  N_23
REMARK    7  A    between atoms: C_28  and  C_30
REMARK                            x       y       z     vdW  Elec       q    Type
REMARK                         _______ _______ _______ _____ _____    ______ ____
ROOT
ATOM      1  C   UNL     1      -6.289   0.878  -1.295  0.00  0.00    +0.044 C 
ATOM      2  C   UNL     1      -5.119   1.655  -0.748  0.00  0.00    -0.049 A 
ATOM      3  C   UNL     1      -5.024   3.013  -0.996  0.00  0.00    +0.004 A 
ATOM      4  C   UNL     1      -3.948   3.735  -0.507  0.00  0.00    +0.011 A 
ATOM      5  C   UNL     1      -2.970   3.080   0.223  0.00  0.00    +0.006 A 
ATOM      6  C   UNL     1      -3.074   1.715   0.497  0.00  0.00    +0.036 A 
ATOM      7  C   UNL     1      -4.152   1.002  -0.004  0.00  0.00    +0.027 A 
ATOM      8  N   UNL     1      -2.108   1.081   1.290  0.00  0.00    -0.334 N 
ATOM      9  C   UNL     1      -0.727   1.580   1.267  0.00  0.00    +0.059 C 
ATOM     10  C   UNL     1      -0.753   3.092   1.268  0.00  0.00    +0.030 A 
ATOM     11  C   UNL     1      -1.779   3.845   0.760  0.00  0.00    +0.029 A 
ATOM     12  C   UNL     1      -1.836   5.268   0.711  0.00  0.00    +0.117 A 
ATOM     13  N   UNL     1      -2.827   5.985   0.191  0.00  0.00    -0.240 NA
ATOM     14  S   UNL     1      -0.356   5.930   1.463  0.00  0.00    -0.032 S 
ATOM     15  S   UNL     1       0.515   4.083   1.915  0.00  0.00    -0.052 S 
ATOM     16  C   UNL     1      -0.023   1.080   0.004  0.00  0.00    +0.037 C 
ATOM     17  C   UNL     1       0.020   1.078   2.504  0.00  0.00    +0.037 C 
ATOM     18  H   UNL     1      -2.348   0.325   1.848  0.00  0.00    +0.147 HD
ENDROOT
BRANCH  13  19
ATOM     19  C   UNL     1      -2.815   7.345   0.301  0.00  0.00    +0.065 A 
ATOM     20  C   UNL     1      -3.332   7.962   1.444  0.00  0.00    +0.030 A 
ATOM     21  C   UNL     1      -3.313   9.337   1.549  0.00  0.00    +0.031 A 
ATOM     22  C   UNL     1      -2.793  10.106   0.523  0.00  0.00    +0.109 A 
ATOM     23  C   UNL     1      -2.283   9.503  -0.614  0.00  0.00    +0.031 A 
ATOM     24  C   UNL     1      -2.291   8.129  -0.732  0.00  0.00    +0.030 A 
BRANCH  22  25
ATOM     25  S   UNL     1      -2.779  11.862   0.664  0.00  0.00    +0.075 S 
ATOM     26  O   UNL     1      -2.812  12.158   2.053  0.00  0.00    -0.150 OA
ATOM     27  O   UNL     1      -1.745  12.330  -0.191  0.00  0.00    -0.150 OA
BRANCH  25  28
ATOM     28  N   UNL     1      -4.205  12.415   0.028  0.00  0.00    -0.184 N 
ATOM     29  C   UNL     1      -5.405  12.095   0.639  0.00  0.00    +0.235 A 
ATOM     30  N   UNL     1      -5.436  11.116   1.531  0.00  0.00    -0.222 NA
ATOM     31  C   UNL     1      -6.566  10.789   2.136  0.00  0.00    +0.116 A 
ATOM     32  C   UNL     1      -7.727  11.476   1.819  0.00  0.00    +0.043 A 
ATOM     33  C   UNL     1      -7.660  12.491   0.878  0.00  0.00    +0.043 A 
ATOM     34  N   UNL     1      -6.497  12.772   0.313  0.00  0.00    -0.219 NA
ATOM     35  C   UNL     1      -8.896  13.265   0.502  0.00  0.00    +0.066 C 
ATOM     36  H   UNL     1      -4.199  12.964  -0.772  0.00  0.00    +0.177 HD
ENDBRANCH  25  28
ENDBRANCH  22  25
ENDBRANCH  13  19
TORSDOF 3
