REMARK  Name = ZINC44144529
REMARK  12 active torsions:
REMARK  status: ('A' for Active; 'I' for Inactive)
REMARK    1  A    between atoms: C_1  and  C_2
REMARK    2  A    between atoms: C_3  and  C_35
REMARK    3  A    between atoms: C_5  and  C_21
REMARK    4  A    between atoms: N_6  and  C_7
REMARK    5  A    between atoms: C_7  and  C_9
REMARK    6  A    between atoms: C_7  and  C_10
REMARK    7  A    between atoms: N_12  and  C_13
REMARK    8  A    between atoms: C_13  and  C_14
REMARK    9  A    between atoms: C_27  and  C_33
REMARK   10  A    between atoms: C_27  and  C_34
REMARK   11  A    between atoms: C_30  and  C_31
REMARK   12  A    between atoms: C_30  and  C_32
REMARK                            x       y       z     vdW  Elec       q    Type
REMARK                         _______ _______ _______ _____ _____    ______ ____
ROOT
ATOM      1  C   UNL     1       0.177   1.496   0.081  0.00  0.00    +0.064 C 
ATOM      2  C   UNL     1       0.088  -0.007   0.033  0.00  0.00    +0.029 A 
ATOM      3  C   UNL     1      -0.003  -0.775  -1.108  0.00  0.00    +0.058 A 
ATOM      4  C   UNL     1      -0.065  -2.130  -0.692  0.00  0.00    +0.041 A 
ATOM      5  C   UNL     1      -0.010  -2.132   0.665  0.00  0.00    +0.051 A 
ATOM      6  N   UNL     1       0.089  -0.833   1.098  0.00  0.00    -0.332 N 
ENDROOT
BRANCH   5   7
ATOM      7  C   UNL     1      -0.045  -3.332   1.530  0.00  0.00    -0.001 A 
ATOM      8  C   UNL     1      -0.583  -3.256   2.815  0.00  0.00    +0.010 A 
ATOM      9  C   UNL     1      -0.606  -4.380   3.610  0.00  0.00    +0.005 A 
ATOM     10  C   UNL     1      -0.101  -5.590   3.145  0.00  0.00    -0.038 A 
ATOM     11  C   UNL     1       0.427  -5.672   1.875  0.00  0.00    -0.037 A 
ATOM     12  C   UNL     1       0.454  -4.546   1.066  0.00  0.00    +0.014 A 
ATOM     13  C   UNL     1       0.975  -6.954   1.306  0.00  0.00    -0.010 C 
ATOM     14  C   UNL     1       1.264  -7.957   2.421  0.00  0.00    +0.012 C 
ATOM     15  C   UNL     1       0.014  -8.077   3.300  0.00  0.00    +0.012 C 
ATOM     16  C   UNL     1      -0.155  -6.773   4.077  0.00  0.00    -0.010 C 
ATOM     17  C   UNL     1       0.966  -6.652   5.111  0.00  0.00    +0.016 C 
ATOM     18  C   UNL     1      -1.505  -6.786   4.797  0.00  0.00    +0.016 C 
ATOM     19  C   UNL     1       2.269  -6.657   0.546  0.00  0.00    +0.016 C 
ATOM     20  C   UNL     1      -0.049  -7.556   0.340  0.00  0.00    +0.016 C 
ENDBRANCH   5   7
BRANCH   3  21
ATOM     21  C   UNL     1      -0.031  -0.283  -2.497  0.00  0.00    +0.243 C 
ATOM     22  O   UNL     1       0.028   0.912  -2.720  0.00  0.00    -0.270 OA
ATOM     23  N   UNL     1      -0.123  -1.155  -3.519  0.00  0.00    -0.325 N 
ATOM     24  H   UNL     1      -0.171  -2.108  -3.342  0.00  0.00    +0.145 HD
ATOM     25  H   UNL     1      -0.142  -0.831  -4.433  0.00  0.00    +0.145 HD
ENDBRANCH   3  21
BRANCH   6  26
ATOM     26  C   UNL     1       0.178  -0.410   2.498  0.00  0.00    +0.170 C 
ATOM     27  C   UNL     1       1.401   0.491   2.682  0.00  0.00    +0.041 C 
BRANCH  26  28
ATOM     28  C   UNL     1      -1.068   0.350   2.873  0.00  0.00    +0.236 C 
ATOM     29  O   UNL     1      -1.943   0.523   2.052  0.00  0.00    -0.274 OA
ATOM     30  N   UNL     1      -1.208   0.840   4.121  0.00  0.00    -0.309 N 
ATOM     31  H   UNL     1      -0.508   0.702   4.778  0.00  0.00    +0.149 HD
BRANCH  30  32
ATOM     32  C   UNL     1      -2.419   1.579   4.486  0.00  0.00    +0.142 C 
BRANCH  32  33
ATOM     33  C   UNL     1      -2.328   2.014   5.926  0.00  0.00    +0.005 A 
ATOM     34  C   UNL     1      -2.981   1.294   6.908  0.00  0.00    +0.008 A 
ATOM     35  C   UNL     1      -2.898   1.692   8.229  0.00  0.00    +0.000 A 
ATOM     36  C   UNL     1      -2.160   2.811   8.570  0.00  0.00    +0.003 A 
ATOM     37  C   UNL     1      -1.506   3.532   7.589  0.00  0.00    +0.038 A 
ATOM     38  C   UNL     1      -1.585   3.131   6.266  0.00  0.00    +0.128 A 
ATOM     39  F   UNL     1      -0.942   3.833   5.308  0.00  0.00    -0.205 F 
ENDBRANCH  32  33
ENDBRANCH  30  32
ENDBRANCH  26  28
ENDBRANCH   6  26
TORSDOF 6
