REMARK  Name = ZINC16932504
REMARK  8 active torsions:
REMARK  status: ('A' for Active; 'I' for Inactive)
REMARK    1  A    between atoms: C_1  and  C_2
REMARK    2  A    between atoms: C_5  and  N_9
REMARK    3  A    between atoms: C_6  and  O_8
REMARK    4  A    between atoms: N_11  and  C_25
REMARK    5  A    between atoms: C_15  and  C_16
REMARK    6  A    between atoms: C_19  and  O_23
REMARK    7  A    between atoms: C_20  and  O_22
REMARK    8  A    between atoms: C_25  and  C_26
REMARK                            x       y       z     vdW  Elec       q    Type
REMARK                         _______ _______ _______ _____ _____    ______ ____
ROOT
ATOM      1  N   UNL     1      -2.423   3.354  -1.888  0.00  0.00    -0.222 NA
ATOM      2  C   UNL     1      -1.322   2.692  -1.619  0.00  0.00    +0.169 C 
ATOM      3  N   UNL     1      -1.188   1.389  -1.187  0.00  0.00    -0.242 N 
ATOM      4  C   UNL     1       0.008   0.875  -0.957  0.00  0.00    +0.259 C 
ATOM      5  O   UNL     1       0.144  -0.271  -0.570  0.00  0.00    -0.269 OA
ATOM      6  C   UNL     1       1.171   1.751  -1.197  0.00  0.00    +0.078 C 
ATOM      7  C   UNL     1       2.494   1.486  -1.049  0.00  0.00    +0.028 C 
ATOM      8  S   UNL     1       0.369   3.256  -1.732  0.00  0.00    -0.049 S 
ENDROOT
BRANCH   1  13
ATOM      9  C   UNL     1      -2.165   8.839  -3.217  0.00  0.00    +0.044 C 
ATOM     10  C   UNL     1      -2.236   7.375  -2.864  0.00  0.00    -0.047 A 
ATOM     11  C   UNL     1      -1.512   6.891  -1.789  0.00  0.00    +0.005 A 
ATOM     12  C   UNL     1      -1.574   5.553  -1.455  0.00  0.00    +0.032 A 
ATOM     13  C   UNL     1      -2.361   4.684  -2.211  0.00  0.00    +0.108 A 
ATOM     14  C   UNL     1      -3.092   5.178  -3.299  0.00  0.00    +0.142 A 
ATOM     15  C   UNL     1      -3.023   6.523  -3.617  0.00  0.00    +0.051 A 
BRANCH  14  16
ATOM     16  O   UNL     1      -3.866   4.341  -4.039  0.00  0.00    -0.505 OA
ATOM     17  H   UNL     1      -4.775   4.259  -3.720  0.00  0.00    +0.292 HD
ENDBRANCH  14  16
ENDBRANCH   1  13
BRANCH   7  18
ATOM     18  C   UNL     1       3.494   2.429  -1.566  0.00  0.00    -0.020 A 
ATOM     19  C   UNL     1       4.847   2.261  -1.249  0.00  0.00    +0.012 A 
ATOM     20  C   UNL     1       5.783   3.147  -1.736  0.00  0.00    +0.050 A 
ATOM     21  C   UNL     1       5.388   4.207  -2.542  0.00  0.00    +0.158 A 
ATOM     22  C   UNL     1       4.042   4.381  -2.862  0.00  0.00    +0.159 A 
ATOM     23  C   UNL     1       3.097   3.495  -2.383  0.00  0.00    +0.057 A 
BRANCH  22  24
ATOM     24  O   UNL     1       3.660   5.420  -3.652  0.00  0.00    -0.503 OA
ATOM     25  H   UNL     1       3.655   5.215  -4.597  0.00  0.00    +0.292 HD
ENDBRANCH  22  24
BRANCH  21  26
ATOM     26  O   UNL     1       6.316   5.077  -3.019  0.00  0.00    -0.503 OA
ATOM     27  H   UNL     1       6.690   4.824  -3.874  0.00  0.00    +0.292 HD
ENDBRANCH  21  26
ENDBRANCH   7  18
BRANCH   3  28
ATOM     28  C   UNL     1      -2.384   0.570  -0.974  0.00  0.00    +0.142 C 
BRANCH  28  29
ATOM     29  C   UNL     1      -2.861   0.735   0.446  0.00  0.00    -0.015 C 
ATOM     30  C   UNL     1      -4.094   1.109   0.683  0.00  0.00    +0.005 C 
ENDBRANCH  28  29
ENDBRANCH   3  28
TORSDOF 7
