REMARK  Name = ZINC06321258
REMARK  8 active torsions:
REMARK  status: ('A' for Active; 'I' for Inactive)
REMARK    1  A    between atoms: C_1  and  C_2
REMARK    2  A    between atoms: C_6  and  C_15
REMARK    3  A    between atoms: C_13  and  C_14
REMARK    4  A    between atoms: C_15  and  C_17
REMARK    5  A    between atoms: C_15  and  N_76
REMARK    6  A    between atoms: N_21  and  C_22
REMARK    7  A    between atoms: C_30  and  C_33
REMARK    8  A    between atoms: C_33  and  C_34
REMARK                            x       y       z     vdW  Elec       q    Type
REMARK                         _______ _______ _______ _____ _____    ______ ____
ROOT
ATOM      1  C   UNL     1       3.645   2.281  -0.018  0.00  0.00    +0.039 C 
ENDROOT
BRANCH   1   7
ATOM      2  C   UNL     1      -2.700   0.768   3.596  0.00  0.00    +0.044 C 
ATOM      3  C   UNL     1      -1.795   0.599   2.403  0.00  0.00    -0.047 A 
ATOM      4  C   UNL     1      -0.595   1.252   2.365  0.00  0.00    +0.013 A 
ATOM      5  C   UNL     1       0.245   1.096   1.259  0.00  0.00    -0.001 A 
ATOM      6  C   UNL     1       1.537   1.780   1.186  0.00  0.00    +0.017 A 
ATOM      7  C   UNL     1       2.310   1.591   0.088  0.00  0.00    +0.011 A 
ATOM      8  C   UNL     1       1.869   0.749  -0.955  0.00  0.00    +0.251 A 
ATOM      9  O   UNL     1       2.579   0.591  -1.933  0.00  0.00    -0.268 OA
ATOM     10  N   UNL     1       0.684   0.116  -0.897  0.00  0.00    -0.322 N 
ATOM     11  H   UNL     1       0.412  -0.459  -1.631  0.00  0.00    +0.169 HD
ATOM     12  C   UNL     1      -0.149   0.267   0.191  0.00  0.00    +0.049 A 
ATOM     13  C   UNL     1      -1.374  -0.388   0.251  0.00  0.00    +0.030 A 
ATOM     14  C   UNL     1      -2.187  -0.218   1.352  0.00  0.00    -0.046 A 
ATOM     15  C   UNL     1      -3.514  -0.929   1.415  0.00  0.00    +0.044 C 
ENDBRANCH   1   7
BRANCH   1  21
ATOM     16  C   UNL     1       2.510   4.048  -1.222  0.00  0.00    -0.077 C 
ATOM     17  C   UNL     1       2.478   4.818  -2.545  0.00  0.00    -0.015 C 
ATOM     18  C   UNL     1       3.781   5.607  -2.702  0.00  0.00    -0.010 C 
ATOM     19  C   UNL     1       4.965   4.639  -2.641  0.00  0.00    -0.015 C 
ATOM     20  C   UNL     1       4.925   3.875  -1.316  0.00  0.00    -0.077 C 
ATOM     21  N   UNL     1       3.658   3.117  -1.237  0.00  0.00    +0.389 N 
ATOM     22  H   UNL     1       3.583   2.508  -2.060  0.00  0.00    -0.080 HD
BRANCH  18  23
ATOM     23  C   UNL     1       3.780   6.331  -4.050  0.00  0.00    +0.038 C 
BRANCH  23  24
ATOM     24  C   UNL     1       2.689   7.370  -4.063  0.00  0.00    -0.047 A 
ATOM     25  C   UNL     1       1.424   7.038  -4.508  0.00  0.00    +0.003 A 
ATOM     26  C   UNL     1       0.421   7.990  -4.516  0.00  0.00    +0.000 A 
ATOM     27  C   UNL     1       0.688   9.277  -4.086  0.00  0.00    +0.000 A 
ATOM     28  C   UNL     1       1.954   9.610  -3.645  0.00  0.00    +0.000 A 
ATOM     29  C   UNL     1       2.955   8.657  -3.634  0.00  0.00    +0.003 A 
ENDBRANCH  23  24
ENDBRANCH  18  23
ENDBRANCH   1  21
BRANCH   1  30
ATOM     30  C   UNL     1       3.873   3.128   1.207  0.00  0.00    +0.143 A 
ATOM     31  N   UNL     1       3.304   4.277   1.481  0.00  0.00    -0.115 NA
ATOM     32  N   UNL     1       3.757   4.684   2.617  0.00  0.00    -0.023 NA
ATOM     33  N   UNL     1       4.599   3.824   3.074  0.00  0.00    -0.044 NA
ATOM     34  N   UNL     1       4.694   2.848   2.236  0.00  0.00    -0.227 N 
BRANCH  34  35
ATOM     35  C   UNL     1       5.538   1.659   2.377  0.00  0.00    +0.111 C 
ATOM     36  C   UNL     1       5.140   0.897   3.643  0.00  0.00    +0.027 C 
ATOM     37  C   UNL     1       6.023  -0.344   3.789  0.00  0.00    +0.002 C 
ATOM     38  C   UNL     1       7.489   0.081   3.890  0.00  0.00    +0.000 C 
ATOM     39  C   UNL     1       7.887   0.843   2.625  0.00  0.00    +0.002 C 
ATOM     40  C   UNL     1       7.005   2.084   2.478  0.00  0.00    +0.027 C 
ENDBRANCH  34  35
ENDBRANCH   1  30
TORSDOF 6
