REMARK  Name = ZINC41147576
REMARK  2 active torsions:
REMARK  status: ('A' for Active; 'I' for Inactive)
REMARK    1  A    between atoms: C_1  and  C_2
REMARK    2  A    between atoms: C_2  and  N_3
REMARK                            x       y       z     vdW  Elec       q    Type
REMARK                         _______ _______ _______ _____ _____    ______ ____
ROOT
ATOM      1  N   UNL     1      -1.356  -0.489  -0.025  0.00  0.00    -0.329 N 
ATOM      2  C   UNL     1      -1.589  -1.848  -0.013  0.00  0.00    +0.131 A 
ATOM      3  C   UNL     1      -2.912  -2.358   0.009  0.00  0.00    +0.038 A 
ATOM      4  C   UNL     1      -4.030  -1.518   0.017  0.00  0.00    +0.013 A 
ATOM      5  C   UNL     1      -5.280  -2.064   0.037  0.00  0.00    +0.001 A 
ATOM      6  C   UNL     1      -5.457  -3.445   0.050  0.00  0.00    +0.002 A 
ATOM      7  C   UNL     1      -4.388  -4.290   0.042  0.00  0.00    +0.026 A 
ATOM      8  C   UNL     1      -3.089  -3.763   0.020  0.00  0.00    +0.052 A 
ATOM      9  N   UNL     1      -2.004  -4.551   0.011  0.00  0.00    -0.327 N 
ATOM     10  C   UNL     1      -0.795  -4.023  -0.008  0.00  0.00    +0.198 A 
ATOM     11  N   UNL     1      -0.583  -2.710  -0.026  0.00  0.00    -0.201 NA
ATOM     12  N   UNL     1       0.298  -4.871  -0.017  0.00  0.00    -0.298 N 
ATOM     13  C   UNL     1       0.119  -6.324   0.111  0.00  0.00    +0.127 C 
ATOM     14  C   UNL     1       0.797  -7.008  -1.082  0.00  0.00    +0.125 C 
ATOM     15  N   UNL     1       2.159  -6.472  -1.219  0.00  0.00    -0.314 N 
ATOM     16  C   UNL     1       2.338  -5.019  -1.347  0.00  0.00    +0.125 C 
ATOM     17  C   UNL     1       1.659  -4.335  -0.159  0.00  0.00    +0.127 C 
ATOM     18  C   UNL     1       3.257  -7.323  -1.227  0.00  0.00    +0.099 A 
ATOM     19  C   UNL     1       3.061  -8.701  -1.243  0.00  0.00    +0.042 A 
ATOM     20  C   UNL     1       4.163  -9.537  -1.251  0.00  0.00    +0.005 A 
ATOM     21  C   UNL     1       5.429  -8.965  -1.243  0.00  0.00    +0.018 A 
ATOM     22  C   UNL     1       5.550  -7.590  -1.227  0.00  0.00    +0.084 A 
ATOM     23  N   UNL     1       4.480  -6.817  -1.225  0.00  0.00    -0.350 N 
ATOM     24  H   UNL     1      -2.102   0.131  -0.015  0.00  0.00    +0.147 HD
ATOM     25  H   UNL     1      -2.109  -5.515   0.019  0.00  0.00    +0.169 HD
ATOM     26  H   UNL     1       4.593  -5.853  -1.218  0.00  0.00    +0.166 HD
ENDROOT
BRANCH   1  28
ATOM     27  C   UNL     1      -0.003   1.547  -0.061  0.00  0.00    +0.024 C 
ATOM     28  C   UNL     1       0.018   0.018  -0.052  0.00  0.00    +0.099 C 
ENDBRANCH   1  28
TORSDOF 1
