REMARK  Name = ZINC03304409
REMARK  10 active torsions:
REMARK  status: ('A' for Active; 'I' for Inactive)
REMARK    1  A    between atoms: C_1  and  C_2
REMARK    2  A    between atoms: C_2  and  O_3
REMARK    3  A    between atoms: O_3  and  C_4
REMARK    4  A    between atoms: C_4  and  C_6
REMARK    5  A    between atoms: C_7  and  C_15
REMARK    6  A    between atoms: C_15  and  S_16
REMARK    7  A    between atoms: S_16  and  C_17
REMARK    8  A    between atoms: C_20  and  C_23
REMARK    9  A    between atoms: N_21  and  N_22
REMARK   10  A    between atoms: C_23  and  C_24
REMARK                            x       y       z     vdW  Elec       q    Type
REMARK                         _______ _______ _______ _____ _____    ______ ____
ROOT
ATOM      1  C   UNL     1      -2.199   2.991   3.460  0.00  0.00    +0.209 A 
ATOM      2  N   UNL     1      -2.814   1.847   3.265  0.00  0.00    -0.121 NA
ATOM      3  N   UNL     1      -2.592   1.431   2.069  0.00  0.00    -0.132 NA
ATOM      4  C   UNL     1      -1.822   2.271   1.438  0.00  0.00    +0.155 A 
ATOM      5  N   UNL     1      -1.547   3.297   2.300  0.00  0.00    -0.228 N 
ENDROOT
BRANCH   5   6
ATOM      6  N   UNL     1      -0.779   4.400   2.052  0.00  0.00    -0.295 N 
ATOM      7  H   UNL     1      -1.338   5.153   1.679  0.00  0.00    +0.163 HD
ATOM      8  H   UNL     1      -0.286   4.692   2.882  0.00  0.00    +0.163 HD
ENDBRANCH   5   6
BRANCH   1   9
ATOM      9  S   UNL     1      -2.213   3.950   4.938  0.00  0.00    -0.080 S 
BRANCH   9  10
ATOM     10  C   UNL     1      -3.264   2.906   5.979  0.00  0.00    +0.117 C 
BRANCH  10  12
ATOM     11  C   UNL     1      -2.633   3.356   8.424  0.00  0.00    +0.217 A 
ATOM     12  C   UNL     1      -3.422   3.546   7.334  0.00  0.00    +0.023 A 
ATOM     13  C   UNL     1      -4.459   4.492   7.745  0.00  0.00    +0.025 A 
ATOM     14  C   UNL     1      -5.553   5.077   7.102  0.00  0.00    +0.012 A 
ATOM     15  C   UNL     1      -6.354   5.947   7.786  0.00  0.00    +0.001 A 
ATOM     16  C   UNL     1      -6.088   6.253   9.114  0.00  0.00    +0.004 A 
ATOM     17  C   UNL     1      -5.014   5.687   9.766  0.00  0.00    +0.047 A 
ATOM     18  C   UNL     1      -4.185   4.798   9.091  0.00  0.00    +0.136 A 
ATOM     19  O   UNL     1      -3.089   4.103   9.452  0.00  0.00    -0.448 OA
BRANCH  11  20
ATOM     20  C   UNL     1      -1.461   2.474   8.475  0.00  0.00    +0.375 C 
ATOM     21  O   UNL     1      -1.131   1.844   7.489  0.00  0.00    -0.241 OA
BRANCH  20  22
ATOM     22  O   UNL     1      -0.750   2.363   9.616  0.00  0.00    -0.459 OA
BRANCH  22  24
ATOM     23  C   UNL     1       1.074   1.478  10.966  0.00  0.00    +0.048 C 
ATOM     24  C   UNL     1       0.398   1.473   9.593  0.00  0.00    +0.229 C 
ENDBRANCH  22  24
ENDBRANCH  20  22
ENDBRANCH  11  20
ENDBRANCH  10  12
ENDBRANCH   9  10
ENDBRANCH   1   9
BRANCH   4  25
ATOM     25  C   UNL     1      -1.330   2.140   0.020  0.00  0.00    +0.113 C 
BRANCH  25  26
ATOM     26  C   UNL     1      -0.017   1.401   0.010  0.00  0.00    -0.032 A 
ATOM     27  C   UNL     1       1.157   2.090   0.002  0.00  0.00    +0.004 A 
ATOM     28  C   UNL     1       2.380   1.424  -0.012  0.00  0.00    +0.001 A 
ATOM     29  C   UNL     1       2.437   0.064  -0.020  0.00  0.00    +0.008 A 
ATOM     30  C   UNL     1       1.247  -0.682  -0.013  0.00  0.00    -0.018 A 
ATOM     31  C   UNL     1       0.002  -0.004   0.002  0.00  0.00    -0.014 A 
ATOM     32  C   UNL     1      -1.189  -0.750   0.008  0.00  0.00    +0.009 A 
ATOM     33  C   UNL     1      -1.131  -2.110  -0.001  0.00  0.00    +0.001 A 
ATOM     34  C   UNL     1       0.092  -2.777  -0.016  0.00  0.00    +0.001 A 
ATOM     35  C   UNL     1       1.266  -2.087  -0.022  0.00  0.00    +0.008 A 
ENDBRANCH  25  26
ENDBRANCH   4  25
TORSDOF 9
