REMARK  Name = ZINC37619407
REMARK  7 active torsions:
REMARK  status: ('A' for Active; 'I' for Inactive)
REMARK    1  A    between atoms: C_1  and  C_2
REMARK    2  A    between atoms: C_2  and  C_3
REMARK    3  A    between atoms: C_3  and  C_4
REMARK    4  A    between atoms: C_4  and  C_5
REMARK    5  A    between atoms: C_5  and  C_7
REMARK    6  A    between atoms: C_5  and  N_19
REMARK    7  A    between atoms: N_9  and  C_10
REMARK                            x       y       z     vdW  Elec       q    Type
REMARK                         _______ _______ _______ _____ _____    ______ ____
ROOT
ATOM      1  C   UNL     1      -3.733  -3.961   1.000  0.00  0.00    +0.203 C 
ATOM      2  O   UNL     1      -4.768  -4.529   0.722  0.00  0.00    -0.277 OA
ATOM      3  N   UNL     1      -2.640  -4.676   1.332  0.00  0.00    -0.284 N 
ATOM      4  H   UNL     1      -1.794  -4.227   1.485  0.00  0.00    +0.155 HD
ENDROOT
BRANCH   3   5
ATOM      5  C   UNL     1      -2.726  -6.070   1.458  0.00  0.00    +0.083 A 
ATOM      6  C   UNL     1      -2.582  -6.881   0.338  0.00  0.00    +0.148 A 
ATOM      7  C   UNL     1      -2.668  -8.255   0.465  0.00  0.00    +0.078 A 
ATOM      8  C   UNL     1      -2.897  -8.823   1.707  0.00  0.00    +0.127 A 
ATOM      9  C   UNL     1      -3.041  -8.018   2.823  0.00  0.00    +0.055 A 
ATOM     10  C   UNL     1      -2.950  -6.644   2.703  0.00  0.00    +0.045 A 
ATOM     11 BR   UNL     1      -3.138  -5.545   4.230  0.00  0.00    -0.048 Br
ATOM     12  F   UNL     1      -2.980 -10.166   1.829  0.00  0.00    -0.205 F 
ATOM     13  F   UNL     1      -2.360  -6.326  -0.874  0.00  0.00    -0.203 F 
ENDBRANCH   3   5
BRANCH   1  14
ATOM     14  C   UNL     1      -3.669  -2.456   0.974  0.00  0.00    +0.013 C 
BRANCH  14  15
ATOM     15  N   UNL     1      -5.029  -1.906   1.063  0.00  0.00    +0.386 N 
ATOM     16  H   UNL     1      -5.576  -2.233   0.281  0.00  0.00    -0.089 HD
ATOM     17  H   UNL     1      -5.458  -2.210   1.924  0.00  0.00    -0.089 HD
ATOM     18  H   UNL     1      -4.986  -0.898   1.045  0.00  0.00    -0.089 HD
ENDBRANCH  14  15
BRANCH  14  19
ATOM     19  C   UNL     1      -3.018  -1.996  -0.332  0.00  0.00    -0.007 C 
BRANCH  19  20
ATOM     20  C   UNL     1      -2.840  -0.476  -0.305  0.00  0.00    -0.001 C 
BRANCH  20  22
ATOM     21  C   UNL     1      -2.010   1.503  -1.585  0.00  0.00    +0.004 C 
ATOM     22  C   UNL     1      -2.188  -0.017  -1.611  0.00  0.00    -0.003 C 
ENDBRANCH  20  22
ENDBRANCH  19  20
ENDBRANCH  14  19
ENDBRANCH   1  14
TORSDOF 6
