REMARK  Name = ZINC14474264
REMARK  7 active torsions:
REMARK  status: ('A' for Active; 'I' for Inactive)
REMARK    1  A    between atoms: C_1  and  C_2
REMARK    2  A    between atoms: C_6  and  C_35
REMARK    3  A    between atoms: C_7  and  N_8
REMARK    4  A    between atoms: N_8  and  S_9
REMARK    5  A    between atoms: S_9  and  C_12
REMARK    6  A    between atoms: C_25  and  C_28
REMARK    7  A    between atoms: C_33  and  O_34
REMARK                            x       y       z     vdW  Elec       q    Type
REMARK                         _______ _______ _______ _____ _____    ______ ____
ROOT
ATOM      1  C   UNL     1       1.232   2.607   1.942  0.00  0.00    +0.109 A 
ATOM      2  C   UNL     1       1.698   2.015   3.102  0.00  0.00    +0.030 A 
ATOM      3  C   UNL     1       1.585   2.684   4.304  0.00  0.00    +0.025 A 
ATOM      4  C   UNL     1       1.006   3.947   4.345  0.00  0.00    +0.031 A 
ATOM      5  C   UNL     1       0.540   4.545   3.185  0.00  0.00    -0.018 A 
ATOM      6  C   UNL     1       0.663   3.863   1.981  0.00  0.00    +0.034 A 
ATOM      7  C   UNL     1      -0.084   5.904   3.179  0.00  0.00    +0.049 C 
ATOM      8  C   UNL     1      -1.583   5.822   3.017  0.00  0.00    -0.023 C 
ATOM      9  C   UNL     1      -2.169   6.754   3.729  0.00  0.00    -0.030 C 
ATOM     10  C   UNL     1      -1.136   7.590   4.460  0.00  0.00    +0.033 C 
ATOM     11  C   UNL     1       0.112   6.661   4.507  0.00  0.00    +0.029 C 
ATOM     12  C   UNL     1      -0.077   5.703   5.687  0.00  0.00    +0.108 C 
ATOM     13  N   UNL     1       0.894   4.610   5.572  0.00  0.00    -0.336 N 
ATOM     14  H   UNL     1       1.445   4.354   6.328  0.00  0.00    +0.147 HD
ENDROOT
BRANCH  12  15
ATOM     15  C   UNL     1       0.148   6.444   6.980  0.00  0.00    +0.014 A 
ATOM     16  C   UNL     1      -0.927   6.780   7.780  0.00  0.00    +0.009 A 
ATOM     17  C   UNL     1      -0.721   7.455   8.969  0.00  0.00    +0.001 A 
ATOM     18  C   UNL     1       0.560   7.806   9.354  0.00  0.00    +0.004 A 
ATOM     19  C   UNL     1       1.638   7.477   8.555  0.00  0.00    +0.046 A 
ATOM     20  C   UNL     1       1.434   6.795   7.364  0.00  0.00    +0.122 A 
BRANCH  20  21
ATOM     21  O   UNL     1       2.492   6.471   6.576  0.00  0.00    -0.506 OA
ATOM     22  H   UNL     1       2.716   7.146   5.921  0.00  0.00    +0.292 HD
ENDBRANCH  20  21
ENDBRANCH  12  15
BRANCH   1  23
ATOM     23  S   UNL     1       1.374   1.756   0.405  0.00  0.00    +0.072 S 
ATOM     24  O   UNL     1       2.367   0.756   0.585  0.00  0.00    -0.150 OA
ATOM     25  O   UNL     1       1.469   2.752  -0.604  0.00  0.00    -0.150 OA
BRANCH  23  26
ATOM     26  N   UNL     1      -0.057   0.961   0.152  0.00  0.00    -0.216 N 
ATOM     27  H   UNL     1      -0.085  -0.008   0.180  0.00  0.00    +0.174 HD
BRANCH  26  34
ATOM     28  C   UNL     1      -1.987   1.184   2.231  0.00  0.00    +0.046 C 
ATOM     29  C   UNL     1      -2.192   1.821   0.880  0.00  0.00    -0.028 A 
ATOM     30  C   UNL     1      -3.341   2.542   0.623  0.00  0.00    +0.005 A 
ATOM     31  C   UNL     1      -3.532   3.122  -0.618  0.00  0.00    +0.001 A 
ATOM     32  C   UNL     1      -2.571   2.986  -1.603  0.00  0.00    +0.005 A 
ATOM     33  C   UNL     1      -1.417   2.270  -1.351  0.00  0.00    -0.028 A 
ATOM     34  C   UNL     1      -1.222   1.686  -0.106  0.00  0.00    +0.054 A 
ATOM     35  C   UNL     1      -0.371   2.123  -2.426  0.00  0.00    +0.046 C 
ENDBRANCH  26  34
ENDBRANCH  23  26
ENDBRANCH   1  23
TORSDOF 5
