REMARK  Name = ZINC28179847
REMARK  11 active torsions:
REMARK  status: ('A' for Active; 'I' for Inactive)
REMARK    1  A    between atoms: C_1  and  C_2
REMARK    2  A    between atoms: C_2  and  C_4
REMARK    3  A    between atoms: C_2  and  N_21
REMARK    4  A    between atoms: N_6  and  C_7
REMARK    5  A    between atoms: N_6  and  C_8
REMARK    6  A    between atoms: C_8  and  C_9
REMARK    7  A    between atoms: C_8  and  C_15
REMARK    8  A    between atoms: N_24  and  C_27
REMARK    9  A    between atoms: C_27  and  C_28
REMARK   10  A    between atoms: N_30  and  C_31
REMARK   11  A    between atoms: C_31  and  C_32
REMARK                            x       y       z     vdW  Elec       q    Type
REMARK                         _______ _______ _______ _____ _____    ______ ____
ROOT
ATOM      1  C   UNL     1      -1.577   3.793   1.848  0.00  0.00    +0.034 C 
ATOM      2  C   UNL     1      -0.364   4.252   2.659  0.00  0.00    +0.140 C 
ENDROOT
BRANCH   2   3
ATOM      3  N   UNL     1       0.830   4.242   1.804  0.00  0.00    -0.295 NA
ATOM      4  C   UNL     1       0.575   4.939   0.535  0.00  0.00    +0.066 C 
ATOM      5  C   UNL     1       1.814   4.838  -0.358  0.00  0.00    -0.063 C 
ATOM      6  N   UNL     1       2.966   5.424   0.340  0.00  0.00    +0.387 N 
ATOM      7  C   UNL     1       3.222   4.727   1.608  0.00  0.00    -0.063 C 
ATOM      8  C   UNL     1       1.983   4.828   2.501  0.00  0.00    +0.066 C 
ATOM      9  H   UNL     1       2.727   6.472   0.571  0.00  0.00    -0.081 HD
BRANCH   6  10
ATOM     10  C   UNL     1       4.160   5.414  -0.516  0.00  0.00    +0.019 C 
BRANCH  10  11
ATOM     11  C   UNL     1       5.247   6.235   0.128  0.00  0.00    +0.197 C 
ATOM     12  O   UNL     1       5.047   6.775   1.195  0.00  0.00    -0.278 OA
ATOM     13  N   UNL     1       6.442   6.369  -0.481  0.00  0.00    -0.313 N 
ATOM     14  H   UNL     1       6.624   5.878  -1.449  0.00  0.00    +0.149 HD
BRANCH  13  15
ATOM     15  C   UNL     1       7.499   7.167   0.145  0.00  0.00    +0.139 C 
BRANCH  15  16
ATOM     16  C   UNL     1       8.723   7.156  -0.733  0.00  0.00    -0.030 A 
ATOM     17  C   UNL     1       9.687   6.180  -0.563  0.00  0.00    +0.005 A 
ATOM     18  C   UNL     1      10.808   6.168  -1.372  0.00  0.00    +0.000 A 
ATOM     19  C   UNL     1      10.971   7.137  -2.344  0.00  0.00    +0.000 A 
ATOM     20  C   UNL     1      10.010   8.117  -2.509  0.00  0.00    +0.000 A 
ATOM     21  C   UNL     1       8.886   8.126  -1.704  0.00  0.00    +0.005 A 
ENDBRANCH  15  16
ENDBRANCH  13  15
ENDBRANCH  10  11
ENDBRANCH   6  10
ENDBRANCH   2   3
BRANCH   2  22
ATOM     22  C   UNL     1      -0.155   3.318   3.824  0.00  0.00    +0.233 C 
ATOM     23  O   UNL     1       0.711   2.470   3.773  0.00  0.00    -0.274 OA
ATOM     24  N   UNL     1      -0.931   3.425   4.920  0.00  0.00    -0.292 N 
ATOM     25  C   UNL     1      -1.977   4.449   4.981  0.00  0.00    +0.133 C 
BRANCH  24  26
ATOM     26  C   UNL     1      -0.729   2.517   6.052  0.00  0.00    +0.136 C 
BRANCH  26  27
ATOM     27  C   UNL     1      -1.664   2.893   7.172  0.00  0.00    -0.023 A 
ATOM     28  C   UNL     1      -3.027   2.944   6.946  0.00  0.00    +0.006 A 
ATOM     29  C   UNL     1      -3.886   3.285   7.975  0.00  0.00    +0.000 A 
ATOM     30  C   UNL     1      -3.381   3.584   9.226  0.00  0.00    +0.000 A 
ATOM     31  C   UNL     1      -2.017   3.538   9.450  0.00  0.00    +0.000 A 
ATOM     32  C   UNL     1      -1.159   3.193   8.423  0.00  0.00    +0.006 A 
ENDBRANCH  26  27
BRANCH  26  33
ATOM     33  C   UNL     1      -1.010   1.101   5.617  0.00  0.00    -0.023 A 
ATOM     34  C   UNL     1      -2.043   0.841   4.737  0.00  0.00    +0.006 A 
ATOM     35  C   UNL     1      -2.298  -0.457   4.334  0.00  0.00    +0.000 A 
ATOM     36  C   UNL     1      -1.526  -1.495   4.819  0.00  0.00    +0.000 A 
ATOM     37  C   UNL     1      -0.495  -1.236   5.704  0.00  0.00    +0.000 A 
ATOM     38  C   UNL     1      -0.237   0.063   6.103  0.00  0.00    +0.006 A 
ENDBRANCH  26  33
ENDBRANCH  24  26
ENDBRANCH   2  22
TORSDOF 9
