REMARK  Name = ZINC63888300
REMARK  10 active torsions:
REMARK  status: ('A' for Active; 'I' for Inactive)
REMARK    1  A    between atoms: C_1  and  C_2
REMARK    2  A    between atoms: C_5  and  C_25
REMARK    3  A    between atoms: C_7  and  N_8
REMARK    4  A    between atoms: N_8  and  C_9
REMARK    5  A    between atoms: C_9  and  C_10
REMARK    6  A    between atoms: N_12  and  C_13
REMARK    7  A    between atoms: C_13  and  C_14
REMARK    8  A    between atoms: C_13  and  C_22
REMARK    9  A    between atoms: C_17  and  O_20
REMARK   10  A    between atoms: O_20  and  C_21
REMARK                            x       y       z     vdW  Elec       q    Type
REMARK                         _______ _______ _______ _____ _____    ______ ____
ROOT
ATOM      1  C   UNL     1       0.045   0.229   4.830  0.00  0.00    +0.231 C 
ATOM      2  O   UNL     1       0.026   1.423   4.613  0.00  0.00    -0.274 OA
ATOM      3  N   UNL     1       0.063  -0.224   6.099  0.00  0.00    -0.307 N 
ATOM      4  H   UNL     1       0.077  -1.179   6.273  0.00  0.00    +0.149 HD
ENDROOT
BRANCH   1   5
ATOM      5  C   UNL     1       0.047  -0.746   3.682  0.00  0.00    +0.197 C 
BRANCH   5   6
ATOM      6  N   UNL     1       0.025  -0.009   2.416  0.00  0.00    -0.335 N 
ATOM      7  H   UNL     1       0.012   0.961   2.419  0.00  0.00    +0.147 HD
BRANCH   6  14
ATOM      8  C   UNL     1      -0.018   1.503   0.010  0.00  0.00    +0.045 C 
ATOM      9  C   UNL     1       0.002  -0.004   0.002  0.00  0.00    -0.030 A 
ATOM     10  C   UNL     1       0.006  -0.686  -1.200  0.00  0.00    +0.006 A 
ATOM     11  C   UNL     1       0.025  -2.066  -1.216  0.00  0.00    +0.013 A 
ATOM     12  C   UNL     1       0.040  -2.778  -0.015  0.00  0.00    +0.038 A 
ATOM     13  C   UNL     1       0.036  -2.090   1.198  0.00  0.00    +0.036 A 
ATOM     14  C   UNL     1       0.023  -0.703   1.203  0.00  0.00    +0.031 A 
BRANCH  12  15
ATOM     15  C   UNL     1       0.060  -4.256  -0.029  0.00  0.00    +0.242 C 
ATOM     16  O   UNL     1       0.073  -4.874   1.018  0.00  0.00    -0.270 OA
ATOM     17  N   UNL     1       0.063  -4.919  -1.203  0.00  0.00    -0.325 N 
ATOM     18  H   UNL     1       0.052  -4.426  -2.038  0.00  0.00    +0.145 HD
ATOM     19  H   UNL     1       0.076  -5.889  -1.212  0.00  0.00    +0.145 HD
ENDBRANCH  12  15
ENDBRANCH   6  14
ENDBRANCH   5   6
ENDBRANCH   1   5
BRANCH   3  20
ATOM     20  C   UNL     1       0.060   0.724   7.216  0.00  0.00    +0.106 C 
BRANCH  20  21
ATOM     21  C   UNL     1      -0.519   0.059   8.438  0.00  0.00    -0.027 A 
ATOM     22  C   UNL     1      -0.201  -1.255   8.726  0.00  0.00    +0.009 A 
ATOM     23  C   UNL     1      -0.731  -1.867   9.845  0.00  0.00    +0.046 A 
ATOM     24  C   UNL     1      -1.584  -1.161  10.681  0.00  0.00    +0.120 A 
ATOM     25  C   UNL     1      -1.902   0.157  10.390  0.00  0.00    +0.046 A 
ATOM     26  C   UNL     1      -1.365   0.766   9.273  0.00  0.00    +0.009 A 
BRANCH  24  27
ATOM     27  O   UNL     1      -2.108  -1.761  11.782  0.00  0.00    -0.495 OA
ATOM     28  C   UNL     1      -2.979  -0.974  12.597  0.00  0.00    +0.277 C 
ENDBRANCH  24  27
ENDBRANCH  20  21
BRANCH  20  29
ATOM     29  C   UNL     1       1.494   1.169   7.510  0.00  0.00    +0.014 C 
ATOM     30  C   UNL     1       1.764   2.673   7.591  0.00  0.00    +0.006 C 
ATOM     31  C   UNL     1       2.261   1.870   6.387  0.00  0.00    +0.006 C 
ENDBRANCH  20  29
ENDBRANCH   3  20
TORSDOF 8
