REMARK  Name = ZINC36420001
REMARK  13 active torsions:
REMARK  status: ('A' for Active; 'I' for Inactive)
REMARK    1  A    between atoms: C_1  and  C_2
REMARK    2  A    between atoms: C_2  and  O_3
REMARK    3  A    between atoms: O_3  and  C_4
REMARK    4  A    between atoms: C_4  and  C_6
REMARK    5  A    between atoms: C_7  and  C_26
REMARK    6  A    between atoms: C_8  and  C_13
REMARK    7  A    between atoms: C_11  and  C_12
REMARK    8  A    between atoms: C_13  and  C_15
REMARK    9  A    between atoms: C_15  and  C_16
REMARK   10  A    between atoms: C_15  and  N_17
REMARK   11  A    between atoms: N_17  and  C_18
REMARK   12  A    between atoms: C_22  and  C_25
REMARK   13  A    between atoms: C_23  and  C_24
REMARK                            x       y       z     vdW  Elec       q    Type
REMARK                         _______ _______ _______ _____ _____    ______ ____
ROOT
ATOM      1  C   UNL     1      -5.857  -3.840  -1.247  0.00  0.00    +0.165 C 
ATOM      2  O   UNL     1      -5.663  -3.810  -2.446  0.00  0.00    -0.292 OA
ENDROOT
BRANCH   1   5
ATOM      3  C   UNL     1      -2.891  -2.712   0.490  0.00  0.00    +0.083 A 
ATOM      4  C   UNL     1      -3.576  -2.999  -0.710  0.00  0.00    -0.008 A 
ATOM      5  C   UNL     1      -4.833  -3.441  -0.355  0.00  0.00    +0.084 A 
ATOM      6  N   UNL     1      -4.918  -3.425   1.022  0.00  0.00    -0.355 N 
ATOM      7  H   UNL     1      -5.695  -3.688   1.540  0.00  0.00    +0.166 HD
ATOM      8  C   UNL     1      -3.755  -2.994   1.533  0.00  0.00    +0.028 A 
ATOM      9  C   UNL     1      -3.443  -2.841   2.999  0.00  0.00    +0.064 C 
ATOM     10  C   UNL     1      -3.038  -2.852  -2.110  0.00  0.00    +0.047 C 
BRANCH   3  11
ATOM     11  C   UNL     1      -1.511  -2.211   0.609  0.00  0.00    +0.341 C 
ATOM     12  O   UNL     1      -0.585  -2.994   0.687  0.00  0.00    -0.245 OA
BRANCH  11  13
ATOM     13  O   UNL     1      -1.275  -0.884   0.633  0.00  0.00    -0.461 OA
BRANCH  13  15
ATOM     14  C   UNL     1       0.155   1.059   0.760  0.00  0.00    +0.048 C 
ATOM     15  C   UNL     1       0.087  -0.469   0.751  0.00  0.00    +0.229 C 
ENDBRANCH  13  15
ENDBRANCH  11  13
ENDBRANCH   3  11
ENDBRANCH   1   5
BRANCH   1  16
ATOM     16  C   UNL     1      -7.187  -4.301  -0.710  0.00  0.00    -0.000 C 
ATOM     17  C   UNL     1      -8.037  -3.084  -0.339  0.00  0.00    -0.006 C 
BRANCH  16  18
ATOM     18  N   UNL     1      -7.882  -5.090  -1.735  0.00  0.00    +0.388 N 
ATOM     19  H   UNL     1      -8.811  -5.316  -1.413  0.00  0.00    -0.084 HD
ATOM     20  H   UNL     1      -7.943  -4.554  -2.588  0.00  0.00    -0.084 HD
BRANCH  18  21
ATOM     21  C   UNL     1      -7.137  -6.330  -1.988  0.00  0.00    -0.068 C 
ATOM     22  C   UNL     1      -7.177  -7.213  -0.739  0.00  0.00    -0.015 C 
ATOM     23  C   UNL     1      -6.401  -8.505  -1.002  0.00  0.00    -0.001 C 
ATOM     24  C   UNL     1      -7.037  -9.252  -2.176  0.00  0.00    +0.003 C 
ATOM     25  C   UNL     1      -6.996  -8.370  -3.425  0.00  0.00    -0.013 C 
ATOM     26  C   UNL     1      -7.773  -7.078  -3.162  0.00  0.00    -0.025 C 
ATOM     27  C   UNL     1      -9.226  -7.416  -2.823  0.00  0.00    +0.006 C 
ATOM     28  C   UNL     1      -5.543  -8.031  -3.764  0.00  0.00    +0.008 C 
ENDBRANCH  18  21
ENDBRANCH  16  18
ENDBRANCH   1  16
TORSDOF 7
