REMARK  Name = ZINC15624189
REMARK  5 active torsions:
REMARK  status: ('A' for Active; 'I' for Inactive)
REMARK    1  A    between atoms: C_6  and  C_7
REMARK    2  A    between atoms: C_13  and  C_15
REMARK    3  A    between atoms: C_15  and  C_16
REMARK    4  A    between atoms: C_16  and  N_17
REMARK    5  A    between atoms: N_20  and  C_21
REMARK                            x       y       z     vdW  Elec       q    Type
REMARK                         _______ _______ _______ _____ _____    ______ ____
ROOT
ATOM      1  C   UNL     1       4.758   0.769  -0.039  0.00  0.00    +0.114 C 
ENDROOT
BRANCH   1   7
ATOM      2  C   UNL     1       8.560   1.507  -0.077  0.00  0.00    +0.106 C 
ATOM      3  C   UNL     1       9.601   0.367  -0.062  0.00  0.00    +0.029 C 
ATOM      4  C   UNL     1       8.802  -0.827   0.525  0.00  0.00    +0.021 C 
ATOM      5  C   UNL     1       7.394  -0.583  -0.072  0.00  0.00    +0.108 C 
ATOM      6  N   UNL     1       7.229   0.882  -0.062  0.00  0.00    -0.294 N 
ATOM      7  C   UNL     1       6.053   1.540  -0.048  0.00  0.00    +0.218 C 
ATOM      8  O   UNL     1       6.036   2.753  -0.041  0.00  0.00    -0.276 OA
BRANCH   2  14
ATOM      9  C   UNL     1       8.238   1.868  -2.532  0.00  0.00    +0.009 A 
ATOM     10  C   UNL     1       8.382   2.628  -3.678  0.00  0.00    +0.050 A 
ATOM     11  C   UNL     1       9.023   3.856  -3.622  0.00  0.00    +0.162 A 
ATOM     12  C   UNL     1       9.513   4.325  -2.408  0.00  0.00    +0.162 A 
ATOM     13  C   UNL     1       9.361   3.560  -1.262  0.00  0.00    +0.055 A 
ATOM     14  C   UNL     1       8.723   2.336  -1.325  0.00  0.00    -0.023 A 
ATOM     15  O   UNL     1      10.137   5.532  -2.329  0.00  0.00    -0.485 OA
ATOM     16  C   UNL     1      10.600   6.099  -3.560  0.00  0.00    +0.270 C 
ATOM     17  C   UNL     1       9.477   5.976  -4.598  0.00  0.00    +0.270 C 
ATOM     18  O   UNL     1       9.167   4.587  -4.761  0.00  0.00    -0.485 OA
ENDBRANCH   2  14
ENDBRANCH   1   7
BRANCH   1  19
ATOM     19  C   UNL     1       3.582   1.747  -0.023  0.00  0.00    +0.115 C 
BRANCH  19  20
ATOM     20  N   UNL     1       2.323   0.998  -0.015  0.00  0.00    -0.299 N 
ATOM     21  C   UNL     1       1.147   1.655   0.000  0.00  0.00    +0.300 C 
ATOM     22  O   UNL     1       1.130   2.871   0.007  0.00  0.00    -0.253 OA
ATOM     23  N   UNL     1      -0.011   0.966   0.007  0.00  0.00    -0.294 N 
ATOM     24  H   UNL     1       2.336   0.028  -0.020  0.00  0.00    +0.150 HD
ATOM     25  H   UNL     1       0.002  -0.004   0.002  0.00  0.00    +0.151 HD
BRANCH  23  26
ATOM     26  C   UNL     1      -1.290   1.681   0.017  0.00  0.00    +0.037 C 
ATOM     27  C   UNL     1      -1.389   2.566  -1.227  0.00  0.00    +0.029 C 
ATOM     28  C   UNL     1      -2.724   3.313  -1.216  0.00  0.00    -0.008 C 
ATOM     29  C   UNL     1      -3.873   2.303  -1.216  0.00  0.00    +0.007 C 
ATOM     30  C   UNL     1      -3.774   1.418   0.028  0.00  0.00    -0.008 C 
ATOM     31  C   UNL     1      -2.439   0.671   0.017  0.00  0.00    +0.029 C 
ATOM     32  C   UNL     1      -3.861   2.290   1.282  0.00  0.00    +0.007 C 
ATOM     33  C   UNL     1      -2.712   3.300   1.282  0.00  0.00    -0.008 C 
ATOM     34  C   UNL     1      -2.811   4.185   0.038  0.00  0.00    +0.007 C 
ATOM     35  C   UNL     1      -1.377   2.553   1.272  0.00  0.00    +0.029 C 
ENDBRANCH  23  26
ENDBRANCH  19  20
ENDBRANCH   1  19
TORSDOF 5
