REMARK  Name = ZINC59310777
REMARK  10 active torsions:
REMARK  status: ('A' for Active; 'I' for Inactive)
REMARK    1  A    between atoms: C_1  and  C_2
REMARK    2  A    between atoms: C_2  and  C_25
REMARK    3  A    between atoms: N_3  and  N_4
REMARK    4  A    between atoms: C_7  and  S_10
REMARK    5  A    between atoms: S_10  and  C_11
REMARK    6  A    between atoms: C_11  and  C_12
REMARK    7  A    between atoms: N_14  and  C_15
REMARK    8  A    between atoms: C_20  and  S_21
REMARK    9  A    between atoms: S_21  and  C_22
REMARK   10  A    between atoms: C_22  and  C_23
REMARK                            x       y       z     vdW  Elec       q    Type
REMARK                         _______ _______ _______ _____ _____    ______ ____
ROOT
ATOM      1  N   UNL     1       0.090   0.042   2.322  0.00  0.00    -0.205 N 
ATOM      2  C   UNL     1       0.100  -0.656   3.516  0.00  0.00    +0.232 A 
ATOM      3  N   UNL     1       0.116  -1.966   3.647  0.00  0.00    -0.186 NA
ATOM      4  C   UNL     1       0.123  -2.288   4.945  0.00  0.00    +0.211 A 
ATOM      5  N   UNL     1       0.111  -1.186   5.658  0.00  0.00    -0.144 NA
ATOM      6  N   UNL     1       0.103  -0.113   4.752  0.00  0.00    -0.245 N 
ATOM      7  H   UNL     1       0.083   1.012   2.327  0.00  0.00    +0.177 HD
ATOM      8  H   UNL     1       0.097   0.832   4.972  0.00  0.00    +0.192 HD
ENDROOT
BRANCH   1  11
ATOM      9  C   UNL     1       0.068   1.500   0.007  0.00  0.00    +0.063 C 
ATOM     10  C   UNL     1       0.079  -0.007  -0.000  0.00  0.00    +0.040 C 
ATOM     11  N   UNL     1       0.089  -0.652   1.105  0.00  0.00    -0.189 NA
BRANCH  10  12
ATOM     12  C   UNL     1       0.078  -0.754  -1.309  0.00  0.00    +0.011 C 
ATOM     13  C   UNL     1       1.320  -0.371  -2.116  0.00  0.00    +0.016 C 
ATOM     14  C   UNL     1       1.319  -1.129  -3.445  0.00  0.00    -0.010 C 
ATOM     15  C   UNL     1       1.331  -2.635  -3.173  0.00  0.00    +0.007 C 
ATOM     16  C   UNL     1       0.088  -3.018  -2.366  0.00  0.00    -0.010 C 
ATOM     17  C   UNL     1       0.090  -2.259  -1.037  0.00  0.00    +0.016 C 
ATOM     18  C   UNL     1      -1.167  -2.653  -3.161  0.00  0.00    +0.007 C 
ATOM     19  C   UNL     1      -1.179  -1.147  -3.433  0.00  0.00    -0.010 C 
ATOM     20  C   UNL     1       0.063  -0.765  -4.239  0.00  0.00    +0.007 C 
ATOM     21  C   UNL     1      -1.178  -0.389  -2.104  0.00  0.00    +0.016 C 
ENDBRANCH  10  12
ENDBRANCH   1  11
BRANCH   4  22
ATOM     22  S   UNL     1       0.143  -3.926   5.594  0.00  0.00    -0.075 S 
BRANCH  22  23
ATOM     23  C   UNL     1       0.144  -3.687   7.392  0.00  0.00    +0.173 C 
BRANCH  23  24
ATOM     24  C   UNL     1       0.161  -5.029   8.077  0.00  0.00    +0.228 C 
ATOM     25  O   UNL     1       0.171  -6.046   7.418  0.00  0.00    -0.275 OA
ATOM     26  N   UNL     1       0.165  -5.098   9.423  0.00  0.00    -0.284 N 
ATOM     27  H   UNL     1       0.222  -4.286   9.950  0.00  0.00    +0.155 HD
BRANCH  26  28
ATOM     28  C   UNL     1       0.086  -6.343  10.061  0.00  0.00    +0.047 A 
ATOM     29  C   UNL     1       0.692  -7.454   9.495  0.00  0.00    +0.024 A 
ATOM     30  C   UNL     1       0.613  -8.682  10.126  0.00  0.00    +0.002 A 
ATOM     31  C   UNL     1      -0.070  -8.807  11.322  0.00  0.00    +0.001 A 
ATOM     32  C   UNL     1      -0.678  -7.705  11.894  0.00  0.00    +0.016 A 
ATOM     33  C   UNL     1      -0.599  -6.468  11.271  0.00  0.00    +0.029 A 
BRANCH  33  34
ATOM     34  S   UNL     1      -1.366  -5.060  12.001  0.00  0.00    -0.119 S 
BRANCH  34  35
ATOM     35  C   UNL     1      -2.111  -5.706  13.523  0.00  0.00    +0.101 C 
BRANCH  35  36
ATOM     36  C   UNL     1      -2.809  -4.588  14.254  0.00  0.00    -0.024 C 
ATOM     37  C   UNL     1      -4.110  -4.617  14.405  0.00  0.00    +0.005 C 
ENDBRANCH  35  36
ENDBRANCH  34  35
ENDBRANCH  33  34
ENDBRANCH  26  28
ENDBRANCH  23  24
ENDBRANCH  22  23
ENDBRANCH   4  22
TORSDOF 9
