REMARK  Name = ZINC08716036
REMARK  12 active torsions:
REMARK  status: ('A' for Active; 'I' for Inactive)
REMARK    1  A    between atoms: C_1  and  C_2
REMARK    2  A    between atoms: C_9  and  C_14
REMARK    3  A    between atoms: C_14  and  O_16
REMARK    4  A    between atoms: O_16  and  C_17
REMARK    5  A    between atoms: C_17  and  C_18
REMARK    6  A    between atoms: C_18  and  C_20
REMARK    7  A    between atoms: C_21  and  N_33
REMARK    8  A    between atoms: N_22  and  C_29
REMARK    9  A    between atoms: N_25  and  C_28
REMARK   10  A    between atoms: C_29  and  C_30
REMARK   11  A    between atoms: C_30  and  C_31
REMARK   12  A    between atoms: C_30  and  C_32
REMARK                            x       y       z     vdW  Elec       q    Type
REMARK                         _______ _______ _______ _____ _____    ______ ____
ROOT
ATOM      1  C   UNL     1       5.647   9.059  -1.011  0.00  0.00    +0.209 C 
ATOM      2  O   UNL     1       4.612   9.648  -0.776  0.00  0.00    -0.288 OA
ENDROOT
BRANCH   1   3
ATOM      3  C   UNL     1       6.726   9.740  -1.613  0.00  0.00    +0.123 A 
ATOM      4  C   UNL     1       6.674  11.127  -1.837  0.00  0.00    +0.116 A 
ATOM      5  N   UNL     1       7.743  11.742  -2.423  0.00  0.00    -0.281 N 
ATOM      6  C   UNL     1       8.834  11.050  -2.785  0.00  0.00    +0.333 A 
ATOM      7  O   UNL     1       9.759  11.644  -3.303  0.00  0.00    -0.246 OA
ATOM      8  N   UNL     1       8.942   9.725  -2.596  0.00  0.00    -0.263 N 
ATOM      9  C   UNL     1       7.943   9.025  -2.019  0.00  0.00    +0.269 A 
ATOM     10  O   UNL     1       8.046   7.825  -1.843  0.00  0.00    -0.267 OA
ATOM     11  C   UNL     1      10.162   9.031  -3.015  0.00  0.00    +0.157 C 
BRANCH   4  12
ATOM     12  N   UNL     1       5.575  11.844  -1.478  0.00  0.00    -0.344 N 
ATOM     13  H   UNL     1       5.004  11.529  -0.760  0.00  0.00    +0.144 HD
ATOM     14  H   UNL     1       5.362  12.670  -1.940  0.00  0.00    +0.144 HD
ENDBRANCH   4  12
BRANCH   5  15
ATOM     15  C   UNL     1       7.697  13.187  -2.662  0.00  0.00    +0.131 C 
BRANCH  15  16
ATOM     16  C   UNL     1       8.260  13.923  -1.444  0.00  0.00    +0.003 C 
ATOM     17  C   UNL     1       8.329  15.422  -1.742  0.00  0.00    +0.009 C 
ATOM     18  C   UNL     1       7.350  13.683  -0.238  0.00  0.00    +0.009 C 
ENDBRANCH  15  16
ENDBRANCH   5  15
ENDBRANCH   1   3
BRANCH   1  19
ATOM     19  C   UNL     1       5.780   7.599  -0.659  0.00  0.00    +0.312 C 
BRANCH  19  20
ATOM     20  O   UNL     1       4.545   7.132  -0.056  0.00  0.00    -0.453 OA
BRANCH  20  21
ATOM     21  C   UNL     1       4.498   5.838   0.319  0.00  0.00    +0.340 C 
ATOM     22  O   UNL     1       5.463   5.120   0.147  0.00  0.00    -0.245 OA
BRANCH  21  30
ATOM     23  C   UNL     1      -0.843   1.766   0.834  0.00  0.00    +0.029 C 
ATOM     24  C   UNL     1      -0.437   1.873   2.305  0.00  0.00    +0.134 C 
ATOM     25  C   UNL     1       0.965   1.357   2.479  0.00  0.00    +0.230 C 
ATOM     26  O   UNL     1       1.113   0.198   2.805  0.00  0.00    -0.274 OA
ATOM     27  N   UNL     1       2.053   2.099   2.290  0.00  0.00    -0.284 N 
ATOM     28  C   UNL     1       2.082   3.438   1.907  0.00  0.00    +0.048 A 
ATOM     29  C   UNL     1       3.228   3.953   1.325  0.00  0.00    +0.039 A 
ATOM     30  C   UNL     1       3.276   5.295   0.938  0.00  0.00    +0.061 A 
ATOM     31  C   UNL     1       2.166   6.122   1.135  0.00  0.00    +0.016 A 
ATOM     32  C   UNL     1       1.025   5.610   1.712  0.00  0.00    +0.017 A 
ATOM     33  C   UNL     1       0.978   4.277   2.096  0.00  0.00    +0.030 A 
ATOM     34  S   UNL     1      -0.485   3.616   2.832  0.00  0.00    -0.111 S 
ATOM     35  H   UNL     1       2.909   1.666   2.433  0.00  0.00    +0.155 HD
ENDBRANCH  21  30
ENDBRANCH  20  21
ENDBRANCH  19  20
ENDBRANCH   1  19
TORSDOF 8
