REMARK  Name = ZINC42142095
REMARK  4 active torsions:
REMARK  status: ('A' for Active; 'I' for Inactive)
REMARK    1  A    between atoms: C_5  and  C_7
REMARK    2  A    between atoms: C_7  and  S_8
REMARK    3  A    between atoms: S_8  and  C_9
REMARK    4  A    between atoms: C_14  and  N_19
REMARK                            x       y       z     vdW  Elec       q    Type
REMARK                         _______ _______ _______ _____ _____    ______ ____
ROOT
ATOM      1  C   UNL     1       1.276  -4.553   1.507  0.00  0.00    +0.168 A 
ATOM      2  N   UNL     1       1.293  -5.448   2.540  0.00  0.00    -0.333 N 
ATOM      3  H   UNL     1       1.295  -5.234   3.486  0.00  0.00    +0.168 HD
ATOM      4  C   UNL     1       1.306  -6.717   1.985  0.00  0.00    +0.069 A 
ATOM      5  C   UNL     1       1.325  -7.997   2.517  0.00  0.00    +0.050 A 
ATOM      6  C   UNL     1       1.334  -9.094   1.671  0.00  0.00    +0.027 A 
ATOM      7  C   UNL     1       1.325  -8.916   0.290  0.00  0.00    +0.025 A 
ATOM      8  C   UNL     1       1.306  -7.650  -0.249  0.00  0.00    +0.032 A 
ATOM      9  C   UNL     1       1.296  -6.535   0.593  0.00  0.00    +0.090 A 
ATOM     10  N   UNL     1       1.273  -5.194   0.364  0.00  0.00    -0.222 NA
ENDROOT
BRANCH   6  11
ATOM     11  N   UNL     1       1.354 -10.387   2.207  0.00  0.00    -0.358 N 
ATOM     12  H   UNL     1       1.361 -10.514   3.168  0.00  0.00    +0.142 HD
ATOM     13  H   UNL     1       1.361 -11.157   1.616  0.00  0.00    +0.142 HD
ENDBRANCH   6  11
BRANCH   1  14
ATOM     14  S   UNL     1       1.254  -2.800   1.685  0.00  0.00    -0.083 S 
BRANCH  14  15
ATOM     15  C   UNL     1       1.229  -2.186  -0.022  0.00  0.00    +0.114 C 
BRANCH  15  20
ATOM     16  C   UNL     1      -0.017   1.378   0.010  0.00  0.00    +0.000 A 
ATOM     17  C   UNL     1       1.171   2.086   0.002  0.00  0.00    +0.001 A 
ATOM     18  C   UNL     1       2.377   1.412  -0.013  0.00  0.00    +0.020 A 
ATOM     19  C   UNL     1       2.397   0.029  -0.021  0.00  0.00    +0.045 A 
ATOM     20  C   UNL     1       1.208  -0.679  -0.013  0.00  0.00    -0.019 A 
ATOM     21  C   UNL     1       0.002  -0.004   0.002  0.00  0.00    +0.006 A 
ATOM     22 CL   UNL     1       3.912  -0.818  -0.041  0.00  0.00    -0.083 Cl
ENDBRANCH  15  20
ENDBRANCH  14  15
ENDBRANCH   1  14
TORSDOF 4
