REMARK  Name = ZINC09046174
REMARK  4 active torsions:
REMARK  status: ('A' for Active; 'I' for Inactive)
REMARK    1  A    between atoms: C_8  and  C_26
REMARK    2  A    between atoms: C_10  and  C_17
REMARK    3  A    between atoms: C_21  and  N_23
REMARK    4  A    between atoms: C_26  and  C_28
REMARK                            x       y       z     vdW  Elec       q    Type
REMARK                         _______ _______ _______ _____ _____    ______ ____
ROOT
ATOM      1  C   UNL     1      -0.012   0.114   0.844  0.00  0.00    +0.000 A 
ATOM      2  C   UNL     1      -0.048   1.471   1.104  0.00  0.00    +0.002 A 
ATOM      3  C   UNL     1       1.100   2.228   0.993  0.00  0.00    +0.023 A 
ATOM      4  C   UNL     1       2.300   1.630   0.613  0.00  0.00    +0.036 A 
ATOM      5  C   UNL     1       2.326   0.263   0.354  0.00  0.00    -0.027 A 
ATOM      6  C   UNL     1       1.177  -0.488   0.476  0.00  0.00    +0.004 A 
ATOM      7  C   UNL     1       3.751  -0.067  -0.005  0.00  0.00    +0.051 C 
ATOM      8  C   UNL     1       4.350  -0.968   1.084  0.00  0.00    +0.072 C 
ATOM      9  C   UNL     1       4.221  -2.392   0.490  0.00  0.00    +0.016 C 
ATOM     10  C   UNL     1       4.305  -2.157  -1.025  0.00  0.00    -0.059 C 
ATOM     11  C   UNL     1       2.655  -0.766  -2.075  0.00  0.00    -0.076 C 
ATOM     12  C   UNL     1       2.150  -2.215  -2.167  0.00  0.00    -0.020 C 
ATOM     13  C   UNL     1       3.359  -3.088  -1.788  0.00  0.00    -0.016 C 
ATOM     14  C   UNL     1       4.438   1.274  -0.067  0.00  0.00    +0.212 C 
ATOM     15  O   UNL     1       5.542   1.520  -0.503  0.00  0.00    -0.277 OA
ATOM     16  N   UNL     1       3.568   2.180   0.420  0.00  0.00    -0.286 N 
ATOM     17  H   UNL     1       3.793   3.107   0.598  0.00  0.00    +0.155 HD
ATOM     18  N   UNL     1       3.913  -0.774  -1.290  0.00  0.00    +0.395 N 
ATOM     19  H   UNL     1       4.649  -0.310  -1.835  0.00  0.00    -0.079 HD
ENDROOT
BRANCH   9  20
ATOM     20  C   UNL     1       5.360  -3.261   0.958  0.00  0.00    -0.043 A 
ATOM     21  C   UNL     1       5.152  -4.197   1.953  0.00  0.00    +0.004 A 
ATOM     22  C   UNL     1       6.195  -4.997   2.379  0.00  0.00    +0.002 A 
ATOM     23  C   UNL     1       7.450  -4.853   1.817  0.00  0.00    +0.033 A 
ATOM     24  C   UNL     1       7.660  -3.914   0.825  0.00  0.00    +0.126 A 
ATOM     25  C   UNL     1       6.614  -3.117   0.396  0.00  0.00    +0.036 A 
BRANCH  24  26
ATOM     26  N   UNL     1       9.003  -3.760   0.223  0.00  0.00    +0.056 N 
ATOM     27  O   UNL     1       9.188  -2.932  -0.650  0.00  0.00    -0.126 OA
ATOM     28  O   UNL     1       9.924  -4.462   0.601  0.00  0.00    -0.126 OA
ENDBRANCH  24  26
ENDBRANCH   9  20
BRANCH   8  29
ATOM     29  C   UNL     1       5.790  -0.640   1.359  0.00  0.00    +0.201 C 
ATOM     30  O   UNL     1       6.541  -0.386   0.439  0.00  0.00    -0.289 OA
BRANCH  29  31
ATOM     31  C   UNL     1       6.270  -0.627   2.688  0.00  0.00    +0.170 A 
ATOM     32  C   UNL     1       7.562  -0.344   3.084  0.00  0.00    +0.053 A 
ATOM     33  C   UNL     1       7.583  -0.448   4.481  0.00  0.00    +0.042 A 
ATOM     34  C   UNL     1       6.333  -0.782   4.876  0.00  0.00    +0.196 A 
ATOM     35  O   UNL     1       5.546  -0.883   3.799  0.00  0.00    -0.460 OA
ENDBRANCH  29  31
ENDBRANCH   8  29
TORSDOF 4
