REMARK  Name = ZINC39774343
REMARK  4 active torsions:
REMARK  status: ('A' for Active; 'I' for Inactive)
REMARK    1  A    between atoms: C_1  and  C_2
REMARK    2  A    between atoms: C_2  and  C_10
REMARK    3  A    between atoms: C_3  and  C_4
REMARK    4  A    between atoms: N_11  and  N_12
REMARK                            x       y       z     vdW  Elec       q    Type
REMARK                         _______ _______ _______ _____ _____    ______ ____
ROOT
ATOM      1  N   UNL     1      -0.185  -0.710  -3.567  0.00  0.00    -0.206 N 
ATOM      2  C   UNL     1      -0.492  -0.044  -4.736  0.00  0.00    +0.227 C 
ATOM      3  N   UNL     1      -0.906   1.198  -4.650  0.00  0.00    -0.220 NA
ATOM      4  C   UNL     1      -1.152   1.921  -5.895  0.00  0.00    +0.253 C 
ATOM      5  C   UNL     1      -1.539   0.873  -6.929  0.00  0.00    +0.115 C 
ATOM      6  C   UNL     1      -2.671   1.344  -7.522  0.00  0.00    +0.025 A 
ATOM      7  C   UNL     1      -3.437   0.876  -8.618  0.00  0.00    +0.012 A 
ATOM      8  C   UNL     1      -4.546   1.587  -8.955  0.00  0.00    +0.001 A 
ATOM      9  C   UNL     1      -4.974   2.740  -8.290  0.00  0.00    +0.002 A 
ATOM     10  C   UNL     1      -4.315   3.282  -7.231  0.00  0.00    +0.026 A 
ATOM     11  C   UNL     1      -3.093   2.583  -6.798  0.00  0.00    +0.046 A 
ATOM     12  N   UNL     1      -2.257   2.868  -5.847  0.00  0.00    -0.358 N 
ATOM     13  N   UNL     1      -0.889  -0.292  -7.011  0.00  0.00    -0.171 NA
ATOM     14  N   UNL     1      -0.344  -0.708  -5.907  0.00  0.00    -0.247 N 
ATOM     15  H   UNL     1       0.127  -1.628  -3.599  0.00  0.00    +0.177 HD
ATOM     16  H   UNL     1       0.184  -1.522  -5.921  0.00  0.00    +0.192 HD
ATOM     17  H   UNL     1      -2.353   3.592  -5.209  0.00  0.00    +0.162 HD
ENDROOT
BRANCH   1  19
ATOM     18  C   UNL     1      -0.035  -0.689  -1.230  0.00  0.00    +0.133 C 
ATOM     19  N   UNL     1      -0.325  -0.060  -2.333  0.00  0.00    -0.188 NA
BRANCH  18  21
ATOM     20  C   UNL     1      -0.661   1.394   0.069  0.00  0.00    +0.045 C 
ATOM     21  C   UNL     1      -0.176  -0.032   0.018  0.00  0.00    -0.030 C 
ATOM     22  C   UNL     1       0.124  -0.683   1.161  0.00  0.00    +0.012 C 
BRANCH  22  23
ATOM     23  C   UNL     1       0.127   0.041   2.442  0.00  0.00    -0.025 A 
ATOM     24  C   UNL     1      -0.261  -0.609   3.618  0.00  0.00    +0.008 A 
ATOM     25  C   UNL     1      -0.256   0.077   4.815  0.00  0.00    +0.001 A 
ATOM     26  C   UNL     1       0.132   1.405   4.853  0.00  0.00    +0.000 A 
ATOM     27  C   UNL     1       0.518   2.055   3.694  0.00  0.00    +0.001 A 
ATOM     28  C   UNL     1       0.523   1.382   2.491  0.00  0.00    +0.008 A 
ENDBRANCH  22  23
ENDBRANCH  18  21
ENDBRANCH   1  19
TORSDOF 3
