REMARK  Name = ZINC16022005
REMARK  8 active torsions:
REMARK  status: ('A' for Active; 'I' for Inactive)
REMARK    1  A    between atoms: C_1  and  C_2
REMARK    2  A    between atoms: C_16  and  C_19
REMARK    3  A    between atoms: C_19  and  C_20
REMARK    4  A    between atoms: C_23  and  O_26
REMARK    5  A    between atoms: N_29  and  C_32
REMARK    6  A    between atoms: C_32  and  C_33
REMARK    7  A    between atoms: C_32  and  C_34
REMARK    8  A    between atoms: C_32  and  C_35
REMARK                            x       y       z     vdW  Elec       q    Type
REMARK                         _______ _______ _______ _____ _____    ______ ____
ROOT
ATOM      1  C   UNL     1      -0.018   1.503   0.010  0.00  0.00    +0.045 C 
ATOM      2  C   UNL     1       0.002  -0.004   0.002  0.00  0.00    -0.029 A 
ATOM      3  C   UNL     1       0.006  -0.685  -1.198  0.00  0.00    +0.005 A 
ATOM      4  C   UNL     1       0.025  -2.067  -1.216  0.00  0.00    +0.001 A 
ATOM      5  C   UNL     1       0.041  -2.772  -0.025  0.00  0.00    +0.008 A 
ATOM      6  C   UNL     1       0.037  -2.096   1.175  0.00  0.00    +0.004 A 
ATOM      7  C   UNL     1       0.023  -0.705   1.205  0.00  0.00    +0.042 A 
ATOM      8  N   UNL     1       0.030  -0.251   2.526  0.00  0.00    -0.283 N 
ATOM      9  C   UNL     1       0.050  -1.265   3.412  0.00  0.00    +0.243 C 
ATOM     10  O   UNL     1       0.058  -1.171   4.621  0.00  0.00    -0.273 OA
ATOM     11  C   UNL     1       0.049  -2.538   2.611  0.00  0.00    +0.136 C 
ATOM     12  C   UNL     1       1.287  -3.386   2.928  0.00  0.00    +0.122 C 
ATOM     13  C   UNL     1       0.784  -4.448   3.945  0.00  0.00    +0.107 C 
ATOM     14  C   UNL     1      -0.706  -4.113   4.165  0.00  0.00    +0.072 C 
ATOM     15  N   UNL     1      -1.115  -3.387   2.925  0.00  0.00    -0.295 NA
ATOM     16  C   UNL     1       0.914  -5.748   3.185  0.00  0.00    +0.228 C 
ATOM     17  O   UNL     1       0.614  -6.842   3.613  0.00  0.00    -0.275 OA
ATOM     18  N   UNL     1       1.411  -5.504   1.967  0.00  0.00    -0.236 N 
ATOM     19  C   UNL     1       1.669  -4.200   1.712  0.00  0.00    +0.229 C 
ATOM     20  O   UNL     1       2.126  -3.751   0.683  0.00  0.00    -0.275 OA
ATOM     21  H   UNL     1       0.021   0.687   2.776  0.00  0.00    +0.155 HD
ATOM     22  H   UNL     1      -1.937  -2.826   3.095  0.00  0.00    +0.124 HD
ENDROOT
BRANCH  18  23
ATOM     23  C   UNL     1       1.662  -6.563   0.987  0.00  0.00    +0.036 C 
ATOM     24  C   UNL     1       1.272  -7.915   1.586  0.00  0.00    +0.031 C 
ATOM     25  C   UNL     1       0.830  -6.303  -0.270  0.00  0.00    +0.031 C 
ATOM     26  C   UNL     1       3.148  -6.577   0.621  0.00  0.00    +0.031 C 
ENDBRANCH  18  23
BRANCH  14  27
ATOM     27  C   UNL     1      -1.524  -5.398   4.308  0.00  0.00    +0.054 C 
BRANCH  27  28
ATOM     28  C   UNL     1      -2.951  -5.049   4.643  0.00  0.00    -0.046 A 
ATOM     29  C   UNL     1      -3.339  -4.922   5.964  0.00  0.00    +0.007 A 
ATOM     30  C   UNL     1      -4.647  -4.603   6.274  0.00  0.00    +0.045 A 
ATOM     31  C   UNL     1      -5.572  -4.410   5.258  0.00  0.00    +0.117 A 
ATOM     32  C   UNL     1      -5.180  -4.537   3.933  0.00  0.00    +0.045 A 
ATOM     33  C   UNL     1      -3.870  -4.851   3.629  0.00  0.00    +0.007 A 
BRANCH  31  34
ATOM     34  O   UNL     1      -6.859  -4.096   5.561  0.00  0.00    -0.507 OA
ATOM     35  H   UNL     1      -7.028  -3.146   5.626  0.00  0.00    +0.292 HD
ENDBRANCH  31  34
ENDBRANCH  27  28
ENDBRANCH  14  27
TORSDOF 4
