REMARK  Name = ZINC41309781
REMARK  8 active torsions:
REMARK  status: ('A' for Active; 'I' for Inactive)
REMARK    1  A    between atoms: C_1  and  C_2
REMARK    2  A    between atoms: C_9  and  N_22
REMARK    3  A    between atoms: C_10  and  C_11
REMARK    4  A    between atoms: N_13  and  C_14
REMARK    5  A    between atoms: C_23  and  C_25
REMARK    6  A    between atoms: C_29  and  C_34
REMARK    7  A    between atoms: C_34  and  C_35
REMARK    8  A    between atoms: C_34  and  C_36
REMARK                            x       y       z     vdW  Elec       q    Type
REMARK                         _______ _______ _______ _____ _____    ______ ____
ROOT
ATOM      1  C   UNL     1      -0.019   1.526   0.010  0.00  0.00    +0.008 C 
ATOM      2  C   UNL     1       0.002  -0.004   0.002  0.00  0.00    -0.009 C 
ATOM      3  C   UNL     1       0.724  -0.500  -1.254  0.00  0.00    +0.008 C 
ATOM      4  C   UNL     1       0.537  -2.012  -1.399  0.00  0.00    +0.037 C 
ATOM      5  C   UNL     1       0.935  -2.680  -0.091  0.00  0.00    -0.023 A 
ATOM      6  C   UNL     1       1.019  -1.977   1.059  0.00  0.00    -0.004 A 
ATOM      7  S   UNL     1       1.508  -3.164   2.276  0.00  0.00    -0.077 S 
ATOM      8  C   UNL     1       1.599  -4.539   1.315  0.00  0.00    +0.085 A 
ATOM      9  C   UNL     1       1.254  -4.090   0.050  0.00  0.00    +0.069 A 
ATOM     10  C   UNL     1       0.750  -0.515   1.242  0.00  0.00    +0.046 C 
ENDROOT
BRANCH   9  11
ATOM     11  C   UNL     1       1.213  -5.001  -1.099  0.00  0.00    +0.247 C 
ATOM     12  O   UNL     1       2.209  -5.170  -1.777  0.00  0.00    -0.270 OA
ATOM     13  N   UNL     1       0.072  -5.651  -1.403  0.00  0.00    -0.307 N 
ATOM     14  H   UNL     1      -0.722  -5.516  -0.862  0.00  0.00    +0.149 HD
BRANCH  13  15
ATOM     15  C   UNL     1       0.031  -6.561  -2.550  0.00  0.00    +0.096 C 
ATOM     16  C   UNL     1      -0.291  -5.771  -3.829  0.00  0.00    +0.046 C 
ATOM     17  C   UNL     1      -0.651  -6.746  -4.976  0.00  0.00    +0.168 C 
ATOM     18  S   UNL     1      -1.339  -8.194  -4.074  0.00  0.00    -0.029 S 
ATOM     19  O   UNL     1      -0.510  -9.323  -4.312  0.00  0.00    -0.174 OA
ATOM     20  O   UNL     1      -2.733  -8.281  -4.335  0.00  0.00    -0.174 OA
ATOM     21  C   UNL     1      -1.088  -7.620  -2.341  0.00  0.00    +0.188 C 
ENDBRANCH  13  15
ENDBRANCH   9  11
BRANCH   8  22
ATOM     22  N   UNL     1       1.942  -5.825   1.699  0.00  0.00    -0.273 N 
ATOM     23  C   UNL     1       2.252  -6.084   2.985  0.00  0.00    +0.284 C 
ATOM     24  O   UNL     1       2.231  -5.189   3.808  0.00  0.00    -0.266 OA
ATOM     25  H   UNL     1       1.958  -6.539   1.043  0.00  0.00    +0.156 HD
BRANCH  23  26
ATOM     26  C   UNL     1       2.615  -7.448   3.392  0.00  0.00    +0.191 A 
ATOM     27  C   UNL     1       2.940  -7.826   4.656  0.00  0.00    +0.063 A 
ATOM     28  C   UNL     1       3.224  -9.259   4.589  0.00  0.00    +0.021 A 
ATOM     29  C   UNL     1       3.607 -10.221   5.528  0.00  0.00    +0.015 A 
ATOM     30  C   UNL     1       3.799 -11.514   5.132  0.00  0.00    -0.044 A 
ATOM     31  C   UNL     1       3.617 -11.879   3.805  0.00  0.00    +0.007 A 
ATOM     32  C   UNL     1       3.239 -10.945   2.864  0.00  0.00    +0.047 A 
ATOM     33  C   UNL     1       3.037  -9.623   3.242  0.00  0.00    +0.136 A 
ATOM     34  O   UNL     1       2.671  -8.516   2.568  0.00  0.00    -0.450 OA
BRANCH  30  35
ATOM     35  C   UNL     1       4.212 -12.553   6.143  0.00  0.00    +0.013 C 
ATOM     36  C   UNL     1       3.154 -13.656   6.202  0.00  0.00    +0.012 C 
ATOM     37  C   UNL     1       5.557 -13.157   5.734  0.00  0.00    +0.012 C 
ENDBRANCH  30  35
ENDBRANCH  23  26
ENDBRANCH   8  22
TORSDOF 5
