REMARK  Name = ZINC50852080
REMARK  2 active torsions:
REMARK  status: ('A' for Active; 'I' for Inactive)
REMARK    1  A    between atoms: C_1  and  N_2
REMARK    2  A    between atoms: C_7  and  C_9
REMARK                            x       y       z     vdW  Elec       q    Type
REMARK                         _______ _______ _______ _____ _____    ______ ____
ROOT
ATOM      1  C   UNL     1      -0.018   1.461   0.010  0.00  0.00    +0.127 C 
ATOM      2  N   UNL     1       0.002  -0.004   0.002  0.00  0.00    -0.332 N 
ATOM      3  C   UNL     1      -1.188  -0.713   0.010  0.00  0.00    +0.126 A 
ATOM      4  C   UNL     1      -1.178  -2.115   0.008  0.00  0.00    +0.014 A 
ATOM      5  C   UNL     1      -2.381  -2.780   0.018  0.00  0.00    +0.050 A 
ATOM      6  N   UNL     1      -3.508  -2.074   0.023  0.00  0.00    -0.232 NA
ATOM      7  C   UNL     1      -3.490  -0.751   0.024  0.00  0.00    +0.162 A 
ATOM      8  N   UNL     1      -2.350  -0.073   0.024  0.00  0.00    -0.213 NA
ATOM      9  C   UNL     1      -2.476  -4.281   0.033  0.00  0.00    +0.056 C 
ATOM     10  C   UNL     1      -1.152  -4.906  -0.404  0.00  0.00    +0.006 C 
ATOM     11  C   UNL     1      -0.022  -4.281   0.424  0.00  0.00    +0.005 C 
ATOM     12  C   UNL     1       0.146  -2.825  -0.009  0.00  0.00    +0.040 C 
ATOM     13  H   UNL     1       0.849  -0.478  -0.009  0.00  0.00    +0.147 HD
ENDROOT
BRANCH   7  14
ATOM     14  C   UNL     1      -4.774  -0.009   0.031  0.00  0.00    +0.019 A 
ATOM     15  C   UNL     1      -5.983  -0.703   0.042  0.00  0.00    +0.011 A 
ATOM     16  C   UNL     1      -7.175  -0.007   0.049  0.00  0.00    +0.001 A 
ATOM     17  C   UNL     1      -7.171   1.376   0.044  0.00  0.00    +0.000 A 
ATOM     18  C   UNL     1      -5.974   2.070   0.032  0.00  0.00    +0.001 A 
ATOM     19  C   UNL     1      -4.777   1.385   0.031  0.00  0.00    +0.011 A 
ENDBRANCH   7  14
TORSDOF 1
