REMARK  Name = ZINC66931430
REMARK  7 active torsions:
REMARK  status: ('A' for Active; 'I' for Inactive)
REMARK    1  A    between atoms: C_1  and  C_2
REMARK    2  A    between atoms: C_2  and  C_4
REMARK    3  A    between atoms: C_2  and  N_19
REMARK    4  A    between atoms: N_6  and  C_7
REMARK    5  A    between atoms: C_7  and  C_8
REMARK    6  A    between atoms: C_8  and  O_18
REMARK    7  A    between atoms: C_20  and  C_22
REMARK                            x       y       z     vdW  Elec       q    Type
REMARK                         _______ _______ _______ _____ _____    ______ ____
ROOT
ATOM      1  C   UNL     1       0.647  -0.176   1.433  0.00  0.00    +0.233 C 
ATOM      2  O   UNL     1       0.058  -0.815   2.279  0.00  0.00    -0.274 OA
ATOM      3  N   UNL     1       1.985  -0.032   1.509  0.00  0.00    -0.311 N 
ATOM      4  H   UNL     1       2.457   0.479   0.833  0.00  0.00    +0.149 HD
ENDROOT
BRANCH   1   6
ATOM      5  C   UNL     1       0.091   1.972   0.326  0.00  0.00    +0.038 C 
ATOM      6  C   UNL     1      -0.116   0.456   0.298  0.00  0.00    +0.156 C 
BRANCH   6   7
ATOM      7  N   UNL     1      -1.542   0.155   0.441  0.00  0.00    -0.299 N 
ATOM      8  C   UNL     1      -2.343   0.155  -0.643  0.00  0.00    +0.265 C 
ATOM      9  O   UNL     1      -1.881   0.404  -1.740  0.00  0.00    -0.268 OA
ATOM     10  H   UNL     1      -1.911  -0.043   1.317  0.00  0.00    +0.150 HD
BRANCH   8  11
ATOM     11  C   UNL     1      -3.778  -0.148  -0.498  0.00  0.00    +0.154 A 
ATOM     12  C   UNL     1      -4.781  -0.190  -1.571  0.00  0.00    +0.032 A 
ATOM     13  C   UNL     1      -4.771   0.011  -2.948  0.00  0.00    +0.012 A 
ATOM     14  C   UNL     1      -5.932  -0.114  -3.659  0.00  0.00    +0.001 A 
ATOM     15  C   UNL     1      -7.120  -0.439  -3.017  0.00  0.00    +0.002 A 
ATOM     16  C   UNL     1      -7.152  -0.642  -1.656  0.00  0.00    +0.028 A 
ATOM     17  C   UNL     1      -5.983  -0.520  -0.913  0.00  0.00    +0.066 A 
ATOM     18  N   UNL     1      -5.665  -0.650   0.414  0.00  0.00    -0.276 N 
ATOM     19  N   UNL     1      -4.415  -0.440   0.616  0.00  0.00    -0.168 NA
ATOM     20  H   UNL     1      -6.302  -0.875   1.110  0.00  0.00    +0.189 HD
ENDBRANCH   8  11
ENDBRANCH   6   7
ENDBRANCH   1   6
BRANCH   3  21
ATOM     21  C   UNL     1       2.727  -0.647   2.613  0.00  0.00    +0.143 C 
BRANCH  21  22
ATOM     22  C   UNL     1       4.195  -0.222   2.540  0.00  0.00    +0.107 C 
ATOM     23  C   UNL     1       4.281   1.303   2.581  0.00  0.00    +0.041 C 
ATOM     24  C   UNL     1       5.754   1.701   2.727  0.00  0.00    +0.008 C 
ATOM     25  C   UNL     1       6.220   1.316   4.129  0.00  0.00    +0.035 C 
ATOM     26  C   UNL     1       5.878  -0.121   4.425  0.00  0.00    -0.041 A 
ATOM     27  C   UNL     1       4.946  -0.826   3.698  0.00  0.00    -0.011 A 
ATOM     28  C   UNL     1       4.672  -2.147   4.027  0.00  0.00    +0.007 A 
ATOM     29  C   UNL     1       5.329  -2.759   5.074  0.00  0.00    +0.000 A 
ATOM     30  C   UNL     1       6.268  -2.053   5.802  0.00  0.00    +0.000 A 
ATOM     31  C   UNL     1       6.540  -0.739   5.478  0.00  0.00    +0.004 A 
BRANCH  22  32
ATOM     32  O   UNL     1       4.761  -0.692   1.315  0.00  0.00    -0.382 OA
ATOM     33  H   UNL     1       4.735  -1.653   1.213  0.00  0.00    +0.211 HD
ENDBRANCH  22  32
ENDBRANCH  21  22
ENDBRANCH   3  21
TORSDOF 6
