REMARK  Name = ZINC16010157
REMARK  3 active torsions:
REMARK  status: ('A' for Active; 'I' for Inactive)
REMARK    1  A    between atoms: C_13  and  C_16
REMARK    2  A    between atoms: C_16  and  C_17
REMARK    3  A    between atoms: N_22  and  C_25
REMARK                            x       y       z     vdW  Elec       q    Type
REMARK                         _______ _______ _______ _____ _____    ______ ____
ROOT
ATOM      1  C   UNL     1      -0.017   1.380   0.010  0.00  0.00    +0.040 A 
ATOM      2  C   UNL     1       1.165   2.092   0.002  0.00  0.00    +0.026 A 
ATOM      3  C   UNL     1       2.386   1.424  -0.012  0.00  0.00    +0.039 A 
ATOM      4  C   UNL     1       2.394   0.032  -0.019  0.00  0.00    +0.006 A 
ATOM      5  C   UNL     1       1.214  -0.676  -0.013  0.00  0.00    +0.046 A 
ATOM      6  C   UNL     1       0.002  -0.004   0.002  0.00  0.00    +0.124 A 
ATOM      7  F   UNL     1      -1.157  -0.698   0.010  0.00  0.00    -0.205 F 
ATOM      8  C   UNL     1       3.842  -0.371  -0.030  0.00  0.00    +0.136 C 
ATOM      9  C   UNL     1       4.183  -1.223  -1.257  0.00  0.00    +0.122 C 
ATOM     10  C   UNL     1       4.160  -2.688  -0.737  0.00  0.00    +0.107 C 
ATOM     11  C   UNL     1       3.792  -2.570   0.757  0.00  0.00    +0.076 C 
ATOM     12  N   UNL     1       4.182  -1.196   1.145  0.00  0.00    -0.295 NA
ATOM     13  C   UNL     1       3.010  -3.308  -1.498  0.00  0.00    +0.227 C 
ATOM     14  O   UNL     1       2.642  -4.459  -1.396  0.00  0.00    -0.275 OA
ATOM     15  N   UNL     1       2.461  -2.390  -2.302  0.00  0.00    -0.238 N 
ATOM     16  C   UNL     1       3.046  -1.172  -2.251  0.00  0.00    +0.228 C 
ATOM     17  O   UNL     1       2.718  -0.195  -2.890  0.00  0.00    -0.275 OA
ATOM     18  C   UNL     1       4.608   0.924  -0.030  0.00  0.00    +0.243 C 
ATOM     19  O   UNL     1       5.814   1.051  -0.038  0.00  0.00    -0.273 OA
ATOM     20  N   UNL     1       3.695   1.914  -0.021  0.00  0.00    -0.283 N 
ATOM     21  H   UNL     1       5.170  -1.153   1.343  0.00  0.00    +0.124 HD
ATOM     22  H   UNL     1       3.920   2.858  -0.021  0.00  0.00    +0.155 HD
ENDROOT
BRANCH  15  23
ATOM     23  C   UNL     1       1.321  -2.680  -3.174  0.00  0.00    +0.084 C 
ATOM     24  C   UNL     1       0.130  -3.130  -2.325  0.00  0.00    +0.023 C 
ATOM     25  C   UNL     1      -1.061  -3.433  -3.236  0.00  0.00    +0.002 C 
ATOM     26  C   UNL     1      -0.684  -4.547  -4.215  0.00  0.00    +0.000 C 
ATOM     27  C   UNL     1       0.507  -4.097  -5.065  0.00  0.00    +0.002 C 
ATOM     28  C   UNL     1       1.698  -3.794  -4.153  0.00  0.00    +0.023 C 
ENDBRANCH  15  23
BRANCH  11  29
ATOM     29  C   UNL     1       4.558  -3.611   1.577  0.00  0.00    +0.115 C 
BRANCH  29  30
ATOM     30  C   UNL     1       4.095  -3.561   3.010  0.00  0.00    +0.212 C 
ATOM     31  O   UNL     1       3.237  -2.771   3.344  0.00  0.00    -0.276 OA
ATOM     32  N   UNL     1       4.634  -4.395   3.922  0.00  0.00    -0.329 N 
ATOM     33  H   UNL     1       5.320  -5.027   3.656  0.00  0.00    +0.145 HD
ATOM     34  H   UNL     1       4.336  -4.362   4.845  0.00  0.00    +0.145 HD
ENDBRANCH  29  30
ENDBRANCH  11  29
TORSDOF 3
