REMARK  Name = ZINC14595645
REMARK  5 active torsions:
REMARK  status: ('A' for Active; 'I' for Inactive)
REMARK    1  A    between atoms: C_6  and  N_7
REMARK    2  A    between atoms: C_9  and  C_14
REMARK    3  A    between atoms: N_16  and  N_17
REMARK    4  A    between atoms: C_18  and  C_20
REMARK    5  A    between atoms: C_20  and  C_21
REMARK                            x       y       z     vdW  Elec       q    Type
REMARK                         _______ _______ _______ _____ _____    ______ ____
ROOT
ATOM      1  C   UNL     1      -0.801   0.608  -2.332  0.00  0.00    +0.234 C 
ATOM      2  O   UNL     1      -0.231  -0.454  -2.193  0.00  0.00    -0.274 OA
ATOM      3  N   UNL     1      -1.437   0.886  -3.487  0.00  0.00    -0.234 N 
ATOM      4  H   UNL     1      -1.893   1.735  -3.598  0.00  0.00    +0.173 HD
ENDROOT
BRANCH   1   7
ATOM      5  N   UNL     1      -0.737   1.577   1.186  0.00  0.00    -0.271 N 
ATOM      6  C   UNL     1      -0.013   1.086   0.008  0.00  0.00    +0.127 C 
ATOM      7  C   UNL     1      -0.798   1.617  -1.212  0.00  0.00    +0.103 C 
ATOM      8  C   UNL     1      -2.216   1.792  -0.622  0.00  0.00    +0.110 C 
ATOM      9  C   UNL     1      -1.981   1.975   0.862  0.00  0.00    +0.221 C 
ATOM     10  O   UNL     1      -2.795   2.417   1.645  0.00  0.00    -0.275 OA
BRANCH   5  16
ATOM     11  C   UNL     1       1.095   1.186   2.712  0.00  0.00    +0.027 A 
ATOM     12  C   UNL     1       1.625   1.237   3.987  0.00  0.00    +0.051 A 
ATOM     13  C   UNL     1       0.862   1.718   5.040  0.00  0.00    +0.162 A 
ATOM     14  C   UNL     1      -0.437   2.158   4.811  0.00  0.00    +0.164 A 
ATOM     15  C   UNL     1      -0.967   2.109   3.531  0.00  0.00    +0.073 A 
ATOM     16  C   UNL     1      -0.201   1.626   2.480  0.00  0.00    +0.040 A 
ATOM     17  O   UNL     1      -1.198   2.641   5.830  0.00  0.00    -0.485 OA
ATOM     18  C   UNL     1      -0.767   2.330   7.160  0.00  0.00    +0.270 C 
ATOM     19  C   UNL     1       0.742   2.590   7.249  0.00  0.00    +0.270 C 
ATOM     20  O   UNL     1       1.399   1.753   6.291  0.00  0.00    -0.485 OA
ENDBRANCH   5  16
ENDBRANCH   1   7
BRANCH   3  21
ATOM     21  N   UNL     1      -1.440  -0.052  -4.528  0.00  0.00    -0.234 N 
ATOM     22  C   UNL     1      -2.076   0.226  -5.684  0.00  0.00    +0.230 C 
ATOM     23  O   UNL     1      -2.646   1.288  -5.822  0.00  0.00    -0.274 OA
ATOM     24  H   UNL     1      -0.984  -0.901  -4.418  0.00  0.00    +0.173 HD
BRANCH  22  25
ATOM     25  C   UNL     1      -2.078  -0.782  -6.803  0.00  0.00    +0.104 C 
BRANCH  25  26
ATOM     26  C   UNL     1      -2.864  -0.223  -7.991  0.00  0.00    -0.020 C 
ATOM     27  C   UNL     1      -4.303   0.065  -7.561  0.00  0.00    +0.011 C 
ATOM     28  C   UNL     1      -5.089   0.625  -8.749  0.00  0.00    -0.010 C 
ATOM     29  C   UNL     1      -5.092  -0.399  -9.886  0.00  0.00    +0.007 C 
ATOM     30  C   UNL     1      -3.652  -0.687 -10.316  0.00  0.00    -0.010 C 
ATOM     31  C   UNL     1      -2.867  -1.247  -9.128  0.00  0.00    +0.011 C 
ATOM     32  C   UNL     1      -2.995   0.608 -10.798  0.00  0.00    +0.007 C 
ATOM     33  C   UNL     1      -2.992   1.632  -9.661  0.00  0.00    -0.010 C 
ATOM     34  C   UNL     1      -4.431   1.920  -9.230  0.00  0.00    +0.007 C 
ATOM     35  C   UNL     1      -2.207   1.072  -8.473  0.00  0.00    +0.011 C 
ENDBRANCH  25  26
ENDBRANCH  22  25
ENDBRANCH   3  21
TORSDOF 5
