REMARK  Name = ZINC66239911
REMARK  9 active torsions:
REMARK  status: ('A' for Active; 'I' for Inactive)
REMARK    1  A    between atoms: C_1  and  C_2
REMARK    2  A    between atoms: C_2  and  C_3
REMARK    3  A    between atoms: C_2  and  C_4
REMARK    4  A    between atoms: C_4  and  C_6
REMARK    5  A    between atoms: C_4  and  N_11
REMARK    6  A    between atoms: C_12  and  C_14
REMARK    7  A    between atoms: C_17  and  N_20
REMARK    8  A    between atoms: C_21  and  N_27
REMARK    9  A    between atoms: C_22  and  C_25
REMARK                            x       y       z     vdW  Elec       q    Type
REMARK                         _______ _______ _______ _____ _____    ______ ____
ROOT
ATOM      1  C   UNL     1      -2.647  -0.522  -3.587  0.00  0.00    +0.037 A 
ATOM      2  C   UNL     1      -3.424   0.638  -3.632  0.00  0.00    +0.015 A 
ATOM      3  C   UNL     1      -4.054   0.998  -4.803  0.00  0.00    +0.028 A 
ATOM      4  C   UNL     1      -3.918   0.207  -5.939  0.00  0.00    +0.067 A 
ATOM      5  C   UNL     1      -3.145  -0.948  -5.898  0.00  0.00    +0.028 A 
ATOM      6  C   UNL     1      -2.508  -1.311  -4.732  0.00  0.00    +0.015 A 
ENDROOT
BRANCH   4   7
ATOM      7  N   UNL     1      -4.559   0.575  -7.125  0.00  0.00    -0.218 N 
ATOM      8  C   UNL     1      -4.077   0.385  -8.381  0.00  0.00    +0.137 A 
ATOM      9  C   UNL     1      -5.028   0.894  -9.262  0.00  0.00    +0.111 A 
ATOM     10  C   UNL     1      -6.094   1.395  -8.479  0.00  0.00    +0.155 A 
ATOM     11  N   UNL     1      -5.809   1.196  -7.222  0.00  0.00    -0.172 NA
BRANCH   8  12
ATOM     12  N   UNL     1      -2.873  -0.201  -8.720  0.00  0.00    -0.342 N 
ATOM     13  H   UNL     1      -2.279  -0.524  -8.025  0.00  0.00    +0.144 HD
ATOM     14  H   UNL     1      -2.622  -0.289  -9.653  0.00  0.00    +0.144 HD
ENDBRANCH   8  12
BRANCH   9  15
ATOM     15  C   UNL     1      -4.942   0.909 -10.692  0.00  0.00    +0.104 C 
ATOM     16  N   UNL     1      -4.874   0.920 -11.825  0.00  0.00    -0.191 NA
ENDBRANCH   9  15
ENDBRANCH   4   7
BRANCH   1  18
ATOM     17  N   UNL     1      -2.105  -0.148  -1.230  0.00  0.00    -0.304 N 
ATOM     18  C   UNL     1      -1.970  -0.910  -2.334  0.00  0.00    +0.245 C 
ATOM     19  O   UNL     1      -1.290  -1.917  -2.297  0.00  0.00    -0.270 OA
ATOM     20  H   UNL     1      -2.648   0.655  -1.260  0.00  0.00    +0.150 HD
BRANCH  17  21
ATOM     21  C   UNL     1      -1.433  -0.534   0.013  0.00  0.00    +0.113 C 
BRANCH  21  22
ATOM     22  C   UNL     1      -2.175   0.051   1.187  0.00  0.00    +0.010 A 
ATOM     23  C   UNL     1      -2.442  -0.508   2.393  0.00  0.00    +0.013 A 
ATOM     24  C   UNL     1      -3.147   0.223   3.330  0.00  0.00    +0.008 A 
ATOM     25  C   UNL     1      -3.551   1.478   3.016  0.00  0.00    +0.045 A 
ATOM     26  S   UNL     1      -2.926   1.662   1.354  0.00  0.00    -0.100 S 
ENDBRANCH  21  22
BRANCH  21  28
ATOM     27  C   UNL     1      -0.019   1.526   0.010  0.00  0.00    +0.009 C 
ATOM     28  C   UNL     1       0.002  -0.004   0.002  0.00  0.00    +0.008 C 
ATOM     29  C   UNL     1       0.742  -0.511   1.242  0.00  0.00    +0.009 C 
ENDBRANCH  21  28
ENDBRANCH  17  21
ENDBRANCH   1  18
TORSDOF 7
