REMARK  Name = ZINC06409879
REMARK  10 active torsions:
REMARK  status: ('A' for Active; 'I' for Inactive)
REMARK    1  A    between atoms: C_1  and  C_2
REMARK    2  A    between atoms: C_7  and  C_14
REMARK    3  A    between atoms: C_14  and  C_16
REMARK    4  A    between atoms: C_14  and  N_68
REMARK    5  A    between atoms: N_20  and  C_21
REMARK    6  A    between atoms: C_21  and  C_22
REMARK    7  A    between atoms: C_28  and  C_29
REMARK    8  A    between atoms: C_28  and  N_68
REMARK    9  A    between atoms: C_36  and  C_37
REMARK   10  A    between atoms: C_36  and  N_68
REMARK                            x       y       z     vdW  Elec       q    Type
REMARK                         _______ _______ _______ _____ _____    ______ ____
ROOT
ATOM      1  C   UNL     1       4.692   1.270  -0.501  0.00  0.00    +0.040 C 
ENDROOT
BRANCH   1   8
ATOM      2  C   UNL     1      -3.124   2.818  -0.859  0.00  0.00    +0.044 C 
ATOM      3  C   UNL     1      -1.709   2.302  -0.813  0.00  0.00    -0.048 A 
ATOM      4  C   UNL     1      -1.472   0.938  -0.919  0.00  0.00    +0.004 A 
ATOM      5  C   UNL     1      -0.198   0.448  -0.874  0.00  0.00    +0.010 A 
ATOM      6  C   UNL     1       0.879   1.329  -0.732  0.00  0.00    -0.001 A 
ATOM      7  C   UNL     1       2.258   0.839  -0.687  0.00  0.00    +0.017 A 
ATOM      8  C   UNL     1       3.261   1.740  -0.550  0.00  0.00    +0.011 A 
ATOM      9  C   UNL     1       2.971   3.118  -0.452  0.00  0.00    +0.251 A 
ATOM     10  O   UNL     1       3.888   3.912  -0.329  0.00  0.00    -0.268 OA
ATOM     11  N   UNL     1       1.708   3.578  -0.492  0.00  0.00    -0.322 N 
ATOM     12  H   UNL     1       1.544   4.531  -0.423  0.00  0.00    +0.169 HD
ATOM     13  C   UNL     1       0.643   2.713  -0.631  0.00  0.00    +0.049 A 
ATOM     14  C   UNL     1      -0.664   3.188  -0.673  0.00  0.00    +0.029 A 
ENDBRANCH   1   8
BRANCH   1  15
ATOM     15  C   UNL     1       5.438   1.801  -1.698  0.00  0.00    +0.143 A 
ATOM     16  N   UNL     1       6.026   2.968  -1.798  0.00  0.00    -0.115 NA
ATOM     17  N   UNL     1       6.551   3.049  -2.972  0.00  0.00    -0.023 NA
ATOM     18  N   UNL     1       6.313   1.964  -3.622  0.00  0.00    -0.044 NA
ATOM     19  N   UNL     1       5.634   1.168  -2.869  0.00  0.00    -0.228 N 
BRANCH  19  20
ATOM     20  C   UNL     1       5.162  -0.173  -3.222  0.00  0.00    +0.178 C 
BRANCH  20  21
ATOM     21  C   UNL     1       3.837  -0.064  -3.980  0.00  0.00    +0.140 C 
ATOM     22  C   UNL     1       3.274  -1.475  -4.256  0.00  0.00    +0.035 C 
ATOM     23  C   UNL     1       2.699  -1.325  -5.691  0.00  0.00    +0.031 C 
ATOM     24  C   UNL     1       3.711  -0.330  -6.311  0.00  0.00    +0.160 C 
ATOM     25  O   UNL     1       4.052   0.571  -5.246  0.00  0.00    -0.375 OA
ENDBRANCH  20  21
ENDBRANCH  19  20
ENDBRANCH   1  15
BRANCH   1  26
ATOM     26  N   UNL     1       5.326   1.789   0.729  0.00  0.00    +0.397 N 
ATOM     27  H   UNL     1       5.297   2.815   0.712  0.00  0.00    -0.079 HD
BRANCH  26  28
ATOM     28  C   UNL     1       4.592   1.308   1.918  0.00  0.00    -0.041 C 
BRANCH  28  29
ATOM     29  C   UNL     1       5.007   2.132   3.110  0.00  0.00    -0.064 A 
ATOM     30  C   UNL     1       6.024   1.690   3.935  0.00  0.00    +0.004 A 
ATOM     31  C   UNL     1       6.409   2.447   5.025  0.00  0.00    +0.038 A 
ATOM     32  C   UNL     1       5.768   3.644   5.296  0.00  0.00    +0.123 A 
ATOM     33  C   UNL     1       4.746   4.084   4.472  0.00  0.00    +0.038 A 
ATOM     34  C   UNL     1       4.367   3.327   3.380  0.00  0.00    +0.004 A 
ATOM     35  F   UNL     1       6.140   4.384   6.364  0.00  0.00    -0.205 F 
ENDBRANCH  28  29
ENDBRANCH  26  28
BRANCH  26  36
ATOM     36  C   UNL     1       6.736   1.351   0.794  0.00  0.00    -0.001 C 
BRANCH  36  37
ATOM     37  C   UNL     1       6.822  -0.154   0.808  0.00  0.00    +0.089 A 
ATOM     38  C   UNL     1       6.959  -0.944  -0.272  0.00  0.00    +0.042 A 
ATOM     39  C   UNL     1       6.998  -2.277   0.198  0.00  0.00    +0.041 A 
ATOM     40  C   UNL     1       6.875  -2.222   1.537  0.00  0.00    +0.195 A 
ATOM     41  O   UNL     1       6.769  -0.933   1.900  0.00  0.00    -0.470 OA
ENDBRANCH  36  37
ENDBRANCH  26  36
ENDBRANCH   1  26
TORSDOF 9
