REMARK  Name = ZINC09014336
REMARK  12 active torsions:
REMARK  status: ('A' for Active; 'I' for Inactive)
REMARK    1  A    between atoms: C_1  and  C_2
REMARK    2  A    between atoms: C_2  and  N_56
REMARK    3  A    between atoms: C_3  and  C_4
REMARK    4  A    between atoms: C_3  and  N_56
REMARK    5  A    between atoms: C_5  and  C_6
REMARK    6  A    between atoms: C_5  and  N_56
REMARK    7  A    between atoms: C_6  and  N_7
REMARK    8  A    between atoms: C_8  and  C_26
REMARK    9  A    between atoms: C_10  and  C_15
REMARK   10  A    between atoms: C_11  and  O_14
REMARK   11  A    between atoms: C_15  and  C_17
REMARK   12  A    between atoms: C_20  and  N_23
REMARK                            x       y       z     vdW  Elec       q    Type
REMARK                         _______ _______ _______ _____ _____    ______ ____
ROOT
ATOM      1  N   UNL     1      -3.558  -0.347   1.054  0.00  0.00    -0.285 N 
ATOM      2  C   UNL     1      -3.979  -1.686   0.625  0.00  0.00    +0.144 C 
ATOM      3  C   UNL     1      -5.446  -1.798   0.973  0.00  0.00    +0.071 C 
ATOM      4  C   UNL     1      -5.804  -0.621   1.538  0.00  0.00    +0.188 C 
ATOM      5  C   UNL     1      -4.628   0.274   1.584  0.00  0.00    +0.282 C 
ATOM      6  O   UNL     1      -4.627   1.402   2.035  0.00  0.00    -0.267 OA
ENDROOT
BRANCH   2   7
ATOM      7  C   UNL     1      -3.192  -2.738   1.363  0.00  0.00    -0.022 A 
ATOM      8  C   UNL     1      -3.041  -2.653   2.734  0.00  0.00    +0.007 A 
ATOM      9  C   UNL     1      -2.323  -3.620   3.412  0.00  0.00    +0.015 A 
ATOM     10  C   UNL     1      -1.748  -4.668   2.716  0.00  0.00    +0.018 A 
ATOM     11  C   UNL     1      -1.895  -4.751   1.343  0.00  0.00    +0.015 A 
ATOM     12  C   UNL     1      -2.618  -3.785   0.667  0.00  0.00    +0.007 A 
ATOM     13 BR   UNL     1      -0.760  -5.989   3.642  0.00  0.00    -0.050 Br
ENDBRANCH   2   7
BRANCH   4  14
ATOM     14  O   UNL     1      -7.042  -0.312   1.987  0.00  0.00    -0.502 OA
ATOM     15  H   UNL     1      -7.040   0.617   2.357  0.00  0.00    +0.292 HD
ENDBRANCH   4  14
BRANCH   3  16
ATOM     16  C   UNL     1      -6.314  -2.956   0.739  0.00  0.00    +0.195 C 
ATOM     17  O   UNL     1      -6.774  -3.571   1.683  0.00  0.00    -0.287 OA
BRANCH  16  18
ATOM     18  C   UNL     1      -6.630  -3.376  -0.643  0.00  0.00    +0.022 A 
ATOM     19  C   UNL     1      -6.203  -2.603  -1.725  0.00  0.00    +0.014 A 
ATOM     20  C   UNL     1      -6.498  -3.003  -3.012  0.00  0.00    +0.033 A 
ATOM     21  C   UNL     1      -7.223  -4.162  -3.231  0.00  0.00    +0.126 A 
ATOM     22  C   UNL     1      -7.653  -4.929  -2.163  0.00  0.00    +0.033 A 
ATOM     23  C   UNL     1      -7.361  -4.543  -0.871  0.00  0.00    +0.014 A 
BRANCH  21  24
ATOM     24  N   UNL     1      -7.540  -4.582  -4.615  0.00  0.00    +0.056 N 
ATOM     25  O   UNL     1      -8.178  -5.600  -4.811  0.00  0.00    -0.126 OA
ATOM     26  O   UNL     1      -7.162  -3.908  -5.557  0.00  0.00    -0.126 OA
ENDBRANCH  21  24
ENDBRANCH  16  18
ENDBRANCH   3  16
BRANCH   1  27
ATOM     27  C   UNL     1      -2.212   0.216   0.923  0.00  0.00    +0.090 C 
BRANCH  27  28
ATOM     28  C   UNL     1      -1.399  -0.107   2.179  0.00  0.00    -0.060 C 
BRANCH  28  29
ATOM     29  N   UNL     1      -0.101   0.594   2.095  0.00  0.00    +0.380 N 
ATOM     30  H   UNL     1      -0.258   1.547   1.747  0.00  0.00    -0.082 HD
BRANCH  29  32
ATOM     31  C   UNL     1       1.128  -1.513   1.694  0.00  0.00    -0.017 C 
ATOM     32  C   UNL     1       0.798  -0.117   1.162  0.00  0.00    -0.082 C 
ENDBRANCH  29  32
BRANCH  29  33
ATOM     33  C   UNL     1       0.519   0.669   3.435  0.00  0.00    -0.082 C 
ATOM     34  C   UNL     1       1.742   1.586   3.362  0.00  0.00    -0.017 C 
ENDBRANCH  29  33
ENDBRANCH  28  29
ENDBRANCH  27  28
ENDBRANCH   1  27
TORSDOF 10
