REMARK  Name = ZINC43641374
REMARK  9 active torsions:
REMARK  status: ('A' for Active; 'I' for Inactive)
REMARK    1  A    between atoms: C_1  and  C_2
REMARK    2  A    between atoms: C_5  and  C_7
REMARK    3  A    between atoms: C_7  and  N_8
REMARK    4  A    between atoms: C_13  and  C_22
REMARK    5  A    between atoms: C_25  and  C_28
REMARK    6  A    between atoms: C_29  and  C_30
REMARK    7  A    between atoms: C_30  and  C_31
REMARK    8  A    between atoms: C_30  and  C_32
REMARK    9  A    between atoms: C_30  and  O_33
REMARK                            x       y       z     vdW  Elec       q    Type
REMARK                         _______ _______ _______ _____ _____    ______ ____
ROOT
ATOM      1  N   UNL     1       1.983  -3.620  -1.407  0.00  0.00    -0.295 N 
ATOM      2  C   UNL     1       1.202  -4.584  -2.189  0.00  0.00    +0.110 C 
ATOM      3  C   UNL     1       1.614  -4.380  -3.659  0.00  0.00    +0.003 C 
ATOM      4  C   UNL     1       0.706  -3.306  -4.307  0.00  0.00    -0.007 C 
ATOM      5  C   UNL     1       1.698  -2.593  -5.262  0.00  0.00    -0.036 C 
ATOM      6  N   UNL     1       2.980  -2.560  -4.526  0.00  0.00    +0.394 N 
ATOM      7  C   UNL     1       2.979  -3.662  -3.522  0.00  0.00    +0.018 C 
ATOM      8  C   UNL     1       3.004  -3.119  -2.124  0.00  0.00    +0.206 C 
ATOM      9  O   UNL     1       3.831  -2.340  -1.699  0.00  0.00    -0.277 OA
ATOM     10  C   UNL     1       4.139  -4.615  -3.817  0.00  0.00    -0.004 C 
ATOM     11  C   UNL     1       5.102  -3.741  -4.665  0.00  0.00    -0.019 C 
ATOM     12  C   UNL     1       4.089  -2.832  -5.469  0.00  0.00    -0.077 C 
ATOM     13  H   UNL     1       3.108  -1.663  -4.083  0.00  0.00    -0.079 HD
ENDROOT
BRANCH   5  14
ATOM     14  C   UNL     1       1.225  -1.194  -5.559  0.00  0.00    -0.061 A 
ATOM     15  C   UNL     1       1.428  -0.187  -4.632  0.00  0.00    +0.003 A 
ATOM     16  C   UNL     1       0.998   1.097  -4.898  0.00  0.00    +0.017 A 
ATOM     17  C   UNL     1       0.358   1.379  -6.105  0.00  0.00    +0.025 A 
ATOM     18  C   UNL     1       0.156   0.359  -7.035  0.00  0.00    +0.017 A 
ATOM     19  C   UNL     1       0.595  -0.919  -6.760  0.00  0.00    +0.003 A 
BRANCH  17  20
ATOM     20  C   UNL     1      -0.091   2.709  -6.387  0.00  0.00    -0.063 C 
ATOM     21  C   UNL     1      -0.460   3.800  -6.618  0.00  0.00    -0.063 C 
BRANCH  21  22
ATOM     22  C   UNL     1      -0.921   5.167  -6.907  0.00  0.00    +0.121 C 
ATOM     23  C   UNL     1      -1.584   5.200  -8.286  0.00  0.00    +0.055 C 
ATOM     24  C   UNL     1      -1.933   5.600  -5.844  0.00  0.00    +0.055 C 
BRANCH  22  25
ATOM     25  O   UNL     1       0.195   6.059  -6.894  0.00  0.00    -0.377 OA
ATOM     26  H   UNL     1      -0.035   6.980  -7.078  0.00  0.00    +0.211 HD
ENDBRANCH  22  25
ENDBRANCH  21  22
ENDBRANCH  17  20
ENDBRANCH   5  14
BRANCH   1  27
ATOM     27  C   UNL     1       1.684  -3.245  -0.023  0.00  0.00    +0.181 C 
BRANCH  27  32
ATOM     28  C   UNL     1      -0.018   1.503   0.010  0.00  0.00    +0.086 C 
ATOM     29  C   UNL     1       0.002  -0.004   0.002  0.00  0.00    +0.102 A 
ATOM     30  C   UNL     1      -1.078  -0.805   0.003  0.00  0.00    +0.045 A 
ATOM     31  C   UNL     1      -0.601  -2.136  -0.007  0.00  0.00    +0.046 A 
ATOM     32  C   UNL     1       0.742  -2.069  -0.013  0.00  0.00    +0.122 A 
ATOM     33  O   UNL     1       1.102  -0.775  -0.013  0.00  0.00    -0.463 OA
ENDBRANCH  27  32
ENDBRANCH   1  27
TORSDOF 6
