REMARK  Name = ZINC12535203
REMARK  6 active torsions:
REMARK  status: ('A' for Active; 'I' for Inactive)
REMARK    1  A    between atoms: C_4  and  C_7
REMARK    2  A    between atoms: C_8  and  C_21
REMARK    3  A    between atoms: N_10  and  C_13
REMARK    4  A    between atoms: C_11  and  N_12
REMARK    5  A    between atoms: C_21  and  S_22
REMARK    6  A    between atoms: S_22  and  C_23
REMARK                            x       y       z     vdW  Elec       q    Type
REMARK                         _______ _______ _______ _____ _____    ______ ____
ROOT
ATOM      1  C   UNL     1       7.492   5.047  -1.179  0.00  0.00    +0.045 A 
ATOM      2  C   UNL     1       6.736   4.682  -0.048  0.00  0.00    +0.083 A 
ATOM      3  N   UNL     1       7.502   4.766   1.006  0.00  0.00    -0.168 NA
ATOM      4  N   UNL     1       8.780   5.176   0.609  0.00  0.00    -0.215 N 
ATOM      5  C   UNL     1       8.769   5.352  -0.739  0.00  0.00    +0.128 A 
ENDROOT
BRANCH   4   6
ATOM      6  C   UNL     1       9.881   5.377   1.456  0.00  0.00    +0.103 A 
ATOM      7  C   UNL     1      11.118   4.841   1.127  0.00  0.00    +0.033 A 
ATOM      8  C   UNL     1      12.201   5.043   1.960  0.00  0.00    +0.040 A 
ATOM      9  C   UNL     1      12.052   5.772   3.128  0.00  0.00    +0.126 A 
ATOM     10  C   UNL     1      10.819   6.304   3.462  0.00  0.00    +0.078 A 
ATOM     11  C   UNL     1       9.732   6.108   2.629  0.00  0.00    +0.151 A 
ATOM     12  F   UNL     1       8.528   6.626   2.955  0.00  0.00    -0.203 F 
ATOM     13  F   UNL     1      13.113   5.964   3.943  0.00  0.00    -0.205 F 
ENDBRANCH   4   6
BRANCH   1  17
ATOM     14  C   UNL     1       6.112   5.185  -5.198  0.00  0.00    +0.000 A 
ATOM     15  C   UNL     1       6.500   6.351  -4.562  0.00  0.00    +0.001 A 
ATOM     16  C   UNL     1       6.949   6.312  -3.257  0.00  0.00    +0.008 A 
ATOM     17  C   UNL     1       7.011   5.095  -2.581  0.00  0.00    -0.013 A 
ATOM     18  C   UNL     1       6.625   3.923  -3.228  0.00  0.00    +0.008 A 
ATOM     19  C   UNL     1       6.172   3.975  -4.531  0.00  0.00    +0.001 A 
ENDBRANCH   1  17
BRANCH   5  20
ATOM     20  N   UNL     1       9.837   5.760  -1.526  0.00  0.00    -0.343 N 
ATOM     21  H   UNL     1       9.751   5.771  -2.492  0.00  0.00    +0.144 HD
ATOM     22  H   UNL     1      10.669   6.035  -1.110  0.00  0.00    +0.144 HD
ENDBRANCH   5  20
BRANCH   2  23
ATOM     23  C   UNL     1       5.286   4.271  -0.053  0.00  0.00    +0.135 C 
BRANCH  23  24
ATOM     24  S   UNL     1       5.168   2.478  -0.272  0.00  0.00    -0.082 S 
BRANCH  24  25
ATOM     25  C   UNL     1       3.417   2.281  -0.241  0.00  0.00    +0.168 A 
ATOM     26  N   UNL     1       2.759   1.091  -0.367  0.00  0.00    -0.333 N 
ATOM     27  H   UNL     1       3.178   0.191  -0.492  0.00  0.00    +0.168 HD
ATOM     28  C   UNL     1       1.402   1.361  -0.291  0.00  0.00    +0.067 A 
ATOM     29  C   UNL     1       0.261   0.577  -0.352  0.00  0.00    +0.028 A 
ATOM     30  C   UNL     1      -0.983   1.165  -0.245  0.00  0.00    +0.002 A 
ATOM     31  C   UNL     1      -1.099   2.535  -0.067  0.00  0.00    +0.002 A 
ATOM     32  C   UNL     1       0.024   3.330  -0.004  0.00  0.00    +0.030 A 
ATOM     33  C   UNL     1       1.290   2.751  -0.116  0.00  0.00    +0.090 A 
ATOM     34  N   UNL     1       2.552   3.254  -0.093  0.00  0.00    -0.222 NA
ENDBRANCH  24  25
ENDBRANCH  23  24
ENDBRANCH   2  23
TORSDOF 6
