REMARK  Name = ZINC39541455
REMARK  11 active torsions:
REMARK  status: ('A' for Active; 'I' for Inactive)
REMARK    1  A    between atoms: C_1  and  C_2
REMARK    2  A    between atoms: C_4  and  C_8
REMARK    3  A    between atoms: C_8  and  N_9
REMARK    4  A    between atoms: N_9  and  C_10
REMARK    5  A    between atoms: N_9  and  C_11
REMARK    6  A    between atoms: C_11  and  C_12
REMARK    7  A    between atoms: C_17  and  C_18
REMARK    8  A    between atoms: C_23  and  C_26
REMARK    9  A    between atoms: C_26  and  C_27
REMARK   10  A    between atoms: C_27  and  C_28
REMARK   11  A    between atoms: C_27  and  C_29
REMARK                            x       y       z     vdW  Elec       q    Type
REMARK                         _______ _______ _______ _____ _____    ______ ____
ROOT
ATOM      1  C   UNL     1       0.157  -6.173  -2.799  0.00  0.00    -0.054 A 
ATOM      2  C   UNL     1       1.355  -6.112  -3.481  0.00  0.00    +0.002 A 
ATOM      3  C   UNL     1       2.122  -7.252  -3.642  0.00  0.00    +0.000 A 
ATOM      4  C   UNL     1       1.694  -8.461  -3.121  0.00  0.00    +0.001 A 
ATOM      5  C   UNL     1       0.498  -8.537  -2.438  0.00  0.00    +0.011 A 
ATOM      6  C   UNL     1      -0.278  -7.388  -2.265  0.00  0.00    +0.014 A 
ENDROOT
BRANCH   6   7
ATOM      7  C   UNL     1      -1.555  -7.460  -1.530  0.00  0.00    +0.119 C 
ATOM      8  N   UNL     1      -2.232  -6.355  -1.275  0.00  0.00    -0.165 NA
ATOM      9  C   UNL     1      -3.395  -6.363  -0.635  0.00  0.00    +0.240 C 
ATOM     10  O   UNL     1      -3.958  -5.310  -0.408  0.00  0.00    -0.274 OA
ATOM     11  C   UNL     1      -4.032  -7.653  -0.184  0.00  0.00    +0.120 C 
ATOM     12  C   UNL     1      -2.930  -8.693   0.056  0.00  0.00    +0.081 C 
ATOM     13  N   UNL     1      -2.038  -8.673  -1.118  0.00  0.00    -0.327 N 
ATOM     14  H   UNL     1      -1.800  -9.490  -1.582  0.00  0.00    +0.148 HD
BRANCH  12  15
ATOM     15  C   UNL     1      -2.144  -8.335   1.319  0.00  0.00    +0.025 C 
BRANCH  15  16
ATOM     16  C   UNL     1      -1.131  -9.441   1.621  0.00  0.00    -0.015 C 
ATOM     17  C   UNL     1      -0.261  -9.026   2.809  0.00  0.00    +0.007 C 
ATOM     18  C   UNL     1      -1.874 -10.735   1.960  0.00  0.00    +0.007 C 
ENDBRANCH  15  16
ENDBRANCH  12  15
ENDBRANCH   6   7
BRANCH   1  19
ATOM     19  C   UNL     1      -0.677  -4.930  -2.624  0.00  0.00    -0.043 C 
BRANCH  19  20
ATOM     20  N   UNL     1      -1.836  -4.987  -3.525  0.00  0.00    +0.382 N 
ATOM     21  C   UNL     1      -1.375  -4.946  -4.919  0.00  0.00    -0.096 C 
ATOM     22  H   UNL     1      -2.345  -5.843  -3.364  0.00  0.00    -0.082 HD
BRANCH  20  23
ATOM     23  C   UNL     1      -2.715  -3.839  -3.266  0.00  0.00    -0.046 C 
BRANCH  23  27
ATOM     24  C   UNL     1      -7.308  -2.843  -2.860  0.00  0.00    +0.067 C 
ATOM     25  C   UNL     1      -6.039  -3.508  -3.328  0.00  0.00    +0.058 C 
ATOM     26  C   UNL     1      -4.965  -2.857  -3.779  0.00  0.00    +0.024 C 
ATOM     27  C   UNL     1      -3.981  -3.964  -4.115  0.00  0.00    +0.136 C 
ATOM     28  N   UNL     1      -4.727  -5.186  -3.767  0.00  0.00    -0.182 NA
ATOM     29  N   UNL     1      -5.833  -4.843  -3.342  0.00  0.00    -0.159 NA
ENDBRANCH  23  27
ENDBRANCH  20  23
ENDBRANCH  19  20
ENDBRANCH   1  19
TORSDOF 7
