REMARK  Name = ZINC43090161
REMARK  7 active torsions:
REMARK  status: ('A' for Active; 'I' for Inactive)
REMARK    1  A    between atoms: C_1  and  C_2
REMARK    2  A    between atoms: C_2  and  C_4
REMARK    3  A    between atoms: C_2  and  N_23
REMARK    4  A    between atoms: C_4  and  C_6
REMARK    5  A    between atoms: C_4  and  S_13
REMARK    6  A    between atoms: S_13  and  C_14
REMARK    7  A    between atoms: C_20  and  N_22
REMARK                            x       y       z     vdW  Elec       q    Type
REMARK                         _______ _______ _______ _____ _____    ______ ____
ROOT
ATOM      1  C   UNL     1       0.767  -0.485   1.291  0.00  0.00    +0.071 C 
ENDROOT
BRANCH   1   2
ATOM      2  C   UNL     1       2.167  -0.091   0.897  0.00  0.00    -0.017 A 
ATOM      3  C   UNL     1       2.933  -0.943   0.124  0.00  0.00    +0.006 A 
ATOM      4  C   UNL     1       4.218  -0.582  -0.237  0.00  0.00    +0.000 A 
ATOM      5  C   UNL     1       4.736   0.632   0.174  0.00  0.00    +0.001 A 
ATOM      6  C   UNL     1       3.971   1.485   0.946  0.00  0.00    +0.020 A 
ATOM      7  C   UNL     1       2.683   1.126   1.304  0.00  0.00    +0.045 A 
ATOM      8 CL   UNL     1       1.719   2.200   2.268  0.00  0.00    -0.083 Cl
ENDBRANCH   1   2
BRANCH   1  10
ATOM      9  C   UNL     1      -0.223   1.545   0.222  0.00  0.00    -0.013 C 
ATOM     10  C   UNL     1      -0.220   0.015   0.234  0.00  0.00    -0.060 C 
BRANCH  10  11
ATOM     11  N   UNL     1      -1.568  -0.474   0.553  0.00  0.00    +0.381 N 
ATOM     12  H   UNL     1      -2.205  -0.207  -0.183  0.00  0.00    -0.090 HD
ATOM     13  H   UNL     1      -1.551  -1.480   0.635  0.00  0.00    -0.090 HD
ATOM     14  H   UNL     1      -1.875  -0.071   1.426  0.00  0.00    -0.090 HD
ENDBRANCH  10  11
ENDBRANCH   1  10
BRANCH   1  15
ATOM     15  S   UNL     1       0.659  -2.292   1.413  0.00  0.00    -0.081 S 
BRANCH  15  16
ATOM     16  C   UNL     1       1.661  -2.686   2.808  0.00  0.00    +0.171 A 
ATOM     17  N   UNL     1       1.890  -3.992   3.116  0.00  0.00    -0.302 N 
ATOM     18  H   UNL     1       1.503  -4.694   2.570  0.00  0.00    +0.171 HD
ATOM     19  C   UNL     1       2.655  -4.312   4.181  0.00  0.00    +0.254 A 
ATOM     20  O   UNL     1       2.866  -5.481   4.465  0.00  0.00    -0.268 OA
ATOM     21  C   UNL     1       3.203  -3.283   4.953  0.00  0.00    +0.113 A 
ATOM     22  C   UNL     1       2.938  -1.968   4.596  0.00  0.00    +0.124 A 
ATOM     23  N   UNL     1       2.177  -1.711   3.527  0.00  0.00    -0.209 NA
BRANCH  22  24
ATOM     24  N   UNL     1       3.464  -0.930   5.339  0.00  0.00    -0.343 N 
ATOM     25  H   UNL     1       4.019  -1.119   6.112  0.00  0.00    +0.144 HD
ATOM     26  H   UNL     1       3.279  -0.011   5.088  0.00  0.00    +0.144 HD
ENDBRANCH  22  24
ENDBRANCH  15  16
ENDBRANCH   1  15
TORSDOF 6
