REMARK  Name = ZINC44686592
REMARK  5 active torsions:
REMARK  status: ('A' for Active; 'I' for Inactive)
REMARK    1  A    between atoms: C_3  and  S_9
REMARK    2  A    between atoms: C_6  and  N_7
REMARK    3  A    between atoms: S_9  and  N_12
REMARK    4  A    between atoms: N_12  and  C_13
REMARK    5  A    between atoms: N_17  and  C_19
REMARK                            x       y       z     vdW  Elec       q    Type
REMARK                         _______ _______ _______ _____ _____    ______ ____
ROOT
ATOM      1  S   UNL     1       4.101   2.390  -0.096  0.00  0.00    +0.060 S 
ATOM      2  O   UNL     1       5.176   2.014  -0.946  0.00  0.00    -0.153 OA
ATOM      3  O   UNL     1       3.544   3.697  -0.104  0.00  0.00    -0.153 OA
ENDROOT
BRANCH   1   6
ATOM      4  C   UNL     1       1.897  -0.580  -1.662  0.00  0.00    +0.025 A 
ATOM      5  C   UNL     1       2.932   0.295  -1.395  0.00  0.00    +0.031 A 
ATOM      6  C   UNL     1       2.778   1.276  -0.433  0.00  0.00    +0.119 A 
ATOM      7  C   UNL     1       1.588   1.386   0.264  0.00  0.00    +0.046 A 
ATOM      8  C   UNL     1       0.549   0.514   0.002  0.00  0.00    +0.040 A 
ATOM      9  C   UNL     1       0.701  -0.473  -0.964  0.00  0.00    +0.026 A 
ATOM     10 BR   UNL     1       1.384   2.730   1.578  0.00  0.00    -0.048 Br
BRANCH   9  11
ATOM     11  N   UNL     1      -0.348  -1.356  -1.233  0.00  0.00    -0.358 N 
ATOM     12  H   UNL     1      -0.241  -2.045  -1.907  0.00  0.00    +0.142 HD
ATOM     13  H   UNL     1      -1.183  -1.281  -0.745  0.00  0.00    +0.142 HD
ENDBRANCH   9  11
ENDBRANCH   1   6
BRANCH   1  14
ATOM     14  N   UNL     1       4.602   2.099   1.456  0.00  0.00    -0.189 NA
ATOM     15  H   UNL     1       4.528   2.795   2.128  0.00  0.00    +0.148 HD
BRANCH  14  16
ATOM     16  C   UNL     1       5.156   0.791   1.814  0.00  0.00    +0.058 C 
ATOM     17  C   UNL     1       4.123  -0.051   2.608  0.00  0.00    -0.000 C 
ATOM     18  C   UNL     1       5.013  -0.995   3.444  0.00  0.00    -0.077 C 
ATOM     19  N   UNL     1       6.339  -0.360   3.554  0.00  0.00    +0.383 N 
ATOM     20  C   UNL     1       6.301   0.938   2.846  0.00  0.00    -0.058 C 
ATOM     21  H   UNL     1       7.036  -0.956   3.133  0.00  0.00    -0.081 HD
BRANCH  19  22
ATOM     22  C   UNL     1       6.667  -0.143   4.969  0.00  0.00    -0.069 C 
ATOM     23  C   UNL     1       8.035  -0.624   5.460  0.00  0.00    -0.017 C 
ATOM     24  C   UNL     1       6.767  -1.377   5.869  0.00  0.00    -0.017 C 
ENDBRANCH  19  22
ENDBRANCH  14  16
ENDBRANCH   1  14
TORSDOF 5
