REMARK  Name = ZINC13033634
REMARK  12 active torsions:
REMARK  status: ('A' for Active; 'I' for Inactive)
REMARK    1  A    between atoms: C_1  and  O_2
REMARK    2  A    between atoms: O_2  and  C_3
REMARK    3  A    between atoms: C_7  and  C_17
REMARK    4  A    between atoms: C_14  and  O_15
REMARK    5  A    between atoms: O_15  and  C_16
REMARK    6  A    between atoms: C_17  and  N_62
REMARK    7  A    between atoms: C_18  and  C_19
REMARK    8  A    between atoms: C_18  and  N_62
REMARK    9  A    between atoms: C_26  and  C_27
REMARK   10  A    between atoms: C_26  and  N_62
REMARK   11  A    between atoms: N_31  and  C_32
REMARK   12  A    between atoms: C_32  and  C_33
REMARK                            x       y       z     vdW  Elec       q    Type
REMARK                         _______ _______ _______ _____ _____    ______ ____
ROOT
ATOM      1  N   UNL     1      -5.251   4.574  -1.801  0.00  0.00    +0.390 N 
ATOM      2  H   UNL     1      -4.460   4.862  -2.389  0.00  0.00    -0.080 HD
ENDROOT
BRANCH   1   3
ATOM      3  C   UNL     1      -4.795   4.472  -0.399  0.00  0.00    -0.036 C 
BRANCH   3   8
ATOM      4  C   UNL     1       1.227   3.007  -0.349  0.00  0.00    +0.162 A 
ATOM      5  C   UNL     1       0.138   3.850  -0.390  0.00  0.00    +0.059 A 
ATOM      6  C   UNL     1      -1.155   3.314  -0.341  0.00  0.00    +0.002 A 
ATOM      7  C   UNL     1      -2.332   4.181  -0.382  0.00  0.00    +0.017 A 
ATOM      8  C   UNL     1      -3.562   3.607  -0.350  0.00  0.00    +0.001 A 
ATOM      9  C   UNL     1      -3.691   2.207  -0.258  0.00  0.00    +0.251 A 
ATOM     10  O   UNL     1      -4.805   1.714  -0.219  0.00  0.00    -0.268 OA
ATOM     11  N   UNL     1      -2.615   1.401  -0.212  0.00  0.00    -0.322 N 
ATOM     12  H   UNL     1      -2.740   0.441  -0.149  0.00  0.00    +0.169 HD
ATOM     13  C   UNL     1      -1.337   1.920  -0.255  0.00  0.00    +0.053 A 
ATOM     14  C   UNL     1      -0.228   1.085  -0.208  0.00  0.00    +0.075 A 
ATOM     15  C   UNL     1       1.044   1.623  -0.257  0.00  0.00    +0.163 A 
BRANCH   4  17
ATOM     16  C   UNL     1       2.600   4.944  -0.490  0.00  0.00    +0.277 C 
ATOM     17  O   UNL     1       2.485   3.522  -0.397  0.00  0.00    -0.491 OA
ENDBRANCH   4  17
BRANCH  15  18
ATOM     18  O   UNL     1       2.126   0.802  -0.217  0.00  0.00    -0.491 OA
ATOM     19  C   UNL     1       1.872  -0.601  -0.124  0.00  0.00    +0.277 C 
ENDBRANCH  15  18
ENDBRANCH   3   8
ENDBRANCH   1   3
BRANCH   1  20
ATOM     20  C   UNL     1      -5.743   3.260  -2.269  0.00  0.00    -0.042 C 
BRANCH  20  21
ATOM     21  C   UNL     1      -6.046   3.350  -3.742  0.00  0.00    -0.064 A 
ATOM     22  C   UNL     1      -7.343   3.571  -4.168  0.00  0.00    +0.004 A 
ATOM     23  C   UNL     1      -7.622   3.659  -5.518  0.00  0.00    +0.038 A 
ATOM     24  C   UNL     1      -6.604   3.514  -6.446  0.00  0.00    +0.123 A 
ATOM     25  C   UNL     1      -5.306   3.288  -6.018  0.00  0.00    +0.038 A 
ATOM     26  C   UNL     1      -5.029   3.206  -4.667  0.00  0.00    +0.004 A 
ATOM     27  F   UNL     1      -6.876   3.595  -7.766  0.00  0.00    -0.205 F 
ENDBRANCH  20  21
ENDBRANCH   1  20
BRANCH   1  28
ATOM     28  C   UNL     1      -6.325   5.583  -1.912  0.00  0.00    +0.001 C 
BRANCH  28  29
ATOM     29  C   UNL     1      -5.719   6.954  -1.757  0.00  0.00    +0.136 A 
ATOM     30  N   UNL     1      -5.653   7.660  -0.655  0.00  0.00    -0.115 NA
ATOM     31  N   UNL     1      -5.062   8.772  -0.929  0.00  0.00    -0.023 NA
ATOM     32  N   UNL     1      -4.757   8.797  -2.180  0.00  0.00    -0.044 NA
ATOM     33  N   UNL     1      -5.146   7.694  -2.724  0.00  0.00    -0.224 N 
BRANCH  33  34
ATOM     34  C   UNL     1      -4.992   7.316  -4.132  0.00  0.00    +0.221 C 
BRANCH  34  35
ATOM     35  C   UNL     1      -6.129   7.893  -4.934  0.00  0.00    +0.126 A 
ATOM     36  C   UNL     1      -6.141   9.101  -5.527  0.00  0.00    +0.046 A 
ATOM     37  C   UNL     1      -7.394   9.230  -6.168  0.00  0.00    +0.041 A 
ATOM     38  C   UNL     1      -8.077   8.098  -5.921  0.00  0.00    +0.195 A 
ATOM     39  O   UNL     1      -7.306   7.291  -5.174  0.00  0.00    -0.466 OA
ENDBRANCH  34  35
ENDBRANCH  33  34
ENDBRANCH  28  29
ENDBRANCH   1  28
TORSDOF 10
