REMARK  Name = ZINC21911988
REMARK  8 active torsions:
REMARK  status: ('A' for Active; 'I' for Inactive)
REMARK    1  A    between atoms: C_1  and  O_2
REMARK    2  A    between atoms: O_2  and  C_3
REMARK    3  A    between atoms: C_6  and  C_9
REMARK    4  A    between atoms: C_9  and  C_11
REMARK    5  A    between atoms: C_9  and  N_23
REMARK    6  A    between atoms: C_11  and  N_12
REMARK    7  A    between atoms: C_13  and  C_15
REMARK    8  A    between atoms: C_20  and  O_21
REMARK                            x       y       z     vdW  Elec       q    Type
REMARK                         _______ _______ _______ _____ _____    ______ ____
ROOT
ATOM      1  C   UNL     1      -2.513   0.977   0.019  0.00  0.00    -0.020 C 
ENDROOT
BRANCH   1   5
ATOM      2  C   UNL     1       1.151   3.177   0.015  0.00  0.00    +0.120 A 
ATOM      3  C   UNL     1       0.971   2.125  -0.871  0.00  0.00    +0.046 A 
ATOM      4  C   UNL     1      -0.213   1.413  -0.865  0.00  0.00    +0.005 A 
ATOM      5  C   UNL     1      -1.220   1.751   0.019  0.00  0.00    -0.059 A 
ATOM      6  C   UNL     1      -1.041   2.796   0.908  0.00  0.00    +0.005 A 
ATOM      7  C   UNL     1       0.141   3.511   0.906  0.00  0.00    +0.046 A 
BRANCH   2   9
ATOM      8  C   UNL     1       2.430   4.949   0.952  0.00  0.00    +0.277 C 
ATOM      9  O   UNL     1       2.314   3.879   0.011  0.00  0.00    -0.495 OA
ENDBRANCH   2   9
ENDBRANCH   1   5
BRANCH   1  10
ATOM     10  N   UNL     1      -3.519   1.704  -0.767  0.00  0.00    +0.385 N 
ATOM     11  C   UNL     1      -3.637   3.112  -0.308  0.00  0.00    -0.078 C 
ATOM     12  C   UNL     1      -4.290   3.826  -1.518  0.00  0.00    -0.020 C 
ATOM     13  C   UNL     1      -3.627   3.131  -2.729  0.00  0.00    -0.020 C 
ATOM     14  C   UNL     1      -3.128   1.776  -2.192  0.00  0.00    -0.078 C 
ATOM     15  H   UNL     1      -4.460   1.151  -0.634  0.00  0.00    -0.081 HD
ENDBRANCH   1  10
BRANCH   1  16
ATOM     16  C   UNL     1      -3.010   0.813   1.457  0.00  0.00    +0.094 C 
BRANCH  16  17
ATOM     17  N   UNL     1      -4.324   0.166   1.448  0.00  0.00    -0.312 N 
ATOM     18  C   UNL     1      -4.961  -0.082   2.610  0.00  0.00    +0.248 C 
ATOM     19  O   UNL     1      -4.444   0.232   3.665  0.00  0.00    -0.270 OA
ATOM     20  H   UNL     1      -4.792  -0.117   0.494  0.00  0.00    +0.149 HD
BRANCH  18  21
ATOM     21  C   UNL     1      -6.284  -0.733   2.602  0.00  0.00    +0.079 A 
ATOM     22  C   UNL     1      -6.882  -1.095   1.392  0.00  0.00    +0.036 A 
ATOM     23  C   UNL     1      -8.119  -1.703   1.391  0.00  0.00    +0.042 A 
ATOM     24  C   UNL     1      -8.773  -1.959   2.587  0.00  0.00    +0.023 A 
ATOM     25  C   UNL     1      -8.193  -1.606   3.789  0.00  0.00    +0.047 A 
ATOM     26  C   UNL     1      -6.947  -0.998   3.808  0.00  0.00    +0.129 A 
ATOM     27 CL   UNL     1      -8.861  -2.152  -0.113  0.00  0.00    -0.084 Cl
BRANCH  26  28
ATOM     28  O   UNL     1      -6.373  -0.657   4.989  0.00  0.00    -0.506 OA
ATOM     29  H   UNL     1      -6.895  -0.866   5.935  0.00  0.00    +0.292 HD
ENDBRANCH  26  28
ENDBRANCH  18  21
ENDBRANCH  16  17
ENDBRANCH   1  16
TORSDOF 7
