REMARK  Name = ZINC54920614
REMARK  7 active torsions:
REMARK  status: ('A' for Active; 'I' for Inactive)
REMARK    1  A    between atoms: C_3  and  C_6
REMARK    2  A    between atoms: C_6  and  C_8
REMARK    3  A    between atoms: C_6  and  N_24
REMARK    4  A    between atoms: C_8  and  N_9
REMARK    5  A    between atoms: N_12  and  N_13
REMARK    6  A    between atoms: C_14  and  C_16
REMARK    7  A    between atoms: C_16  and  C_17
REMARK                            x       y       z     vdW  Elec       q    Type
REMARK                         _______ _______ _______ _____ _____    ______ ____
ROOT
ATOM      1  N   UNL     1       5.785   2.168  -1.371  0.00  0.00    -0.299 N 
ATOM      2  C   UNL     1       6.521   2.208  -2.500  0.00  0.00    +0.316 C 
ATOM      3  O   UNL     1       6.043   1.828  -3.551  0.00  0.00    -0.251 OA
ATOM      4  N   UNL     1       7.787   2.669  -2.463  0.00  0.00    -0.218 N 
ATOM      5  H   UNL     1       6.166   2.472  -0.532  0.00  0.00    +0.150 HD
ATOM      6  H   UNL     1       8.316   2.697  -3.275  0.00  0.00    +0.174 HD
ENDROOT
BRANCH   4   7
ATOM      7  N   UNL     1       8.338   3.107  -1.251  0.00  0.00    -0.233 N 
ATOM      8  C   UNL     1       9.604   3.568  -1.214  0.00  0.00    +0.233 C 
ATOM      9  O   UNL     1      10.266   3.603  -2.230  0.00  0.00    -0.274 OA
ATOM     10  H   UNL     1       7.808   3.079  -0.439  0.00  0.00    +0.173 HD
BRANCH   8  11
ATOM     11  C   UNL     1      10.196   4.039   0.088  0.00  0.00    +0.132 C 
BRANCH  11  12
ATOM     12  C   UNL     1      11.612   4.501  -0.142  0.00  0.00    -0.038 A 
ATOM     13  C   UNL     1      12.658   3.603  -0.033  0.00  0.00    +0.007 A 
ATOM     14  C   UNL     1      13.957   4.025  -0.244  0.00  0.00    +0.038 A 
ATOM     15  C   UNL     1      14.210   5.348  -0.565  0.00  0.00    +0.123 A 
ATOM     16  C   UNL     1      13.162   6.246  -0.674  0.00  0.00    +0.038 A 
ATOM     17  C   UNL     1      11.864   5.821  -0.467  0.00  0.00    +0.007 A 
ATOM     18  F   UNL     1      15.480   5.762  -0.771  0.00  0.00    -0.205 F 
ENDBRANCH  11  12
ENDBRANCH   8  11
ENDBRANCH   4   7
BRANCH   1  19
ATOM     19  C   UNL     1       4.409   1.667  -1.411  0.00  0.00    +0.095 C 
BRANCH  19  20
ATOM     20  C   UNL     1       3.759   1.852  -0.039  0.00  0.00    -0.013 C 
BRANCH  20  21
ATOM     21  N   UNL     1       2.426   1.234  -0.041  0.00  0.00    +0.386 N 
ATOM     22  C   UNL     1       2.539  -0.229  -0.271  0.00  0.00    -0.078 C 
ATOM     23  C   UNL     1       1.210  -0.782   0.302  0.00  0.00    -0.020 C 
ATOM     24  C   UNL     1       0.973   0.107   1.544  0.00  0.00    -0.020 C 
ATOM     25  C   UNL     1       1.791   1.386   1.286  0.00  0.00    -0.078 C 
ATOM     26  H   UNL     1       1.848   1.655  -0.753  0.00  0.00    -0.081 HD
ENDBRANCH  20  21
BRANCH  20  29
ATOM     27  C   UNL     1       4.105   5.447   1.173  0.00  0.00    +0.008 A 
ATOM     28  C   UNL     1       4.417   4.107   1.040  0.00  0.00    +0.009 A 
ATOM     29  C   UNL     1       3.630   3.323   0.263  0.00  0.00    -0.022 A 
ATOM     30  S   UNL     1       2.403   4.485  -0.311  0.00  0.00    -0.103 S 
ATOM     31  C   UNL     1       3.022   5.937   0.523  0.00  0.00    +0.045 A 
ENDBRANCH  20  29
ENDBRANCH  19  20
ENDBRANCH   1  19
TORSDOF 7
