REMARK  Name = ZINC36156781
REMARK  16 active torsions:
REMARK  status: ('A' for Active; 'I' for Inactive)
REMARK    1  A    between atoms: C_1  and  C_2
REMARK    2  A    between atoms: C_2  and  C_3
REMARK    3  A    between atoms: C_2  and  C_4
REMARK    4  A    between atoms: C_2  and  O_5
REMARK    5  A    between atoms: O_5  and  C_6
REMARK    6  A    between atoms: C_6  and  C_7
REMARK    7  A    between atoms: C_7  and  C_9
REMARK    8  A    between atoms: C_7  and  O_32
REMARK    9  A    between atoms: C_9  and  N_10
REMARK   10  A    between atoms: N_10  and  C_11
REMARK   11  A    between atoms: N_10  and  C_16
REMARK   12  A    between atoms: C_11  and  C_12
REMARK   13  A    between atoms: C_12  and  C_13
REMARK   14  A    between atoms: C_13  and  O_14
REMARK   15  A    between atoms: O_14  and  C_15
REMARK   16  A    between atoms: C_16  and  C_17
REMARK                            x       y       z     vdW  Elec       q    Type
REMARK                         _______ _______ _______ _____ _____    ______ ____
ROOT
ATOM      1  N   UNL     1       4.322  -0.571  -3.812  0.00  0.00    +0.386 N 
ATOM      2  H   UNL     1       4.080  -1.546  -3.900  0.00  0.00    -0.081 HD
ENDROOT
BRANCH   1   3
ATOM      3  C   UNL     1       4.037  -0.117  -2.444  0.00  0.00    -0.044 C 
BRANCH   3   4
ATOM      4  C   UNL     1       2.577  -0.418  -2.100  0.00  0.00    +0.124 C 
BRANCH   4   5
ATOM      5  O   UNL     1       2.375  -1.833  -2.079  0.00  0.00    -0.391 OA
ATOM      6  H   UNL     1       2.922  -2.299  -1.433  0.00  0.00    +0.210 HD
ENDBRANCH   4   5
BRANCH   4   7
ATOM      7  C   UNL     1       2.247   0.164  -0.724  0.00  0.00    +0.189 C 
BRANCH   7   8
ATOM      8  O   UNL     1       0.856  -0.014  -0.453  0.00  0.00    -0.372 OA
BRANCH   8  10
ATOM      9  C   UNL     1       0.723   2.001   0.875  0.00  0.00    +0.041 C 
ATOM     10  C   UNL     1       0.440   0.498   0.815  0.00  0.00    +0.061 C 
ATOM     11  C   UNL     1       1.212  -0.211   1.929  0.00  0.00    +0.041 C 
ATOM     12  C   UNL     1      -1.059   0.253   0.997  0.00  0.00    +0.041 C 
ENDBRANCH   8  10
ENDBRANCH   7   8
ENDBRANCH   4   7
ENDBRANCH   3   4
ENDBRANCH   1   3
BRANCH   1  13
ATOM     13  C   UNL     1       3.527   0.218  -4.764  0.00  0.00    -0.076 C 
BRANCH  13  14
ATOM     14  C   UNL     1       3.725  -0.338  -6.176  0.00  0.00    +0.009 C 
BRANCH  14  15
ATOM     15  C   UNL     1       2.795   0.393  -7.146  0.00  0.00    +0.157 C 
BRANCH  15  16
ATOM     16  O   UNL     1       2.979  -0.126  -8.465  0.00  0.00    -0.383 OA
ATOM     17  C   UNL     1       2.153   0.493  -9.453  0.00  0.00    +0.193 C 
ENDBRANCH  15  16
ENDBRANCH  14  15
ENDBRANCH  13  14
ENDBRANCH   1  13
BRANCH   1  18
ATOM     18  C   UNL     1       5.751  -0.392  -4.100  0.00  0.00    -0.003 C 
BRANCH  18  19
ATOM     19  C   UNL     1       6.558  -1.327  -3.238  0.00  0.00    +0.094 A 
ATOM     20  N   UNL     1       7.913  -1.242  -3.249  0.00  0.00    -0.312 N 
ATOM     21  H   UNL     1       8.343  -0.578  -3.811  0.00  0.00    +0.170 HD
ATOM     22  C   UNL     1       8.673  -2.058  -2.494  0.00  0.00    +0.260 A 
ATOM     23  O   UNL     1       9.888  -1.967  -2.514  0.00  0.00    -0.267 OA
ATOM     24  C   UNL     1       8.028  -3.034  -1.666  0.00  0.00    +0.075 A 
ATOM     25  C   UNL     1       8.642  -4.016  -0.774  0.00  0.00    -0.023 A 
ATOM     26  C   UNL     1       7.808  -4.833  -0.095  0.00  0.00    -0.004 A 
ATOM     27  S   UNL     1       6.179  -4.347  -0.599  0.00  0.00    -0.073 S 
ATOM     28  C   UNL     1       6.625  -3.047  -1.722  0.00  0.00    +0.116 A 
ATOM     29  N   UNL     1       5.942  -2.203  -2.490  0.00  0.00    -0.229 NA
ATOM     30  C   UNL     1       8.184  -5.914   0.871  0.00  0.00    +0.043 C 
ATOM     31  C   UNL     1       9.680  -6.215   0.704  0.00  0.00    +0.005 C 
ATOM     32  C   UNL     1      10.449  -4.890   0.692  0.00  0.00    +0.005 C 
ATOM     33  C   UNL     1      10.154  -4.131  -0.603  0.00  0.00    +0.037 C 
ENDBRANCH  18  19
ENDBRANCH   1  18
TORSDOF 12
