REMARK  Name = ZINC40317416
REMARK  10 active torsions:
REMARK  status: ('A' for Active; 'I' for Inactive)
REMARK    1  A    between atoms: C_1  and  C_2
REMARK    2  A    between atoms: C_4  and  O_9
REMARK    3  A    between atoms: O_9  and  C_10
REMARK    4  A    between atoms: C_10  and  C_11
REMARK    5  A    between atoms: C_11  and  C_13
REMARK    6  A    between atoms: C_11  and  O_32
REMARK    7  A    between atoms: C_13  and  N_14
REMARK    8  A    between atoms: N_14  and  C_15
REMARK    9  A    between atoms: N_14  and  C_24
REMARK   10  A    between atoms: C_15  and  C_16
REMARK                            x       y       z     vdW  Elec       q    Type
REMARK                         _______ _______ _______ _____ _____    ______ ____
ROOT
ATOM      1  N   UNL     1      -0.513  -6.999  -4.817  0.00  0.00    +0.387 N 
ATOM      2  H   UNL     1      -1.182  -6.896  -5.566  0.00  0.00    -0.081 HD
ENDROOT
BRANCH   1   3
ATOM      3  C   UNL     1       0.476  -5.916  -4.890  0.00  0.00    -0.045 C 
ATOM      4  C   UNL     1       1.193  -5.959  -6.250  0.00  0.00    +0.009 C 
ATOM      5  C   UNL     1       2.441  -5.043  -6.218  0.00  0.00    +0.164 C 
ATOM      6  S   UNL     1       2.913  -5.066  -4.440  0.00  0.00    -0.033 S 
ATOM      7  O   UNL     1       2.797  -3.751  -3.914  0.00  0.00    -0.174 OA
ATOM      8  O   UNL     1       4.139  -5.771  -4.297  0.00  0.00    -0.174 OA
ATOM      9  C   UNL     1       1.543  -6.102  -3.774  0.00  0.00    +0.151 C 
ENDBRANCH   1   3
BRANCH   1  10
ATOM     10  C   UNL     1      -1.212  -6.938  -3.526  0.00  0.00    -0.043 C 
BRANCH  10  11
ATOM     11  C   UNL     1      -2.030  -5.647  -3.449  0.00  0.00    +0.135 C 
BRANCH  11  12
ATOM     12  O   UNL     1      -2.992  -5.630  -4.506  0.00  0.00    -0.390 OA
ATOM     13  H   UNL     1      -3.618  -6.367  -4.480  0.00  0.00    +0.210 HD
ENDBRANCH  11  12
BRANCH  11  14
ATOM     14  C   UNL     1      -2.752  -5.580  -2.102  0.00  0.00    +0.258 C 
BRANCH  14  15
ATOM     15  O   UNL     1      -3.422  -4.324  -1.982  0.00  0.00    -0.489 OA
BRANCH  15  19
ATOM     16  C   UNL     1      -6.229  -1.377   0.712  0.00  0.00    +0.045 C 
ATOM     17  C   UNL     1      -5.496  -2.679   0.513  0.00  0.00    -0.029 A 
ATOM     18  C   UNL     1      -4.790  -2.903  -0.653  0.00  0.00    +0.050 A 
ATOM     19  C   UNL     1      -4.116  -4.101  -0.835  0.00  0.00    +0.121 A 
ATOM     20  C   UNL     1      -4.152  -5.072   0.155  0.00  0.00    +0.047 A 
ATOM     21  C   UNL     1      -4.858  -4.845   1.319  0.00  0.00    +0.024 A 
ATOM     22  C   UNL     1      -5.526  -3.646   1.502  0.00  0.00    +0.044 A 
ATOM     23 CL   UNL     1      -6.407  -3.359   2.970  0.00  0.00    -0.083 Cl
ENDBRANCH  15  19
ENDBRANCH  14  15
ENDBRANCH  11  14
ENDBRANCH  10  11
ENDBRANCH   1  10
BRANCH   1  24
ATOM     24  C   UNL     1       0.168  -8.294  -4.944  0.00  0.00    -0.038 C 
BRANCH  24  25
ATOM     25  C   UNL     1       0.305  -8.649  -6.402  0.00  0.00    -0.010 A 
ATOM     26  C   UNL     1      -0.811  -8.656  -7.221  0.00  0.00    +0.126 A 
ATOM     27  C   UNL     1      -0.683  -8.981  -8.561  0.00  0.00    +0.038 A 
ATOM     28  C   UNL     1       0.558  -9.299  -9.080  0.00  0.00    +0.004 A 
ATOM     29  C   UNL     1       1.672  -9.292  -8.262  0.00  0.00    +0.020 A 
ATOM     30  C   UNL     1       1.547  -8.961  -6.924  0.00  0.00    +0.045 A 
ATOM     31 CL   UNL     1       2.949  -8.946  -5.899  0.00  0.00    -0.083 Cl
ATOM     32  F   UNL     1      -2.024  -8.345  -6.714  0.00  0.00    -0.205 F 
ENDBRANCH  24  25
ENDBRANCH   1  24
TORSDOF 9
