REMARK  Name = ZINC36578546
REMARK  12 active torsions:
REMARK  status: ('A' for Active; 'I' for Inactive)
REMARK    1  A    between atoms: C_1  and  C_2
REMARK    2  A    between atoms: C_2  and  C_3
REMARK    3  A    between atoms: C_3  and  N_4
REMARK    4  A    between atoms: N_4  and  C_5
REMARK    5  A    between atoms: C_5  and  C_7
REMARK    6  A    between atoms: C_5  and  C_16
REMARK    7  A    between atoms: C_8  and  O_15
REMARK    8  A    between atoms: C_10  and  O_14
REMARK    9  A    between atoms: C_12  and  O_13
REMARK   10  A    between atoms: N_18  and  C_19
REMARK   11  A    between atoms: C_25  and  C_27
REMARK   12  A    between atoms: C_27  and  C_28
REMARK                            x       y       z     vdW  Elec       q    Type
REMARK                         _______ _______ _______ _____ _____    ______ ____
ROOT
ATOM      1  C   UNL     1      -1.582  -2.717   1.153  0.00  0.00    +0.199 C 
ENDROOT
BRANCH   1   2
ATOM      2  C   UNL     1      -2.799  -1.883   1.460  0.00  0.00    +0.065 A 
ATOM      3  C   UNL     1      -3.910  -2.467   2.048  0.00  0.00    +0.129 A 
ATOM      4  C   UNL     1      -5.030  -1.700   2.330  0.00  0.00    +0.091 A 
ATOM      5  C   UNL     1      -5.037  -0.346   2.026  0.00  0.00    +0.124 A 
ATOM      6  C   UNL     1      -3.925   0.238   1.439  0.00  0.00    +0.091 A 
ATOM      7  C   UNL     1      -2.804  -0.529   1.161  0.00  0.00    +0.129 A 
BRANCH   7   8
ATOM      8  O   UNL     1      -1.713   0.045   0.590  0.00  0.00    -0.506 OA
ATOM      9  H   UNL     1      -1.722   0.033  -0.377  0.00  0.00    +0.292 HD
ENDBRANCH   7   8
BRANCH   5  10
ATOM     10  O   UNL     1      -6.135   0.406   2.302  0.00  0.00    -0.507 OA
ATOM     11  H   UNL     1      -6.126   0.806   3.183  0.00  0.00    +0.292 HD
ENDBRANCH   5  10
BRANCH   3  12
ATOM     12  O   UNL     1      -3.903  -3.793   2.346  0.00  0.00    -0.506 OA
ATOM     13  H   UNL     1      -3.647  -3.990   3.257  0.00  0.00    +0.292 HD
ENDBRANCH   3  12
ENDBRANCH   1   2
BRANCH   1  14
ATOM     14  C   UNL     1      -0.499  -2.416   2.157  0.00  0.00    +0.239 C 
ATOM     15  O   UNL     1       0.044  -1.332   2.156  0.00  0.00    -0.273 OA
ATOM     16  N   UNL     1      -0.135  -3.352   3.056  0.00  0.00    -0.311 N 
ATOM     17  H   UNL     1      -0.569  -4.219   3.056  0.00  0.00    +0.149 HD
BRANCH  16  18
ATOM     18  C   UNL     1       0.918  -3.059   4.032  0.00  0.00    +0.073 C 
ATOM     19  C   UNL     1       2.286  -3.337   3.406  0.00  0.00    +0.022 C 
ATOM     20  C   UNL     1       3.385  -3.031   4.425  0.00  0.00    +0.002 C 
ATOM     21  C   UNL     1       3.198  -3.918   5.658  0.00  0.00    +0.000 C 
ATOM     22  C   UNL     1       1.830  -3.639   6.284  0.00  0.00    +0.002 C 
ATOM     23  C   UNL     1       0.731  -3.945   5.265  0.00  0.00    +0.022 C 
ENDBRANCH  16  18
ENDBRANCH   1  14
BRANCH   1  24
ATOM     24  N   UNL     1      -1.100  -2.401  -0.194  0.00  0.00    -0.286 N 
ATOM     25  C   UNL     1      -1.874  -2.665  -1.266  0.00  0.00    +0.216 C 
ATOM     26  O   UNL     1      -1.476  -2.403  -2.381  0.00  0.00    -0.276 OA
BRANCH  25  27
ATOM     27  C   UNL     1      -3.235  -3.285  -1.078  0.00  0.00    +0.092 C 
ATOM     28  C   UNL     1      -3.900  -3.478  -2.443  0.00  0.00    +0.013 C 
ENDBRANCH  25  27
BRANCH  24  29
ATOM     29  C   UNL     1       0.222  -1.798  -0.377  0.00  0.00    +0.108 C 
BRANCH  29  31
ATOM     30  C   UNL     1       2.646  -2.282  -0.742  0.00  0.00    +0.005 C 
ATOM     31  C   UNL     1       1.282  -2.901  -0.429  0.00  0.00    +0.016 C 
ENDBRANCH  29  31
ENDBRANCH  24  29
ENDBRANCH   1  24
TORSDOF 10
