REMARK  Name = ZINC06194715
REMARK  11 active torsions:
REMARK  status: ('A' for Active; 'I' for Inactive)
REMARK    1  A    between atoms: C_1  and  C_2
REMARK    2  A    between atoms: C_2  and  O_3
REMARK    3  A    between atoms: O_3  and  C_4
REMARK    4  A    between atoms: C_4  and  C_6
REMARK    5  A    between atoms: C_11  and  C_13
REMARK    6  A    between atoms: C_11  and  C_27
REMARK    7  A    between atoms: C_11  and  N_70
REMARK    8  A    between atoms: C_16  and  C_26
REMARK    9  A    between atoms: C_18  and  C_25
REMARK   10  A    between atoms: N_31  and  C_32
REMARK   11  A    between atoms: C_32  and  C_33
REMARK                            x       y       z     vdW  Elec       q    Type
REMARK                         _______ _______ _______ _____ _____    ______ ____
ROOT
ATOM      1  C   UNL     1       3.592   1.627   3.727  0.00  0.00    +0.039 C 
ENDROOT
BRANCH   1   2
ATOM      2  C   UNL     1       2.098   1.788   3.836  0.00  0.00    +0.011 A 
ATOM      3  C   UNL     1       1.394   1.002   4.688  0.00  0.00    +0.018 A 
ATOM      4  C   UNL     1      -0.056   1.183   4.771  0.00  0.00    +0.002 A 
ATOM      5  C   UNL     1      -0.835   0.404   5.633  0.00  0.00    -0.041 A 
ATOM      6  C   UNL     1      -2.187   0.594   5.683  0.00  0.00    +0.007 A 
ATOM      7  C   UNL     1      -2.793   1.563   4.894  0.00  0.00    -0.048 A 
ATOM      8  C   UNL     1      -2.046   2.343   4.039  0.00  0.00    +0.029 A 
ATOM      9  C   UNL     1      -0.668   2.163   3.967  0.00  0.00    +0.050 A 
ATOM     10  N   UNL     1       0.104   2.929   3.120  0.00  0.00    -0.322 N 
ATOM     11  H   UNL     1      -0.333   3.625   2.549  0.00  0.00    +0.169 HD
ATOM     12  C   UNL     1       1.435   2.756   3.051  0.00  0.00    +0.251 A 
ATOM     13  O   UNL     1       2.087   3.451   2.292  0.00  0.00    -0.268 OA
ATOM     14  C   UNL     1      -4.285   1.759   4.971  0.00  0.00    +0.044 C 
ATOM     15  C   UNL     1      -0.186  -0.647   6.497  0.00  0.00    +0.044 C 
ENDBRANCH   1   2
BRANCH   1  21
ATOM     16  C   UNL     1       5.899   4.682   5.631  0.00  0.00    +0.094 C 
ATOM     17  C   UNL     1       6.357   4.122   4.282  0.00  0.00    -0.004 C 
ATOM     18  C   UNL     1       5.709   2.754   4.057  0.00  0.00    -0.077 C 
ATOM     19  C   UNL     1       3.780   3.386   5.379  0.00  0.00    -0.077 C 
ATOM     20  C   UNL     1       4.370   4.773   5.644  0.00  0.00    -0.004 C 
ATOM     21  N   UNL     1       4.240   2.914   4.056  0.00  0.00    +0.389 N 
ATOM     22  H   UNL     1       3.981   3.608   3.346  0.00  0.00    -0.080 HD
BRANCH  16  23
ATOM     23  C   UNL     1       6.486   6.056   5.832  0.00  0.00    +0.310 C 
ATOM     24  O   UNL     1       7.199   6.537   4.984  0.00  0.00    -0.251 OA
BRANCH  23  25
ATOM     25  O   UNL     1       6.218   6.743   6.953  0.00  0.00    -0.465 OA
BRANCH  25  27
ATOM     26  C   UNL     1       6.401   8.685   8.411  0.00  0.00    +0.048 C 
ATOM     27  C   UNL     1       6.818   8.059   7.079  0.00  0.00    +0.229 C 
ENDBRANCH  25  27
ENDBRANCH  23  25
ENDBRANCH  16  23
ENDBRANCH   1  21
BRANCH   1  28
ATOM     28  C   UNL     1       4.051   0.546   4.671  0.00  0.00    +0.143 A 
ATOM     29  N   UNL     1       4.166   0.641   5.974  0.00  0.00    -0.115 NA
ATOM     30  N   UNL     1       4.585  -0.492   6.420  0.00  0.00    -0.023 NA
ATOM     31  N   UNL     1       4.747  -1.306   5.436  0.00  0.00    -0.044 NA
ATOM     32  N   UNL     1       4.429  -0.703   4.341  0.00  0.00    -0.228 N 
BRANCH  32  33
ATOM     33  C   UNL     1       4.470  -1.271   2.991  0.00  0.00    +0.178 C 
BRANCH  33  34
ATOM     34  C   UNL     1       5.847  -1.018   2.373  0.00  0.00    +0.140 C 
ATOM     35  C   UNL     1       5.930  -1.658   0.965  0.00  0.00    +0.035 C 
ATOM     36  C   UNL     1       7.033  -0.784   0.308  0.00  0.00    +0.031 C 
ATOM     37  C   UNL     1       6.776   0.599   0.944  0.00  0.00    +0.160 C 
ATOM     38  O   UNL     1       6.045   0.389   2.158  0.00  0.00    -0.375 OA
ENDBRANCH  33  34
ENDBRANCH  32  33
ENDBRANCH   1  28
TORSDOF 8
