REMARK  Name = ZINC38605683
REMARK  11 active torsions:
REMARK  status: ('A' for Active; 'I' for Inactive)
REMARK    1  A    between atoms: C_1  and  C_2
REMARK    2  A    between atoms: C_2  and  O_3
REMARK    3  A    between atoms: O_3  and  C_4
REMARK    4  A    between atoms: C_4  and  C_6
REMARK    5  A    between atoms: C_8  and  N_17
REMARK    6  A    between atoms: C_18  and  C_20
REMARK    7  A    between atoms: C_20  and  C_22
REMARK    8  A    between atoms: C_20  and  N_23
REMARK    9  A    between atoms: N_26  and  C_29
REMARK   10  A    between atoms: C_29  and  C_30
REMARK   11  A    between atoms: C_31  and  C_32
REMARK                            x       y       z     vdW  Elec       q    Type
REMARK                         _______ _______ _______ _____ _____    ______ ____
ROOT
ATOM      1  N   UNL     1      -3.206  -0.997   2.360  0.00  0.00    -0.285 N 
ATOM      2  C   UNL     1      -3.849  -1.265   3.514  0.00  0.00    +0.234 C 
ATOM      3  O   UNL     1      -3.924  -2.407   3.915  0.00  0.00    -0.274 OA
ATOM      4  H   UNL     1      -3.086  -0.078   2.074  0.00  0.00    +0.155 HD
ENDROOT
BRANCH   1   6
ATOM      5  C   UNL     1      -2.937  -3.499   1.811  0.00  0.00    +0.234 C 
ATOM      6  C   UNL     1      -2.726  -2.017   1.594  0.00  0.00    +0.053 C 
ATOM      7  C   UNL     1      -1.945  -1.911   0.457  0.00  0.00    +0.020 A 
ATOM      8  C   UNL     1      -1.422  -0.796  -0.242  0.00  0.00    +0.050 A 
ATOM      9  C   UNL     1      -0.671  -0.993  -1.355  0.00  0.00    +0.124 A 
ATOM     10  C   UNL     1      -0.396  -2.278  -1.837  0.00  0.00    +0.040 A 
ATOM     11  C   UNL     1      -0.864  -3.389  -1.218  0.00  0.00    +0.029 A 
ATOM     12  C   UNL     1      -1.658  -3.265  -0.048  0.00  0.00    +0.045 A 
ATOM     13  N   UNL     1      -2.222  -4.174   0.724  0.00  0.00    -0.367 N 
ATOM     14  F   UNL     1      -0.176   0.078  -2.015  0.00  0.00    -0.205 F 
ATOM     15  H   UNL     1      -2.172  -5.134   0.594  0.00  0.00    +0.161 HD
BRANCH   5  16
ATOM     16  C   UNL     1      -4.406  -3.829   1.750  0.00  0.00    +0.336 C 
ATOM     17  O   UNL     1      -4.960  -3.922   0.680  0.00  0.00    -0.248 OA
BRANCH  16  18
ATOM     18  O   UNL     1      -5.099  -4.019   2.884  0.00  0.00    -0.463 OA
BRANCH  18  20
ATOM     19  C   UNL     1      -7.121  -4.429   4.142  0.00  0.00    +0.048 C 
ATOM     20  C   UNL     1      -6.494  -4.297   2.752  0.00  0.00    +0.229 C 
ENDBRANCH  18  20
ENDBRANCH  16  18
ENDBRANCH   5  16
ENDBRANCH   1   6
BRANCH   2  21
ATOM     21  C   UNL     1      -4.475  -0.146   4.306  0.00  0.00    +0.140 C 
ATOM     22  C   UNL     1      -5.785   0.280   3.639  0.00  0.00    +0.034 C 
BRANCH  21  23
ATOM     23  N   UNL     1      -4.748  -0.607   5.673  0.00  0.00    -0.295 NA
ATOM     24  C   UNL     1      -5.809  -1.624   5.684  0.00  0.00    +0.066 C 
ATOM     25  C   UNL     1      -6.022  -2.120   7.116  0.00  0.00    -0.063 C 
ATOM     26  N   UNL     1      -6.395  -0.990   7.976  0.00  0.00    +0.384 N 
ATOM     27  C   UNL     1      -5.316   0.006   7.974  0.00  0.00    -0.063 C 
ATOM     28  C   UNL     1      -5.097   0.520   6.550  0.00  0.00    +0.066 C 
ATOM     29  H   UNL     1      -7.242  -0.567   7.626  0.00  0.00    -0.081 HD
BRANCH  26  30
ATOM     30  C   UNL     1      -6.617  -1.470   9.346  0.00  0.00    -0.051 C 
BRANCH  30  31
ATOM     31  C   UNL     1      -7.118  -0.334  10.201  0.00  0.00    -0.045 C 
ATOM     32  C   UNL     1      -8.253  -0.463  10.875  0.00  0.00    +0.002 C 
BRANCH  32  33
ATOM     33  C   UNL     1      -8.745   0.651  11.713  0.00  0.00    -0.025 A 
ATOM     34  C   UNL     1      -8.020   1.841  11.793  0.00  0.00    +0.008 A 
ATOM     35  C   UNL     1      -8.485   2.877  12.577  0.00  0.00    +0.001 A 
ATOM     36  C   UNL     1      -9.666   2.737  13.284  0.00  0.00    +0.000 A 
ATOM     37  C   UNL     1     -10.389   1.560  13.209  0.00  0.00    +0.001 A 
ATOM     38  C   UNL     1      -9.938   0.519  12.423  0.00  0.00    +0.008 A 
ENDBRANCH  32  33
ENDBRANCH  30  31
ENDBRANCH  26  30
ENDBRANCH  21  23
ENDBRANCH   2  21
TORSDOF 9
