REMARK  Name = ZINC12480672
REMARK  10 active torsions:
REMARK  status: ('A' for Active; 'I' for Inactive)
REMARK    1  A    between atoms: C_1  and  C_2
REMARK    2  A    between atoms: C_6  and  C_7
REMARK    3  A    between atoms: C_7  and  C_9
REMARK    4  A    between atoms: C_7  and  N_19
REMARK    5  A    between atoms: N_11  and  C_12
REMARK    6  A    between atoms: C_12  and  C_13
REMARK    7  A    between atoms: N_19  and  C_20
REMARK    8  A    between atoms: C_20  and  C_21
REMARK    9  A    between atoms: C_26  and  C_28
REMARK   10  A    between atoms: C_28  and  N_29
REMARK                            x       y       z     vdW  Elec       q    Type
REMARK                         _______ _______ _______ _____ _____    ______ ____
ROOT
ATOM      1  N   UNL     1      -0.443  -4.588  -1.717  0.00  0.00    -0.279 N 
ATOM      2  C   UNL     1      -1.000  -5.210  -0.660  0.00  0.00    +0.238 C 
ATOM      3  O   UNL     1      -1.796  -6.109  -0.835  0.00  0.00    -0.274 OA
ENDROOT
BRANCH   1   4
ATOM      4  C   UNL     1      -0.799  -4.995  -3.079  0.00  0.00    +0.199 C 
BRANCH   4  10
ATOM      5  C   UNL     1       0.466  -6.060  -5.668  0.00  0.00    +0.044 C 
ATOM      6  C   UNL     1       0.258  -6.918  -4.446  0.00  0.00    -0.038 A 
ATOM      7  C   UNL     1       0.643  -8.245  -4.447  0.00  0.00    +0.011 A 
ATOM      8  C   UNL     1       0.435  -8.991  -3.334  0.00  0.00    +0.046 A 
ATOM      9  S   UNL     1      -0.318  -7.806  -2.231  0.00  0.00    -0.099 S 
ATOM     10  C   UNL     1      -0.305  -6.397  -3.328  0.00  0.00    +0.022 A 
ENDBRANCH   4  10
BRANCH   4  11
ATOM     11  C   UNL     1      -2.297  -4.954  -3.240  0.00  0.00    +0.239 C 
ATOM     12  O   UNL     1      -2.993  -4.546  -2.335  0.00  0.00    -0.273 OA
ATOM     13  N   UNL     1      -2.862  -5.370  -4.391  0.00  0.00    -0.311 N 
ATOM     14  H   UNL     1      -2.305  -5.696  -5.115  0.00  0.00    +0.149 HD
BRANCH  13  15
ATOM     15  C   UNL     1      -4.318  -5.330  -4.548  0.00  0.00    +0.135 C 
BRANCH  15  16
ATOM     16  C   UNL     1      -4.696  -5.853  -5.935  0.00  0.00    +0.135 C 
ATOM     17  C   UNL     1      -6.221  -5.739  -6.156  0.00  0.00    +0.035 C 
ATOM     18  C   UNL     1      -6.580  -7.010  -6.957  0.00  0.00    +0.031 C 
ATOM     19  C   UNL     1      -5.230  -7.742  -7.126  0.00  0.00    +0.160 C 
ATOM     20  O   UNL     1      -4.411  -7.265  -6.035  0.00  0.00    -0.375 OA
ENDBRANCH  15  16
ENDBRANCH  13  15
ENDBRANCH   4  11
ENDBRANCH   1   4
BRANCH   1  21
ATOM     21  C   UNL     1       0.518  -3.502  -1.505  0.00  0.00    +0.151 C 
BRANCH  21  22
ATOM     22  C   UNL     1       1.919  -4.056  -1.554  0.00  0.00    +0.007 A 
ATOM     23  C   UNL     1       2.776  -4.117  -2.602  0.00  0.00    +0.013 A 
ATOM     24  C   UNL     1       4.029  -4.671  -2.412  0.00  0.00    +0.008 A 
ATOM     25  C   UNL     1       4.358  -5.146  -1.186  0.00  0.00    +0.045 A 
ATOM     26  S   UNL     1       2.877  -4.807  -0.249  0.00  0.00    -0.100 S 
ENDBRANCH  21  22
ENDBRANCH   1  21
BRANCH   2  27
ATOM     27  C   UNL     1      -0.634  -4.791   0.741  0.00  0.00    +0.241 C 
BRANCH  27  28
ATOM     28  N   UNL     1      -1.368  -5.614   1.705  0.00  0.00    -0.235 N 
ATOM     29  C   UNL     1      -0.957  -6.807   2.249  0.00  0.00    +0.090 A 
ATOM     30  C   UNL     1       0.182  -7.592   2.107  0.00  0.00    +0.029 A 
ATOM     31  C   UNL     1       0.294  -8.760   2.809  0.00  0.00    +0.002 A 
ATOM     32  C   UNL     1      -0.720  -9.171   3.664  0.00  0.00    +0.002 A 
ATOM     33  C   UNL     1      -1.847  -8.418   3.821  0.00  0.00    +0.032 A 
ATOM     34  C   UNL     1      -1.987  -7.217   3.113  0.00  0.00    +0.113 A 
ATOM     35  N   UNL     1      -2.959  -6.284   3.063  0.00  0.00    -0.129 NA
ATOM     36  N   UNL     1      -2.630  -5.340   2.253  0.00  0.00    -0.064 NA
ENDBRANCH  27  28
ENDBRANCH   2  27
TORSDOF 9
