REMARK  Name = ZINC35576863
REMARK  5 active torsions:
REMARK  status: ('A' for Active; 'I' for Inactive)
REMARK    1  A    between atoms: C_4  and  C_7
REMARK    2  A    between atoms: C_9  and  N_32
REMARK    3  A    between atoms: N_10  and  C_24
REMARK    4  A    between atoms: N_16  and  C_17
REMARK    5  A    between atoms: C_17  and  C_18
REMARK                            x       y       z     vdW  Elec       q    Type
REMARK                         _______ _______ _______ _____ _____    ______ ____
ROOT
ATOM      1  C   UNL     1       3.435  -1.326  -0.647  0.00  0.00    +0.089 A 
ATOM      2  C   UNL     1       3.769  -2.138   0.459  0.00  0.00    +0.086 A 
ATOM      3  C   UNL     1       3.122  -2.565   1.612  0.00  0.00    +0.131 A 
ATOM      4  N   UNL     1       3.983  -3.343   2.297  0.00  0.00    -0.215 N 
ATOM      5  N   UNL     1       5.196  -3.433   1.605  0.00  0.00    -0.144 NA
ATOM      6  C   UNL     1       5.120  -2.728   0.497  0.00  0.00    +0.189 A 
ATOM      7  N   UNL     1       5.954  -2.459  -0.526  0.00  0.00    -0.193 NA
ATOM      8  C   UNL     1       5.559  -1.690  -1.520  0.00  0.00    +0.218 A 
ATOM      9  N   UNL     1       4.349  -1.144  -1.592  0.00  0.00    -0.214 NA
ATOM     10  N   UNL     1       6.450  -1.442  -2.548  0.00  0.00    -0.309 N 
ATOM     11  H   UNL     1       6.187  -0.879  -3.293  0.00  0.00    +0.149 HD
ENDROOT
BRANCH   4  12
ATOM     12  C   UNL     1       3.706  -3.967   3.519  0.00  0.00    +0.086 A 
ATOM     13  C   UNL     1       2.415  -3.952   4.032  0.00  0.00    +0.031 A 
ATOM     14  C   UNL     1       2.145  -4.569   5.237  0.00  0.00    +0.022 A 
ATOM     15  C   UNL     1       3.158  -5.202   5.936  0.00  0.00    +0.042 A 
ATOM     16  C   UNL     1       4.446  -5.218   5.429  0.00  0.00    +0.042 A 
ATOM     17  C   UNL     1       4.721  -4.608   4.220  0.00  0.00    +0.068 A 
ATOM     18 CL   UNL     1       6.335  -4.636   3.580  0.00  0.00    -0.081 Cl
ATOM     19 CL   UNL     1       2.814  -5.976   7.451  0.00  0.00    -0.083 Cl
ENDBRANCH   4  12
BRANCH   1  23
ATOM     20  C   UNL     1      -0.403   0.472  -0.952  0.00  0.00    +0.000 A 
ATOM     21  C   UNL     1       0.272   0.490   0.255  0.00  0.00    +0.001 A 
ATOM     22  C   UNL     1       1.518  -0.092   0.361  0.00  0.00    +0.010 A 
ATOM     23  C   UNL     1       2.098  -0.700  -0.753  0.00  0.00    +0.001 A 
ATOM     24  C   UNL     1       1.412  -0.715  -1.968  0.00  0.00    +0.010 A 
ATOM     25  C   UNL     1       0.166  -0.129  -2.061  0.00  0.00    +0.001 A 
ENDBRANCH   1  23
BRANCH   3  26
ATOM     26  N   UNL     1       1.829  -2.250   1.988  0.00  0.00    -0.342 N 
ATOM     27  H   UNL     1       1.118  -2.252   1.329  0.00  0.00    +0.144 HD
ATOM     28  H   UNL     1       1.634  -2.026   2.912  0.00  0.00    +0.144 HD
ENDBRANCH   3  26
BRANCH  10  29
ATOM     29  C   UNL     1       7.793  -2.027  -2.511  0.00  0.00    +0.141 C 
BRANCH  29  30
ATOM     30  C   UNL     1       8.559  -1.605  -3.739  0.00  0.00    -0.012 A 
ATOM     31  C   UNL     1       8.507  -2.368  -4.896  0.00  0.00    +0.008 A 
ATOM     32  C   UNL     1       9.228  -1.941  -6.000  0.00  0.00    +0.020 A 
ATOM     33  C   UNL     1       9.970  -0.778  -5.912  0.00  0.00    +0.111 A 
ATOM     34  N   UNL     1       9.996  -0.078  -4.795  0.00  0.00    -0.263 NA
ATOM     35  C   UNL     1       9.318  -0.450  -3.727  0.00  0.00    +0.115 A 
ENDBRANCH  29  30
ENDBRANCH  10  29
TORSDOF 5
