REMARK  Name = ZINC05067822
REMARK  5 active torsions:
REMARK  status: ('A' for Active; 'I' for Inactive)
REMARK    1  A    between atoms: C_6  and  N_7
REMARK    2  A    between atoms: C_9  and  N_23
REMARK    3  A    between atoms: C_10  and  N_22
REMARK    4  A    between atoms: N_14  and  C_15
REMARK    5  A    between atoms: C_15  and  C_16
REMARK                            x       y       z     vdW  Elec       q    Type
REMARK                         _______ _______ _______ _____ _____    ______ ____
ROOT
ATOM      1  N   UNL     1      -1.184  -0.723   0.009  0.00  0.00    -0.297 N 
ATOM      2  C   UNL     1      -0.012  -0.001  -0.162  0.00  0.00    +0.160 A 
ATOM      3  C   UNL     1       1.220  -0.648  -0.167  0.00  0.00    +0.205 A 
ATOM      4  C   UNL     1       2.369   0.118  -0.342  0.00  0.00    +0.154 A 
ATOM      5  N   UNL     1       2.253   1.435  -0.497  0.00  0.00    -0.197 NA
ATOM      6  C   UNL     1       1.063   2.017  -0.486  0.00  0.00    +0.219 A 
ATOM      7  N   UNL     1      -0.051   1.320  -0.322  0.00  0.00    -0.197 NA
ATOM      8  N   UNL     1       0.982   3.388  -0.651  0.00  0.00    -0.311 N 
ATOM      9  H   UNL     1      -1.156  -1.692   0.045  0.00  0.00    +0.154 HD
ATOM     10  H   UNL     1       0.117   3.827  -0.646  0.00  0.00    +0.149 HD
ENDROOT
BRANCH   1  16
ATOM     11  C   UNL     1      -2.462   1.188   0.748  0.00  0.00    +0.025 A 
ATOM     12  C   UNL     1      -3.669   1.849   0.860  0.00  0.00    +0.022 A 
ATOM     13  C   UNL     1      -4.825   1.269   0.367  0.00  0.00    +0.041 A 
ATOM     14  C   UNL     1      -4.774   0.029  -0.244  0.00  0.00    +0.022 A 
ATOM     15  C   UNL     1      -3.568  -0.634  -0.364  0.00  0.00    +0.025 A 
ATOM     16  C   UNL     1      -2.406  -0.054   0.129  0.00  0.00    +0.033 A 
ATOM     17 CL   UNL     1      -6.343   2.099   0.517  0.00  0.00    -0.084 Cl
ENDBRANCH   1  16
BRANCH   4  18
ATOM     18  N   UNL     1       3.618  -0.483  -0.355  0.00  0.00    -0.341 N 
ATOM     19  H   UNL     1       3.696  -1.443  -0.241  0.00  0.00    +0.144 HD
ATOM     20  H   UNL     1       4.415   0.057  -0.477  0.00  0.00    +0.144 HD
ENDBRANCH   4  18
BRANCH   3  21
ATOM     21  N   UNL     1       1.307  -2.115   0.008  0.00  0.00    +0.063 N 
ATOM     22  O   UNL     1       1.270  -2.848  -0.964  0.00  0.00    -0.126 OA
ATOM     23  O   UNL     1       1.415  -2.590   1.125  0.00  0.00    -0.126 OA
ENDBRANCH   3  21
BRANCH   8  24
ATOM     24  C   UNL     1       2.203   4.177  -0.834  0.00  0.00    +0.136 C 
BRANCH  24  25
ATOM     25  C   UNL     1       1.837   5.654  -0.992  0.00  0.00    +0.135 C 
ATOM     26  C   UNL     1       3.102   6.495  -1.272  0.00  0.00    +0.035 C 
ATOM     27  C   UNL     1       2.856   7.812  -0.501  0.00  0.00    +0.031 C 
ATOM     28  C   UNL     1       1.471   7.610   0.153  0.00  0.00    +0.160 C 
ATOM     29  O   UNL     1       1.310   6.177   0.247  0.00  0.00    -0.375 OA
ENDBRANCH  24  25
ENDBRANCH   8  24
TORSDOF 5
