REMARK  Name = ZINC40587191
REMARK  7 active torsions:
REMARK  status: ('A' for Active; 'I' for Inactive)
REMARK    1  A    between atoms: C_1  and  C_2
REMARK    2  A    between atoms: C_2  and  C_3
REMARK    3  A    between atoms: C_8  and  N_9
REMARK    4  A    between atoms: C_11  and  N_28
REMARK    5  A    between atoms: C_12  and  N_16
REMARK    6  A    between atoms: N_16  and  C_17
REMARK    7  A    between atoms: C_25  and  C_27
REMARK                            x       y       z     vdW  Elec       q    Type
REMARK                         _______ _______ _______ _____ _____    ______ ____
ROOT
ATOM      1  N   UNL     1       2.841  -0.213  -0.129  0.00  0.00    -0.297 N 
ATOM      2  C   UNL     1       4.208  -0.447  -0.101  0.00  0.00    +0.159 A 
ATOM      3  C   UNL     1       4.939  -0.225   1.063  0.00  0.00    +0.206 A 
ATOM      4  C   UNL     1       6.308  -0.475   1.039  0.00  0.00    +0.159 A 
ATOM      5  N   UNL     1       6.865  -0.914  -0.088  0.00  0.00    -0.218 NA
ATOM      6  C   UNL     1       6.138  -1.112  -1.169  0.00  0.00    +0.225 A 
ATOM      7  N   UNL     1       4.840  -0.893  -1.185  0.00  0.00    -0.218 NA
ATOM      8  H   UNL     1       2.399   0.172   0.644  0.00  0.00    +0.154 HD
ENDROOT
BRANCH   1  14
ATOM      9  C   UNL     1       0.799  -1.001  -1.147  0.00  0.00    -0.026 A 
ATOM     10  C   UNL     1       0.068  -1.309  -2.278  0.00  0.00    +0.005 A 
ATOM     11  C   UNL     1       0.633  -1.158  -3.531  0.00  0.00    +0.000 A 
ATOM     12  C   UNL     1       1.931  -0.697  -3.657  0.00  0.00    +0.002 A 
ATOM     13  C   UNL     1       2.667  -0.386  -2.531  0.00  0.00    +0.023 A 
ATOM     14  C   UNL     1       2.100  -0.532  -1.270  0.00  0.00    +0.036 A 
BRANCH   9  16
ATOM     15  C   UNL     1      -0.411   0.168   0.675  0.00  0.00    +0.009 C 
ATOM     16  C   UNL     1       0.182  -1.166   0.218  0.00  0.00    +0.033 C 
ENDBRANCH   9  16
ENDBRANCH   1  14
BRANCH   3  17
ATOM     17  N   UNL     1       4.278   0.265   2.293  0.00  0.00    +0.063 N 
ATOM     18  O   UNL     1       3.832  -0.524   3.095  0.00  0.00    -0.126 OA
ATOM     19  O   UNL     1       4.183   1.452   2.497  0.00  0.00    -0.126 OA
ENDBRANCH   3  17
BRANCH   4  20
ATOM     20  N   UNL     1       7.080  -0.269   2.173  0.00  0.00    -0.297 N 
ATOM     21  H   UNL     1       6.656  -0.034   3.013  0.00  0.00    +0.154 HD
BRANCH  20  22
ATOM     22  C   UNL     1       8.466  -0.399   2.104  0.00  0.00    +0.042 A 
ATOM     23  C   UNL     1       9.124  -0.226   0.904  0.00  0.00    +0.024 A 
ATOM     24  C   UNL     1      10.506  -0.354   0.829  0.00  0.00    +0.004 A 
ATOM     25  C   UNL     1      11.248  -0.653   1.931  0.00  0.00    +0.026 A 
ATOM     26  C   UNL     1      10.618  -0.838   3.174  0.00  0.00    +0.048 A 
ATOM     27  C   UNL     1       9.211  -0.704   3.263  0.00  0.00    +0.020 A 
ATOM     28  C   UNL     1       8.585  -0.884   4.508  0.00  0.00    +0.013 A 
ATOM     29  C   UNL     1       9.370  -1.178   5.588  0.00  0.00    +0.021 A 
ATOM     30  C   UNL     1      10.749  -1.290   5.434  0.00  0.00    +0.013 A 
ATOM     31  N   UNL     1      11.328  -1.133   4.268  0.00  0.00    -0.358 N 
ATOM     32  C   UNL     1      11.598  -1.613   6.637  0.00  0.00    +0.063 C 
ATOM     33  H   UNL     1      12.292  -1.220   4.200  0.00  0.00    +0.166 HD
ENDBRANCH  20  22
ENDBRANCH   4  20
TORSDOF 5
