REMARK  Name = ZINC40780187
REMARK  4 active torsions:
REMARK  status: ('A' for Active; 'I' for Inactive)
REMARK    1  A    between atoms: C_12  and  N_28
REMARK    2  A    between atoms: C_13  and  N_17
REMARK    3  A    between atoms: N_17  and  N_18
REMARK    4  A    between atoms: C_19  and  C_21
REMARK                            x       y       z     vdW  Elec       q    Type
REMARK                         _______ _______ _______ _____ _____    ______ ____
ROOT
ATOM      1  C   UNL     1       2.079  -0.796   3.742  0.00  0.00    +0.000 A 
ATOM      2  C   UNL     1       3.370  -0.351   3.526  0.00  0.00    +0.002 A 
ATOM      3  C   UNL     1       3.878  -0.308   2.243  0.00  0.00    +0.024 A 
ATOM      4  C   UNL     1       3.091  -0.714   1.170  0.00  0.00    +0.038 A 
ATOM      5  C   UNL     1       1.798  -1.163   1.388  0.00  0.00    -0.026 A 
ATOM      6  C   UNL     1       1.296  -1.200   2.678  0.00  0.00    +0.005 A 
ATOM      7  C   UNL     1       0.922  -1.619   0.251  0.00  0.00    +0.038 C 
ATOM      8  C   UNL     1       1.425  -1.050  -1.075  0.00  0.00    +0.024 C 
ATOM      9  C   UNL     1       2.922  -1.356  -1.210  0.00  0.00    +0.113 C 
ATOM     10  N   UNL     1       3.623  -0.658  -0.124  0.00  0.00    -0.283 N 
ATOM     11  C   UNL     1       4.796   0.045  -0.377  0.00  0.00    +0.152 A 
ATOM     12  C   UNL     1       4.752   1.400  -0.710  0.00  0.00    +0.107 A 
ATOM     13  C   UNL     1       5.959   2.058  -0.953  0.00  0.00    +0.161 A 
ATOM     14  N   UNL     1       7.097   1.375  -0.859  0.00  0.00    -0.217 NA
ATOM     15  C   UNL     1       7.094   0.096  -0.541  0.00  0.00    +0.225 A 
ATOM     16  N   UNL     1       5.978  -0.562  -0.299  0.00  0.00    -0.218 NA
ENDROOT
BRANCH  12  17
ATOM     17  N   UNL     1       3.528   2.082  -0.799  0.00  0.00    -0.353 N 
ATOM     18  H   UNL     1       2.707   1.641  -0.530  0.00  0.00    +0.143 HD
ATOM     19  H   UNL     1       3.503   2.994  -1.129  0.00  0.00    +0.143 HD
ENDBRANCH  12  17
BRANCH  13  20
ATOM     20  N   UNL     1       5.972   3.407  -1.290  0.00  0.00    -0.247 N 
ATOM     21  H   UNL     1       5.138   3.898  -1.357  0.00  0.00    +0.172 HD
BRANCH  20  22
ATOM     22  N   UNL     1       7.189   4.057  -1.531  0.00  0.00    -0.231 N 
ATOM     23  C   UNL     1       7.202   5.365  -1.857  0.00  0.00    +0.260 C 
ATOM     24  O   UNL     1       6.157   5.980  -1.941  0.00  0.00    -0.269 OA
ATOM     25  H   UNL     1       8.023   3.566  -1.464  0.00  0.00    +0.173 HD
BRANCH  23  26
ATOM     26  C   UNL     1       8.485   6.050  -2.112  0.00  0.00    +0.038 A 
ATOM     27  C   UNL     1       9.687   5.344  -2.022  0.00  0.00    +0.016 A 
ATOM     28  C   UNL     1      10.881   5.988  -2.261  0.00  0.00    +0.039 A 
ATOM     29  C   UNL     1      10.892   7.335  -2.590  0.00  0.00    +0.123 A 
ATOM     30  C   UNL     1       9.702   8.041  -2.681  0.00  0.00    +0.039 A 
ATOM     31  C   UNL     1       8.501   7.405  -2.450  0.00  0.00    +0.016 A 
ATOM     32  F   UNL     1      12.066   7.962  -2.822  0.00  0.00    -0.205 F 
ENDBRANCH  23  26
ENDBRANCH  20  22
ENDBRANCH  13  20
TORSDOF 4
