REMARK  Name = ZINC59459143
REMARK  5 active torsions:
REMARK  status: ('A' for Active; 'I' for Inactive)
REMARK    1  A    between atoms: C_4  and  C_7
REMARK    2  A    between atoms: C_7  and  C_8
REMARK    3  A    between atoms: N_10  and  N_11
REMARK    4  A    between atoms: C_12  and  C_13
REMARK    5  A    between atoms: C_16  and  O_23
REMARK                            x       y       z     vdW  Elec       q    Type
REMARK                         _______ _______ _______ _____ _____    ______ ____
ROOT
ATOM      1  N   UNL     1       5.741  -1.849   2.924  0.00  0.00    -0.188 NA
ATOM      2  C   UNL     1       6.862  -2.467   3.146  0.00  0.00    +0.139 C 
ENDROOT
BRANCH   2   3
ATOM      3  C   UNL     1       7.304  -2.713   4.527  0.00  0.00    +0.005 A 
ATOM      4  C   UNL     1       8.443  -3.469   4.781  0.00  0.00    +0.029 A 
ATOM      5  C   UNL     1       8.859  -3.701   6.083  0.00  0.00    +0.062 A 
ATOM      6  C   UNL     1       8.169  -3.197   7.164  0.00  0.00    +0.157 A 
ATOM      7  C   UNL     1       7.006  -2.422   6.973  0.00  0.00    +0.114 A 
ATOM      8  C   UNL     1       6.559  -2.163   5.656  0.00  0.00    +0.013 A 
ATOM      9  C   UNL     1       5.405  -1.387   5.464  0.00  0.00    +0.012 A 
ATOM     10  C   UNL     1       4.761  -0.907   6.571  0.00  0.00    +0.020 A 
ATOM     11  C   UNL     1       5.256  -1.193   7.841  0.00  0.00    +0.111 A 
ATOM     12  N   UNL     1       6.328  -1.929   8.013  0.00  0.00    -0.251 NA
ATOM     13 BR   UNL     1      10.414  -4.735   6.384  0.00  0.00    -0.046 Br
BRANCH   6  14
ATOM     14  O   UNL     1       8.611  -3.449   8.423  0.00  0.00    -0.504 OA
ATOM     15  H   UNL     1       9.232  -2.789   8.761  0.00  0.00    +0.292 HD
ENDBRANCH   6  14
ENDBRANCH   2   3
BRANCH   1  18
ATOM     16  C   UNL     1       4.157  -0.973   1.377  0.00  0.00    +0.237 C 
ATOM     17  O   UNL     1       3.475  -0.599   2.308  0.00  0.00    -0.274 OA
ATOM     18  N   UNL     1       5.320  -1.614   1.608  0.00  0.00    -0.207 N 
ATOM     19  H   UNL     1       5.865  -1.913   0.864  0.00  0.00    +0.177 HD
BRANCH  16  20
ATOM     20  C   UNL     1       3.704  -0.721  -0.038  0.00  0.00    +0.132 C 
BRANCH  20  24
ATOM     21  C   UNL     1      -0.038   1.340   0.010  0.00  0.00    +0.000 A 
ATOM     22  C   UNL     1       1.145   2.055   0.005  0.00  0.00    +0.000 A 
ATOM     23  C   UNL     1       2.356   1.388  -0.010  0.00  0.00    +0.004 A 
ATOM     24  C   UNL     1       2.384   0.006  -0.020  0.00  0.00    -0.039 A 
ATOM     25  C   UNL     1       1.201  -0.709  -0.015  0.00  0.00    +0.004 A 
ATOM     26  C   UNL     1      -0.010  -0.042  -0.001  0.00  0.00    +0.000 A 
ENDBRANCH  20  24
ENDBRANCH  16  20
ENDBRANCH   1  18
TORSDOF 5
