REMARK  Name = ZINC13008596
REMARK  10 active torsions:
REMARK  status: ('A' for Active; 'I' for Inactive)
REMARK    1  A    between atoms: C_1  and  N_2
REMARK    2  A    between atoms: C_10  and  C_12
REMARK    3  A    between atoms: C_12  and  C_14
REMARK    4  A    between atoms: C_12  and  N_57
REMARK    5  A    between atoms: C_14  and  N_15
REMARK    6  A    between atoms: C_16  and  C_18
REMARK    7  A    between atoms: N_20  and  C_21
REMARK    8  A    between atoms: C_26  and  C_27
REMARK    9  A    between atoms: C_29  and  N_57
REMARK   10  A    between atoms: C_30  and  N_57
REMARK                            x       y       z     vdW  Elec       q    Type
REMARK                         _______ _______ _______ _____ _____    ______ ____
ROOT
ATOM      1  C   UNL     1       2.070  -1.800   5.685  0.00  0.00    +0.094 C 
ENDROOT
BRANCH   1   2
ATOM      2  N   UNL     1       2.712  -2.590   6.739  0.00  0.00    -0.309 N 
ATOM      3  C   UNL     1       1.980  -3.062   7.767  0.00  0.00    +0.299 C 
ATOM      4  O   UNL     1       0.789  -2.832   7.821  0.00  0.00    -0.265 OA
ATOM      5  H   UNL     1       3.663  -2.773   6.696  0.00  0.00    +0.149 HD
BRANCH   3   6
ATOM      6  C   UNL     1       2.634  -3.867   8.842  0.00  0.00    +0.303 C 
ATOM      7  O   UNL     1       3.825  -4.096   8.789  0.00  0.00    -0.265 OA
ATOM      8  N   UNL     1       1.902  -4.339   9.870  0.00  0.00    -0.277 N 
ATOM      9  H   UNL     1       0.939  -4.226   9.872  0.00  0.00    +0.155 HD
BRANCH   8  10
ATOM     10  C   UNL     1       2.529  -4.987  10.931  0.00  0.00    +0.051 A 
ATOM     11  C   UNL     1       3.874  -4.761  11.191  0.00  0.00    +0.024 A 
ATOM     12  C   UNL     1       4.492  -5.400  12.246  0.00  0.00    +0.002 A 
ATOM     13  C   UNL     1       3.781  -6.280  13.046  0.00  0.00    +0.001 A 
ATOM     14  C   UNL     1       2.447  -6.522  12.800  0.00  0.00    +0.021 A 
ATOM     15  C   UNL     1       1.806  -5.878  11.740  0.00  0.00    +0.073 A 
BRANCH  15  16
ATOM     16  C   UNL     1       0.420  -6.125  11.478  0.00  0.00    +0.101 C 
ATOM     17  N   UNL     1      -0.680  -6.321  11.271  0.00  0.00    -0.191 NA
ENDBRANCH  15  16
ENDBRANCH   8  10
ENDBRANCH   3   6
ENDBRANCH   1   2
BRANCH   1  18
ATOM     18  C   UNL     1       3.089  -1.494   4.585  0.00  0.00    -0.021 C 
BRANCH  18  28
ATOM     19  C   UNL     1      -0.814   1.726   0.803  0.00  0.00    +0.129 C 
ATOM     20  N   UNL     1       0.643   1.752   0.624  0.00  0.00    -0.333 N 
ATOM     21  C   UNL     1       1.139   3.128   0.552  0.00  0.00    +0.105 C 
ATOM     22  C   UNL     1       2.664   3.093   0.393  0.00  0.00    +0.024 C 
ATOM     23  C   UNL     1       3.262   2.562   1.697  0.00  0.00    +0.038 C 
ATOM     24  C   UNL     1       2.515   1.325   2.131  0.00  0.00    -0.026 A 
ATOM     25  C   UNL     1       1.281   0.991   1.602  0.00  0.00    +0.033 A 
ATOM     26  C   UNL     1       0.631  -0.158   2.055  0.00  0.00    +0.023 A 
ATOM     27  C   UNL     1       1.213  -0.957   3.016  0.00  0.00    +0.004 A 
ATOM     28  C   UNL     1       2.449  -0.621   3.536  0.00  0.00    -0.059 A 
ATOM     29  C   UNL     1       3.096   0.516   3.094  0.00  0.00    +0.007 A 
ENDBRANCH  18  28
BRANCH  18  32
ATOM     30  C   UNL     1       2.423  -3.699   3.838  0.00  0.00    -0.096 C 
ATOM     31  C   UNL     1       4.173  -2.501   2.669  0.00  0.00    -0.096 C 
ATOM     32  N   UNL     1       3.557  -2.762   3.987  0.00  0.00    +0.382 N 
ATOM     33  H   UNL     1       4.259  -3.183   4.606  0.00  0.00    -0.082 HD
ENDBRANCH  18  32
ENDBRANCH   1  18
TORSDOF 7
