REMARK  Name = ZINC36370837
REMARK  4 active torsions:
REMARK  status: ('A' for Active; 'I' for Inactive)
REMARK    1  A    between atoms: C_1  and  C_2
REMARK    2  A    between atoms: C_16  and  O_27
REMARK    3  A    between atoms: C_18  and  C_26
REMARK    4  A    between atoms: C_21  and  O_25
REMARK                            x       y       z     vdW  Elec       q    Type
REMARK                         _______ _______ _______ _____ _____    ______ ____
ROOT
ATOM      1  C   UNL     1      -0.120   1.502  -0.037  0.00  0.00    +0.012 C 
ATOM      2  C   UNL     1      -0.086  -0.022  -0.044  0.00  0.00    -0.026 C 
ATOM      3  C   UNL     1      -1.522  -0.564  -0.059  0.00  0.00    +0.007 C 
ATOM      4  C   UNL     1      -2.263  -0.157   1.212  0.00  0.00    +0.001 C 
ATOM      5  C   UNL     1      -1.525  -0.669   2.449  0.00  0.00    +0.000 C 
ATOM      6  C   UNL     1      -0.096  -0.119   2.465  0.00  0.00    +0.004 C 
ATOM      7  C   UNL     1       0.623  -0.571   1.196  0.00  0.00    -0.005 C 
ATOM      8  C   UNL     1       2.092  -0.171   1.234  0.00  0.00    +0.004 C 
ATOM      9  C   UNL     1       2.807  -0.686  -0.027  0.00  0.00    +0.004 C 
ATOM     10  C   UNL     1       2.117  -0.080  -1.240  0.00  0.00    -0.001 C 
ATOM     11  C   UNL     1       0.656  -0.537  -1.278  0.00  0.00    +0.001 C 
ATOM     12  C   UNL     1       0.017  -0.094  -2.586  0.00  0.00    +0.036 C 
ATOM     13  C   UNL     1       0.627  -0.855  -3.773  0.00  0.00    +0.121 C 
ATOM     14  C   UNL     1       2.032  -1.316  -3.462  0.00  0.00    -0.001 C 
ATOM     15  C   UNL     1       2.772  -0.309  -2.561  0.00  0.00    +0.029 C 
ATOM     16  C   UNL     1       4.223  -0.772  -2.624  0.00  0.00    +0.119 C 
ATOM     17  C   UNL     1       4.381  -1.335  -4.062  0.00  0.00    +0.032 C 
ATOM     18  C   UNL     1       2.967  -1.297  -4.700  0.00  0.00    +0.012 C 
ATOM     19  C   UNL     1       2.033  -2.742  -2.909  0.00  0.00    +0.014 C 
ENDROOT
BRANCH  16  20
ATOM     20  O   UNL     1       4.519  -1.786  -1.669  0.00  0.00    -0.391 OA
ATOM     21  H   UNL     1       5.435  -2.094  -1.693  0.00  0.00    +0.210 HD
ENDBRANCH  16  20
BRANCH  13  22
ATOM     22  O   UNL     1      -0.194  -1.986  -4.095  0.00  0.00    -0.391 OA
ATOM     23  H   UNL     1      -1.101  -1.756  -4.341  0.00  0.00    +0.210 HD
ENDBRANCH  13  22
TORSDOF 2
