REMARK  Name = ZINC60383063
REMARK  10 active torsions:
REMARK  status: ('A' for Active; 'I' for Inactive)
REMARK    1  A    between atoms: C_1  and  C_2
REMARK    2  A    between atoms: C_7  and  C_8
REMARK    3  A    between atoms: C_7  and  C_9
REMARK    4  A    between atoms: N_12  and  N_13
REMARK    5  A    between atoms: C_14  and  C_16
REMARK    6  A    between atoms: C_16  and  O_17
REMARK    7  A    between atoms: O_17  and  C_18
REMARK    8  A    between atoms: C_18  and  C_20
REMARK    9  A    between atoms: C_24  and  S_26
REMARK   10  A    between atoms: S_26  and  N_29
REMARK                            x       y       z     vdW  Elec       q    Type
REMARK                         _______ _______ _______ _____ _____    ______ ____
ROOT
ATOM      1  C   UNL     1       0.294   3.226  -4.032  0.00  0.00    +0.329 C 
ENDROOT
BRANCH   1   3
ATOM      2  N   UNL     1       0.514   1.231  -2.587  0.00  0.00    -0.204 N 
ATOM      3  C   UNL     1       0.608   1.768  -3.819  0.00  0.00    +0.270 C 
ATOM      4  O   UNL     1       0.946   1.077  -4.758  0.00  0.00    -0.270 OA
ATOM      5  H   UNL     1       0.244   1.783  -1.836  0.00  0.00    +0.177 HD
BRANCH   2  16
ATOM      6  C   UNL     1       0.812   1.639   0.070  0.00  0.00    +0.018 C 
ATOM      7  C   UNL     1       0.558   0.131   0.111  0.00  0.00    +0.013 C 
ATOM      8  C   UNL     1      -0.856  -0.307   0.602  0.00  0.00    +0.013 C 
ATOM      9  C   UNL     1      -0.678  -1.781   1.034  0.00  0.00    +0.005 C 
ATOM     10  C   UNL     1       0.825  -2.091   0.754  0.00  0.00    +0.001 C 
ATOM     11  C   UNL     1       1.472  -0.698   1.080  0.00  0.00    -0.021 C 
ATOM     12  C   UNL     1       1.272  -0.299   2.543  0.00  0.00    +0.012 C 
ATOM     13  C   UNL     1       2.946  -0.639   0.671  0.00  0.00    +0.012 C 
ATOM     14  C   UNL     1       0.930  -2.111  -0.802  0.00  0.00    +0.057 C 
ATOM     15  C   UNL     1       0.779  -0.620  -1.209  0.00  0.00    +0.044 C 
ATOM     16  N   UNL     1       0.806  -0.125  -2.389  0.00  0.00    -0.189 NA
ENDBRANCH   2  16
ENDBRANCH   1   3
BRANCH   1  17
ATOM     17  O   UNL     1       0.466   3.554  -5.412  0.00  0.00    -0.452 OA
BRANCH  17  18
ATOM     18  C   UNL     1       0.223   4.829  -5.772  0.00  0.00    +0.340 C 
ATOM     19  O   UNL     1      -0.125   5.641  -4.938  0.00  0.00    -0.245 OA
BRANCH  18  20
ATOM     20  C   UNL     1       0.380   5.241  -7.182  0.00  0.00    +0.061 A 
ATOM     21  C   UNL     1       0.774   4.309  -8.145  0.00  0.00    +0.016 A 
ATOM     22  C   UNL     1       0.918   4.699  -9.459  0.00  0.00    +0.023 A 
ATOM     23  C   UNL     1       0.673   6.013  -9.825  0.00  0.00    +0.067 A 
ATOM     24  C   UNL     1       0.282   6.941  -8.875  0.00  0.00    +0.124 A 
ATOM     25  C   UNL     1       0.129   6.562  -7.559  0.00  0.00    +0.045 A 
ATOM     26 CL   UNL     1       0.858   6.497 -11.482  0.00  0.00    -0.082 Cl
BRANCH  24  27
ATOM     27  S   UNL     1      -0.027   8.610  -9.351  0.00  0.00    +0.057 S 
ATOM     28  O   UNL     1      -0.879   8.556 -10.487  0.00  0.00    -0.153 OA
ATOM     29  O   UNL     1      -0.378   9.312  -8.167  0.00  0.00    -0.153 OA
BRANCH  27  30
ATOM     30  N   UNL     1       1.412   9.245  -9.869  0.00  0.00    -0.203 NA
ATOM     31  H   UNL     1       2.213   8.699  -9.865  0.00  0.00    +0.144 HD
ATOM     32  H   UNL     1       1.453  10.164 -10.177  0.00  0.00    +0.144 HD
ENDBRANCH  27  30
ENDBRANCH  24  27
ENDBRANCH  18  20
ENDBRANCH  17  18
ENDBRANCH   1  17
TORSDOF 7
