REMARK  Name = ZINC39362384
REMARK  8 active torsions:
REMARK  status: ('A' for Active; 'I' for Inactive)
REMARK    1  A    between atoms: C_1  and  O_2
REMARK    2  A    between atoms: O_2  and  C_3
REMARK    3  A    between atoms: C_6  and  N_9
REMARK    4  A    between atoms: C_10  and  C_23
REMARK    5  A    between atoms: C_14  and  S_15
REMARK    6  A    between atoms: S_15  and  C_16
REMARK    7  A    between atoms: C_16  and  C_17
REMARK    8  A    between atoms: C_23  and  C_24
REMARK                            x       y       z     vdW  Elec       q    Type
REMARK                         _______ _______ _______ _____ _____    ______ ____
ROOT
ATOM      1  N   UNL     1       2.540  -2.503   4.230  0.00  0.00    -0.258 N 
ATOM      2  C   UNL     1       2.608  -3.952   4.484  0.00  0.00    +0.187 C 
ATOM      3  N   UNL     1       3.395  -4.058   5.725  0.00  0.00    -0.246 N 
ATOM      4  N   UNL     1       3.717  -2.746   6.095  0.00  0.00    -0.162 NA
ATOM      5  C   UNL     1       3.243  -1.888   5.256  0.00  0.00    +0.180 C 
ATOM      6  H   UNL     1       3.640  -4.872   6.192  0.00  0.00    +0.170 HD
ENDROOT
BRANCH   1  10
ATOM      7  C   UNL     1       0.625  -0.620   1.042  0.00  0.00    +0.120 A 
ATOM      8  C   UNL     1       2.008  -0.574   1.145  0.00  0.00    +0.047 A 
ATOM      9  C   UNL     1       2.643  -1.198   2.201  0.00  0.00    +0.027 A 
ATOM     10  C   UNL     1       1.897  -1.870   3.160  0.00  0.00    +0.038 A 
ATOM     11  C   UNL     1       0.513  -1.915   3.056  0.00  0.00    +0.027 A 
ATOM     12  C   UNL     1      -0.121  -1.286   2.003  0.00  0.00    +0.047 A 
BRANCH   7  14
ATOM     13  C   UNL     1       0.831   0.662  -0.950  0.00  0.00    +0.277 C 
ATOM     14  O   UNL     1       0.001  -0.005   0.002  0.00  0.00    -0.495 OA
ENDBRANCH   7  14
ENDBRANCH   1  10
BRANCH   5  15
ATOM     15  S   UNL     1       3.457  -0.145   5.400  0.00  0.00    -0.084 S 
BRANCH  15  16
ATOM     16  C   UNL     1       4.442   0.053   6.910  0.00  0.00    +0.112 C 
BRANCH  16  17
ATOM     17  C   UNL     1       4.700   1.518   7.152  0.00  0.00    -0.037 A 
ATOM     18  C   UNL     1       5.821   2.121   6.613  0.00  0.00    +0.004 A 
ATOM     19  C   UNL     1       6.059   3.464   6.835  0.00  0.00    +0.000 A 
ATOM     20  C   UNL     1       5.175   4.205   7.597  0.00  0.00    +0.000 A 
ATOM     21  C   UNL     1       4.053   3.603   8.136  0.00  0.00    +0.000 A 
ATOM     22  C   UNL     1       3.814   2.260   7.910  0.00  0.00    +0.004 A 
ENDBRANCH  16  17
ENDBRANCH  15  16
ENDBRANCH   5  15
BRANCH   2  23
ATOM     23  C   UNL     1       3.318  -4.666   3.332  0.00  0.00    +0.097 C 
BRANCH  23  24
ATOM     24  C   UNL     1       3.266  -6.155   3.556  0.00  0.00    +0.029 A 
ATOM     25  N   UNL     1       4.205  -6.765   4.344  0.00  0.00    -0.311 N 
ATOM     26  C   UNL     1       4.167  -8.094   4.551  0.00  0.00    +0.327 A 
ATOM     27  O   UNL     1       5.011  -8.615   5.255  0.00  0.00    -0.247 OA
ATOM     28  N   UNL     1       3.209  -8.854   3.990  0.00  0.00    -0.275 N 
ATOM     29  C   UNL     1       2.266  -8.292   3.207  0.00  0.00    +0.254 A 
ATOM     30  O   UNL     1       1.398  -8.979   2.699  0.00  0.00    -0.268 OA
ATOM     31  C   UNL     1       2.291  -6.894   2.985  0.00  0.00    +0.091 A 
ATOM     32  H   UNL     1       3.196  -9.811   4.150  0.00  0.00    +0.173 HD
ATOM     33  H   UNL     1       4.903  -6.234   4.757  0.00  0.00    +0.170 HD
ENDBRANCH  23  24
ENDBRANCH   2  23
TORSDOF 7
