REMARK  Name = ZINC36369522
REMARK  8 active torsions:
REMARK  status: ('A' for Active; 'I' for Inactive)
REMARK    1  A    between atoms: C_1  and  C_2
REMARK    2  A    between atoms: C_8  and  C_44
REMARK    3  A    between atoms: C_9  and  O_43
REMARK    4  A    between atoms: C_19  and  C_21
REMARK    5  A    between atoms: C_21  and  N_22
REMARK    6  A    between atoms: N_25  and  C_28
REMARK    7  A    between atoms: C_28  and  C_30
REMARK    8  A    between atoms: C_28  and  C_36
REMARK                            x       y       z     vdW  Elec       q    Type
REMARK                         _______ _______ _______ _____ _____    ______ ____
ROOT
ATOM      1  N   UNL     1       1.566   0.822   6.521  0.00  0.00    +0.382 N 
ATOM      2  C   UNL     1       2.715  -0.019   6.883  0.00  0.00    -0.063 C 
ATOM      3  C   UNL     1       3.771   0.835   7.588  0.00  0.00    +0.067 C 
ATOM      4  N   UNL     1       3.184   1.438   8.793  0.00  0.00    -0.295 NA
ATOM      5  C   UNL     1       2.018   2.264   8.449  0.00  0.00    +0.067 C 
ATOM      6  C   UNL     1       0.976   1.398   7.737  0.00  0.00    -0.063 C 
ATOM      7  H   UNL     1       1.873   1.565   5.912  0.00  0.00    -0.082 HD
ENDROOT
BRANCH   1   8
ATOM      8  C   UNL     1       0.561   0.005   5.828  0.00  0.00    -0.064 C 
BRANCH   8  23
ATOM      9  C   UNL     1      -5.166   0.755   7.599  0.00  0.00    +0.008 C 
ATOM     10  C   UNL     1      -5.250   0.656   6.074  0.00  0.00    -0.001 C 
ATOM     11  C   UNL     1      -6.384   1.556   5.582  0.00  0.00    +0.008 C 
ATOM     12  C   UNL     1      -6.516   1.375   4.066  0.00  0.00    +0.027 C 
ATOM     13  C   UNL     1      -5.189   1.682   3.432  0.00  0.00    -0.027 C 
ATOM     14  C   UNL     1      -4.055   1.553   4.055  0.00  0.00    -0.061 C 
ATOM     15  C   UNL     1      -3.914   1.085   5.476  0.00  0.00    +0.018 C 
ATOM     16  C   UNL     1      -2.934  -0.084   5.519  0.00  0.00    +0.132 C 
ATOM     17  C   UNL     1      -1.690   0.070   4.698  0.00  0.00    +0.071 C 
ATOM     18  C   UNL     1      -1.865   0.660   3.292  0.00  0.00    +0.187 C 
ATOM     19  C   UNL     1      -2.781   1.887   3.307  0.00  0.00    +0.076 C 
ATOM     20  O   UNL     1      -0.532   1.169   3.003  0.00  0.00    -0.460 OA
ATOM     21  C   UNL     1      -0.070   1.741   4.136  0.00  0.00    +0.309 C 
ATOM     22  O   UNL     1       0.615   2.732   4.206  0.00  0.00    -0.251 OA
ATOM     23  C   UNL     1      -0.566   0.911   5.312  0.00  0.00    +0.090 C 
ATOM     24  C   UNL     1      -3.383   2.240   6.330  0.00  0.00    +0.018 C 
BRANCH  16  25
ATOM     25  O   UNL     1      -3.605  -1.275   5.086  0.00  0.00    -0.391 OA
ATOM     26  H   UNL     1      -3.045  -2.064   5.086  0.00  0.00    +0.210 HD
ENDBRANCH  16  25
ENDBRANCH   8  23
ENDBRANCH   1   8
BRANCH   4  27
ATOM     27  C   UNL     1       4.184   2.222   9.530  0.00  0.00    +0.117 C 
BRANCH  27  28
ATOM     28  C   UNL     1       5.321   1.323   9.944  0.00  0.00    -0.026 A 
ATOM     29  C   UNL     1       5.061   0.041  10.390  0.00  0.00    +0.007 A 
ATOM     30  C   UNL     1       6.103  -0.784  10.770  0.00  0.00    +0.020 A 
ATOM     31  C   UNL     1       7.407  -0.326  10.704  0.00  0.00    +0.041 A 
ATOM     32  C   UNL     1       7.666   0.958  10.258  0.00  0.00    +0.020 A 
ATOM     33  C   UNL     1       6.624   1.780   9.873  0.00  0.00    +0.007 A 
ATOM     34 CL   UNL     1       8.716  -1.361  11.181  0.00  0.00    -0.084 Cl
ENDBRANCH  27  28
BRANCH  27  35
ATOM     35  C   UNL     1       3.547   2.823  10.757  0.00  0.00    -0.026 A 
ATOM     36  C   UNL     1       2.651   2.083  11.504  0.00  0.00    +0.005 A 
ATOM     37  C   UNL     1       2.067   2.634  12.629  0.00  0.00    +0.000 A 
ATOM     38  C   UNL     1       2.379   3.927  13.006  0.00  0.00    +0.000 A 
ATOM     39  C   UNL     1       3.276   4.668  12.259  0.00  0.00    +0.000 A 
ATOM     40  C   UNL     1       3.864   4.114  11.137  0.00  0.00    +0.005 A 
ENDBRANCH  27  35
ENDBRANCH   4  27
TORSDOF 6
