REMARK  Name = ZINC67619313
REMARK  5 active torsions:
REMARK  status: ('A' for Active; 'I' for Inactive)
REMARK    1  A    between atoms: C_1  and  C_2
REMARK    2  A    between atoms: C_5  and  C_8
REMARK    3  A    between atoms: C_8  and  C_10
REMARK    4  A    between atoms: N_18  and  C_19
REMARK    5  A    between atoms: C_22  and  C_24
REMARK                            x       y       z     vdW  Elec       q    Type
REMARK                         _______ _______ _______ _____ _____    ______ ____
ROOT
ATOM      1  C   UNL     1       0.076  -5.008   1.276  0.00  0.00    +0.063 C 
ATOM      2  C   UNL     1       1.518  -5.136   1.774  0.00  0.00    +0.030 C 
ATOM      3  C   UNL     1       1.527  -5.878   3.114  0.00  0.00    +0.110 C 
ATOM      4  N   UNL     1       0.829  -7.160   2.949  0.00  0.00    -0.286 N 
ATOM      5  C   UNL     1      -0.531  -7.158   2.392  0.00  0.00    +0.110 C 
ATOM      6  C   UNL     1      -0.517  -6.402   1.060  0.00  0.00    +0.030 C 
ATOM      7  C   UNL     1       1.424  -8.317   3.302  0.00  0.00    +0.302 C 
ATOM      8  O   UNL     1       0.804  -9.361   3.247  0.00  0.00    -0.253 OA
ATOM      9  N   UNL     1       2.707  -8.315   3.716  0.00  0.00    -0.296 N 
ATOM     10  H   UNL     1       3.179  -7.476   3.830  0.00  0.00    +0.151 HD
ENDROOT
BRANCH   9  11
ATOM     11  C   UNL     1       3.389  -9.582   3.993  0.00  0.00    +0.082 C 
ATOM     12  C   UNL     1       4.819  -9.742   3.474  0.00  0.00    +0.033 C 
ATOM     13  C   UNL     1       4.564  -9.552   4.972  0.00  0.00    +0.041 C 
BRANCH  13  14
ATOM     14  C   UNL     1       4.932  -8.222   5.577  0.00  0.00    -0.042 A 
ATOM     15  C   UNL     1       5.303  -7.170   4.761  0.00  0.00    +0.004 A 
ATOM     16  C   UNL     1       5.641  -5.950   5.317  0.00  0.00    +0.000 A 
ATOM     17  C   UNL     1       5.606  -5.782   6.688  0.00  0.00    +0.000 A 
ATOM     18  C   UNL     1       5.233  -6.834   7.504  0.00  0.00    +0.000 A 
ATOM     19  C   UNL     1       4.892  -8.053   6.949  0.00  0.00    +0.004 A 
ENDBRANCH  13  14
ENDBRANCH   9  11
BRANCH   1  20
ATOM     20  C   UNL     1       0.061  -4.248  -0.026  0.00  0.00    +0.166 C 
ATOM     21  O   UNL     1       0.064  -4.850  -1.079  0.00  0.00    -0.292 OA
BRANCH  20  26
ATOM     22  C   UNL     1      -0.014   1.500   0.000  0.00  0.00    +0.044 C 
ATOM     23  C   UNL     1       0.006  -0.007  -0.007  0.00  0.00    -0.050 A 
ATOM     24  C   UNL     1       0.010  -0.690  -1.211  0.00  0.00    +0.004 A 
ATOM     25  C   UNL     1       0.028  -2.069  -1.225  0.00  0.00    +0.011 A 
ATOM     26  C   UNL     1       0.042  -2.777  -0.019  0.00  0.00    +0.018 A 
ATOM     27  C   UNL     1       0.038  -2.079   1.193  0.00  0.00    +0.011 A 
ATOM     28  C   UNL     1       0.026  -0.701   1.191  0.00  0.00    +0.004 A 
ENDBRANCH  20  26
ENDBRANCH   1  20
TORSDOF 4
