REMARK  Name = ZINC37358319
REMARK  7 active torsions:
REMARK  status: ('A' for Active; 'I' for Inactive)
REMARK    1  A    between atoms: C_1  and  O_2
REMARK    2  A    between atoms: O_2  and  C_3
REMARK    3  A    between atoms: C_3  and  C_4
REMARK    4  A    between atoms: C_4  and  N_5
REMARK    5  A    between atoms: C_8  and  C_24
REMARK    6  A    between atoms: C_10  and  N_23
REMARK    7  A    between atoms: N_11  and  C_15
REMARK                            x       y       z     vdW  Elec       q    Type
REMARK                         _______ _______ _______ _____ _____    ______ ____
ROOT
ATOM      1  N   UNL     1       1.106  -2.489  -0.341  0.00  0.00    -0.311 N 
ATOM      2  C   UNL     1       1.455  -3.817  -0.505  0.00  0.00    +0.218 A 
ATOM      3  N   UNL     1       2.217  -4.142  -1.545  0.00  0.00    -0.214 NA
ATOM      4  C   UNL     1       2.597  -5.392  -1.777  0.00  0.00    +0.091 A 
ATOM      5  C   UNL     1       2.171  -6.399  -0.882  0.00  0.00    +0.086 A 
ATOM      6  C   UNL     1       2.344  -7.774  -0.775  0.00  0.00    +0.131 A 
ATOM      7  N   UNL     1       1.675  -8.182   0.321  0.00  0.00    -0.216 N 
ATOM      8  N   UNL     1       1.061  -7.087   0.940  0.00  0.00    -0.144 NA
ATOM      9  C   UNL     1       1.328  -5.995   0.258  0.00  0.00    +0.189 A 
ATOM     10  N   UNL     1       1.018  -4.690   0.380  0.00  0.00    -0.193 NA
ATOM     11  H   UNL     1       1.413  -1.824  -0.977  0.00  0.00    +0.149 HD
ENDROOT
BRANCH   7  12
ATOM     12  C   UNL     1       1.604  -9.505   0.774  0.00  0.00    +0.069 A 
ATOM     13  C   UNL     1       1.572 -10.552  -0.139  0.00  0.00    +0.029 A 
ATOM     14  C   UNL     1       1.503 -11.856   0.310  0.00  0.00    +0.023 A 
ATOM     15  C   UNL     1       1.464 -12.121   1.667  0.00  0.00    +0.059 A 
ATOM     16  C   UNL     1       1.496 -11.080   2.580  0.00  0.00    +0.061 A 
ATOM     17  C   UNL     1       1.572  -9.773   2.136  0.00  0.00    +0.049 A 
ATOM     18 CL   UNL     1       1.447 -11.417   4.282  0.00  0.00    -0.082 Cl
ATOM     19 CL   UNL     1       1.375 -13.762   2.228  0.00  0.00    -0.082 Cl
ENDBRANCH   7  12
BRANCH   4  20
ATOM     20  C   UNL     1       3.445  -5.723  -2.944  0.00  0.00    +0.036 A 
ATOM     21  C   UNL     1       3.007  -6.653  -3.888  0.00  0.00    +0.013 A 
ATOM     22  C   UNL     1       3.802  -6.957  -4.973  0.00  0.00    +0.001 A 
ATOM     23  C   UNL     1       5.033  -6.343  -5.129  0.00  0.00    +0.003 A 
ATOM     24  C   UNL     1       5.475  -5.420  -4.199  0.00  0.00    +0.039 A 
ATOM     25  C   UNL     1       4.686  -5.101  -3.109  0.00  0.00    +0.133 A 
ATOM     26  F   UNL     1       5.116  -4.196  -2.203  0.00  0.00    -0.205 F 
ENDBRANCH   4  20
BRANCH   6  27
ATOM     27  N   UNL     1       3.069  -8.576  -1.636  0.00  0.00    -0.342 N 
ATOM     28  H   UNL     1       3.507  -8.186  -2.409  0.00  0.00    +0.144 HD
ATOM     29  H   UNL     1       3.141  -9.528  -1.467  0.00  0.00    +0.144 HD
ENDBRANCH   6  27
BRANCH   1  30
ATOM     30  C   UNL     1       0.272  -2.085   0.795  0.00  0.00    +0.132 C 
BRANCH  30  31
ATOM     31  C   UNL     1       0.036  -0.575   0.743  0.00  0.00    +0.178 C 
BRANCH  31  33
ATOM     32  C   UNL     1      -1.007   1.142  -0.565  0.00  0.00    +0.194 C 
ATOM     33  O   UNL     1      -0.729  -0.252  -0.421  0.00  0.00    -0.381 OA
ENDBRANCH  31  33
ENDBRANCH  30  31
ENDBRANCH   1  30
TORSDOF 6
