REMARK  Name = ZINC37604759
REMARK  9 active torsions:
REMARK  status: ('A' for Active; 'I' for Inactive)
REMARK    1  A    between atoms: C_6  and  C_7
REMARK    2  A    between atoms: C_11  and  O_23
REMARK    3  A    between atoms: C_18  and  C_20
REMARK    4  A    between atoms: O_23  and  C_24
REMARK    5  A    between atoms: C_24  and  C_25
REMARK    6  A    between atoms: C_28  and  C_30
REMARK    7  A    between atoms: N_32  and  C_33
REMARK    8  A    between atoms: C_33  and  C_34
REMARK    9  A    between atoms: C_34  and  N_35
REMARK                            x       y       z     vdW  Elec       q    Type
REMARK                         _______ _______ _______ _____ _____    ______ ____
ROOT
ATOM      1  C   UNL     1      -1.282  -0.784   0.021  0.00  0.00    +0.137 C 
ATOM      2  C   UNL     1      -1.519  -1.375   1.389  0.00  0.00    -0.016 A 
ATOM      3  C   UNL     1      -1.363  -0.542   2.488  0.00  0.00    +0.051 A 
ATOM      4  C   UNL     1      -1.577  -1.023   3.769  0.00  0.00    +0.121 A 
ATOM      5  C   UNL     1      -1.951  -2.347   3.950  0.00  0.00    +0.046 A 
ATOM      6  C   UNL     1      -2.101  -3.172   2.856  0.00  0.00    +0.007 A 
ATOM      7  C   UNL     1      -1.881  -2.691   1.571  0.00  0.00    -0.040 A 
ATOM      8  C   UNL     1      -2.038  -3.660   0.428  0.00  0.00    +0.054 C 
ATOM      9  C   UNL     1      -2.242  -2.917  -0.891  0.00  0.00    +0.113 C 
ATOM     10  N   UNL     1      -1.222  -1.858  -0.976  0.00  0.00    -0.290 N 
ATOM     11  C   UNL     1      -0.273  -1.875  -1.933  0.00  0.00    +0.219 C 
ATOM     12  O   UNL     1       0.599  -1.032  -1.936  0.00  0.00    -0.275 OA
ENDROOT
BRANCH   1  18
ATOM     13  C   UNL     1       0.050   1.299  -0.368  0.00  0.00    +0.008 A 
ATOM     14  C   UNL     1       1.244   1.994  -0.369  0.00  0.00    +0.038 A 
ATOM     15  C   UNL     1       2.412   1.362   0.021  0.00  0.00    +0.123 A 
ATOM     16  C   UNL     1       2.383   0.034   0.411  0.00  0.00    +0.038 A 
ATOM     17  C   UNL     1       1.187  -0.659   0.411  0.00  0.00    +0.008 A 
ATOM     18  C   UNL     1       0.021  -0.027   0.021  0.00  0.00    -0.022 A 
ATOM     19  F   UNL     1       3.581   2.041   0.021  0.00  0.00    -0.205 F 
ENDBRANCH   1  18
BRANCH  11  20
ATOM     20  C   UNL     1      -0.296  -2.940  -2.998  0.00  0.00    +0.075 C 
ATOM     21  C   UNL     1       0.820  -3.986  -2.974  0.00  0.00    +0.013 C 
ATOM     22  C   UNL     1       0.809  -2.905  -4.056  0.00  0.00    +0.013 C 
ENDBRANCH  11  20
BRANCH   4  23
ATOM     23  O   UNL     1      -1.422  -0.203   4.841  0.00  0.00    -0.484 OA
BRANCH  23  24
ATOM     24  C   UNL     1      -1.660  -0.771   6.131  0.00  0.00    +0.303 C 
BRANCH  24  25
ATOM     25  C   UNL     1      -1.440   0.279   7.190  0.00  0.00    +0.143 A 
ATOM     26  C   UNL     1      -2.384   1.113   7.679  0.00  0.00    +0.049 A 
ATOM     27  C   UNL     1      -1.761   1.924   8.641  0.00  0.00    +0.055 A 
ATOM     28  C   UNL     1      -0.452   1.538   8.691  0.00  0.00    +0.190 A 
ATOM     29  O   UNL     1      -0.278   0.535   7.806  0.00  0.00    -0.452 OA
BRANCH  28  30
ATOM     30  C   UNL     1       0.583   2.111   9.557  0.00  0.00    +0.279 C 
ATOM     31  O   UNL     1       0.304   3.016  10.322  0.00  0.00    -0.267 OA
ATOM     32  N   UNL     1       1.843   1.636   9.507  0.00  0.00    -0.311 N 
ATOM     33  H   UNL     1       2.066   0.915   8.898  0.00  0.00    +0.149 HD
BRANCH  32  34
ATOM     34  C   UNL     1       2.877   2.209  10.373  0.00  0.00    +0.086 C 
BRANCH  34  35
ATOM     35  C   UNL     1       4.206   1.495  10.120  0.00  0.00    -0.060 C 
BRANCH  35  36
ATOM     36  N   UNL     1       5.243   2.070  10.989  0.00  0.00    +0.381 N 
ATOM     37  C   UNL     1       4.972   1.724  12.408  0.00  0.00    -0.079 C 
ATOM     38  C   UNL     1       6.358   1.879  13.081  0.00  0.00    -0.020 C 
ATOM     39  C   UNL     1       7.329   1.350  12.001  0.00  0.00    -0.020 C 
ATOM     40  C   UNL     1       6.560   1.474  10.673  0.00  0.00    -0.079 C 
ATOM     41  H   UNL     1       5.277   3.071  10.874  0.00  0.00    -0.082 HD
ENDBRANCH  35  36
ENDBRANCH  34  35
ENDBRANCH  32  34
ENDBRANCH  28  30
ENDBRANCH  24  25
ENDBRANCH  23  24
ENDBRANCH   4  23
TORSDOF 9
