REMARK  Name = ZINC39491684
REMARK  11 active torsions:
REMARK  status: ('A' for Active; 'I' for Inactive)
REMARK    1  A    between atoms: C_1  and  N_2
REMARK    2  A    between atoms: N_2  and  C_3
REMARK    3  A    between atoms: C_3  and  C_4
REMARK    4  A    between atoms: N_6  and  C_17
REMARK    5  A    between atoms: C_10  and  C_13
REMARK    6  A    between atoms: C_13  and  O_15
REMARK    7  A    between atoms: O_15  and  C_16
REMARK    8  A    between atoms: C_17  and  C_18
REMARK    9  A    between atoms: C_18  and  C_20
REMARK   10  A    between atoms: C_18  and  C_26
REMARK   11  A    between atoms: C_31  and  O_32
REMARK                            x       y       z     vdW  Elec       q    Type
REMARK                         _______ _______ _______ _____ _____    ______ ____
ROOT
ATOM      1  C   UNL     1       0.572  -2.108  -1.060  0.00  0.00    -0.039 A 
ATOM      2  C   UNL     1       1.546  -2.942  -0.663  0.00  0.00    +0.088 A 
ATOM      3  N   UNL     1       1.238  -4.225  -1.027  0.00  0.00    -0.346 N 
ATOM      4  C   UNL     1       0.031  -4.251  -1.683  0.00  0.00    +0.049 A 
ATOM      5  C   UNL     1      -0.445  -2.925  -1.728  0.00  0.00    +0.002 A 
ATOM      6  C   UNL     1      -1.665  -2.644  -2.335  0.00  0.00    +0.025 A 
ATOM      7  C   UNL     1      -2.407  -3.683  -2.892  0.00  0.00    +0.060 A 
ATOM      8  C   UNL     1      -1.925  -4.998  -2.837  0.00  0.00    +0.017 A 
ATOM      9  C   UNL     1      -0.726  -5.275  -2.250  0.00  0.00    +0.027 A 
ENDROOT
BRANCH   7  10
ATOM     10  C   UNL     1      -3.703  -3.399  -3.538  0.00  0.00    +0.339 C 
ATOM     11  O   UNL     1      -4.122  -2.259  -3.585  0.00  0.00    -0.245 OA
BRANCH  10  12
ATOM     12  O   UNL     1      -4.421  -4.404  -4.076  0.00  0.00    -0.464 OA
ATOM     13  C   UNL     1      -5.666  -4.057  -4.686  0.00  0.00    +0.280 C 
ENDBRANCH  10  12
ENDBRANCH   7  10
BRANCH   1  14
ATOM     14  C   UNL     1       0.530  -0.616  -0.853  0.00  0.00    -0.045 C 
BRANCH  14  16
ATOM     15  C   UNL     1      -0.373   1.149   0.497  0.00  0.00    -0.100 C 
ATOM     16  N   UNL     1      -0.332  -0.305   0.295  0.00  0.00    +0.380 N 
ATOM     17  H   UNL     1       0.037  -0.749   1.123  0.00  0.00    -0.086 HD
ATOM     18  H   UNL     1      -1.265  -0.647   0.118  0.00  0.00    -0.086 HD
ENDBRANCH  14  16
ENDBRANCH   1  14
BRANCH   3  19
ATOM     19  C   UNL     1       2.074  -5.398  -0.758  0.00  0.00    +0.134 C 
BRANCH  19  20
ATOM     20  C   UNL     1       2.956  -5.686  -1.974  0.00  0.00    +0.072 C 
BRANCH  20  21
ATOM     21  C   UNL     1       2.088  -6.074  -3.144  0.00  0.00    -0.038 A 
ATOM     22  C   UNL     1       1.368  -7.254  -3.108  0.00  0.00    +0.004 A 
ATOM     23  C   UNL     1       0.572  -7.610  -4.181  0.00  0.00    +0.000 A 
ATOM     24  C   UNL     1       0.496  -6.787  -5.289  0.00  0.00    +0.000 A 
ATOM     25  C   UNL     1       1.216  -5.607  -5.324  0.00  0.00    +0.000 A 
ATOM     26  C   UNL     1       2.009  -5.249  -4.250  0.00  0.00    +0.004 A 
ENDBRANCH  20  21
BRANCH  20  27
ATOM     27  C   UNL     1       3.901  -6.815  -1.653  0.00  0.00    +0.003 A 
ATOM     28  C   UNL     1       3.413  -7.999  -1.136  0.00  0.00    +0.008 A 
ATOM     29  C   UNL     1       4.280  -9.035  -0.841  0.00  0.00    +0.001 A 
ATOM     30  C   UNL     1       5.637  -8.889  -1.063  0.00  0.00    +0.004 A 
ATOM     31  C   UNL     1       6.130  -7.707  -1.581  0.00  0.00    +0.046 A 
ATOM     32  C   UNL     1       5.261  -6.668  -1.883  0.00  0.00    +0.121 A 
BRANCH  32  33
ATOM     33  O   UNL     1       5.743  -5.506  -2.397  0.00  0.00    -0.506 OA
ATOM     34  H   UNL     1       5.986  -4.850  -1.729  0.00  0.00    +0.292 HD
ENDBRANCH  32  33
ENDBRANCH  20  27
ENDBRANCH  19  20
ENDBRANCH   3  19
TORSDOF 9
