REMARK  Name = ZINC36647230
REMARK  5 active torsions:
REMARK  status: ('A' for Active; 'I' for Inactive)
REMARK    1  A    between atoms: C_1  and  O_2
REMARK    2  A    between atoms: O_2  and  C_3
REMARK    3  A    between atoms: C_6  and  C_9
REMARK    4  A    between atoms: C_21  and  O_23
REMARK    5  A    between atoms: C_27  and  O_38
REMARK                            x       y       z     vdW  Elec       q    Type
REMARK                         _______ _______ _______ _____ _____    ______ ____
ROOT
ATOM      1  C   UNL     1      -4.981  -2.629   0.035  0.00  0.00    +0.087 C 
ATOM      2  C   UNL     1      -5.111  -3.464  -1.216  0.00  0.00    +0.036 C 
ATOM      3  C   UNL     1      -4.848  -4.753  -1.165  0.00  0.00    +0.120 C 
ATOM      4  C   UNL     1      -4.955  -5.601  -2.400  0.00  0.00    +0.111 C 
ATOM      5  C   UNL     1      -5.468  -6.984  -2.119  0.00  0.00    -0.013 C 
ATOM      6  C   UNL     1      -5.978  -7.682  -3.139  0.00  0.00    -0.004 C 
ATOM      7  C   UNL     1      -6.010  -7.090  -4.489  0.00  0.00    -0.002 C 
ATOM      8  C   UNL     1      -5.980  -5.761  -4.634  0.00  0.00    +0.005 C 
ATOM      9  C   UNL     1      -5.916  -4.929  -3.385  0.00  0.00    +0.159 C 
ATOM     10  O   UNL     1      -5.428  -3.613  -3.627  0.00  0.00    -0.339 OA
ATOM     11  C   UNL     1      -5.558  -2.773  -2.479  0.00  0.00    +0.280 C 
ATOM     12  O   UNL     1      -4.471  -5.333  -0.002  0.00  0.00    -0.463 OA
ATOM     13  C   UNL     1      -4.812  -4.779   1.184  0.00  0.00    +0.120 C 
ATOM     14  C   UNL     1      -5.079  -3.493   1.269  0.00  0.00    +0.036 C 
ATOM     15  C   UNL     1      -5.502  -2.833   2.557  0.00  0.00    +0.280 C 
ATOM     16  O   UNL     1      -5.319  -3.689   3.686  0.00  0.00    -0.339 OA
ATOM     17  C   UNL     1      -5.791  -5.010   3.440  0.00  0.00    +0.159 C 
ATOM     18  C   UNL     1      -4.857  -5.647   2.408  0.00  0.00    +0.111 C 
ATOM     19  C   UNL     1      -5.333  -7.042   2.122  0.00  0.00    -0.013 C 
ATOM     20  C   UNL     1      -5.787  -7.770   3.148  0.00  0.00    -0.004 C 
ATOM     21  C   UNL     1      -5.794  -7.199   4.506  0.00  0.00    -0.002 C 
ATOM     22  C   UNL     1      -5.791  -5.876   4.668  0.00  0.00    +0.005 C 
ENDROOT
BRANCH   1  26
ATOM     23  C   UNL     1      -1.200  -0.637   0.010  0.00  0.00    +0.120 A 
ATOM     24  C   UNL     1      -2.375   0.101   0.019  0.00  0.00    +0.046 A 
ATOM     25  C   UNL     1      -3.596  -0.545   0.027  0.00  0.00    +0.008 A 
ATOM     26  C   UNL     1      -3.648  -1.927   0.026  0.00  0.00    -0.035 A 
ATOM     27  C   UNL     1      -2.479  -2.665   0.017  0.00  0.00    +0.008 A 
ATOM     28  C   UNL     1      -1.255  -2.024   0.003  0.00  0.00    +0.046 A 
BRANCH  23  30
ATOM     29  C   UNL     1      -0.017   1.425   0.010  0.00  0.00    +0.277 C 
ATOM     30  O   UNL     1       0.002  -0.004   0.002  0.00  0.00    -0.495 OA
ENDBRANCH  23  30
ENDBRANCH   1  26
BRANCH  11  31
ATOM     31  O   UNL     1      -6.927  -2.389  -2.337  0.00  0.00    -0.363 OA
ATOM     32  H   UNL     1      -7.290  -1.936  -3.111  0.00  0.00    +0.213 HD
ENDBRANCH  11  31
BRANCH  15  33
ATOM     33  O   UNL     1      -6.883  -2.478   2.465  0.00  0.00    -0.363 OA
ATOM     34  H   UNL     1      -7.232  -2.047   3.257  0.00  0.00    +0.213 HD
ENDBRANCH  15  33
TORSDOF 4
