REMARK  Name = ZINC14831877
REMARK  9 active torsions:
REMARK  status: ('A' for Active; 'I' for Inactive)
REMARK    1  A    between atoms: C_1  and  C_2
REMARK    2  A    between atoms: C_2  and  C_3
REMARK    3  A    between atoms: C_3  and  C_5
REMARK    4  A    between atoms: C_3  and  C_6
REMARK    5  A    between atoms: C_9  and  O_13
REMARK    6  A    between atoms: O_13  and  C_14
REMARK    7  A    between atoms: C_14  and  C_15
REMARK    8  A    between atoms: N_17  and  C_18
REMARK    9  A    between atoms: C_19  and  C_27
REMARK                            x       y       z     vdW  Elec       q    Type
REMARK                         _______ _______ _______ _____ _____    ______ ____
ROOT
ATOM      1  C   UNL     1      -5.447   4.066   7.739  0.00  0.00    +0.255 C 
ATOM      2  O   UNL     1      -5.814   3.101   8.374  0.00  0.00    -0.272 OA
ATOM      3  N   UNL     1      -5.656   5.308   8.219  0.00  0.00    -0.277 N 
ATOM      4  H   UNL     1      -5.362   6.080   7.710  0.00  0.00    +0.155 HD
ENDROOT
BRANCH   3   5
ATOM      5  C   UNL     1      -6.290   5.482   9.440  0.00  0.00    +0.084 A 
ATOM      6  C   UNL     1      -6.586   6.668  10.096  0.00  0.00    +0.068 A 
ATOM      7  C   UNL     1      -7.267   6.575  11.376  0.00  0.00    -0.023 A 
ATOM      8  C   UNL     1      -7.531   5.319  11.797  0.00  0.00    -0.004 A 
ATOM      9  S   UNL     1      -6.897   4.271  10.519  0.00  0.00    -0.077 S 
ATOM     10  C   UNL     1      -8.211   4.918  13.070  0.00  0.00    +0.043 C 
ATOM     11  C   UNL     1      -8.235   6.132  14.010  0.00  0.00    +0.005 C 
ATOM     12  C   UNL     1      -8.728   7.352  13.227  0.00  0.00    +0.005 C 
ATOM     13  C   UNL     1      -7.666   7.784  12.214  0.00  0.00    +0.037 C 
BRANCH   6  14
ATOM     14  C   UNL     1      -6.229   7.967   9.517  0.00  0.00    +0.244 C 
ATOM     15  O   UNL     1      -7.014   8.544   8.788  0.00  0.00    -0.270 OA
ATOM     16  N   UNL     1      -5.032   8.522   9.793  0.00  0.00    -0.325 N 
ATOM     17  H   UNL     1      -4.407   8.062  10.375  0.00  0.00    +0.145 HD
ATOM     18  H   UNL     1      -4.796   9.381   9.410  0.00  0.00    +0.145 HD
ENDBRANCH   6  14
ENDBRANCH   3   5
BRANCH   1  19
ATOM     19  C   UNL     1      -4.758   3.877   6.412  0.00  0.00    +0.325 C 
BRANCH  19  20
ATOM     20  O   UNL     1      -4.656   2.481   6.123  0.00  0.00    -0.482 OA
BRANCH  20  24
ATOM     21  C   UNL     1      -2.831   1.432   2.574  0.00  0.00    -0.043 A 
ATOM     22  C   UNL     1      -2.958   2.766   2.917  0.00  0.00    +0.007 A 
ATOM     23  C   UNL     1      -3.574   3.119   4.102  0.00  0.00    +0.047 A 
ATOM     24  C   UNL     1      -4.055   2.136   4.954  0.00  0.00    +0.135 A 
ATOM     25  C   UNL     1      -3.921   0.798   4.610  0.00  0.00    +0.060 A 
ATOM     26  C   UNL     1      -3.309   0.449   3.420  0.00  0.00    +0.022 A 
ATOM     27 BR   UNL     1      -4.575  -0.547   5.767  0.00  0.00    -0.047 Br
BRANCH  21  28
ATOM     28  C   UNL     1      -2.164   1.050   1.278  0.00  0.00    +0.016 C 
ATOM     29  C   UNL     1      -2.940   1.656   0.107  0.00  0.00    +0.012 C 
BRANCH  28  31
ATOM     30  C   UNL     1      -0.013   1.086   0.008  0.00  0.00    +0.004 C 
ATOM     31  C   UNL     1      -0.729   1.579   1.267  0.00  0.00    +0.004 C 
ENDBRANCH  28  31
ENDBRANCH  21  28
ENDBRANCH  20  24
ENDBRANCH  19  20
ENDBRANCH   1  19
TORSDOF 7
