REMARK  Name = ZINC39574854
REMARK  6 active torsions:
REMARK  status: ('A' for Active; 'I' for Inactive)
REMARK    1  A    between atoms: C_1  and  C_2
REMARK    2  A    between atoms: C_2  and  C_4
REMARK    3  A    between atoms: C_2  and  O_21
REMARK    4  A    between atoms: N_6  and  N_7
REMARK    5  A    between atoms: C_8  and  C_9
REMARK    6  A    between atoms: O_21  and  C_22
REMARK                            x       y       z     vdW  Elec       q    Type
REMARK                         _______ _______ _______ _____ _____    ______ ____
ROOT
ATOM      1  C   UNL     1      -1.426  -0.748  -0.046  0.00  0.00    +0.273 C 
ATOM      2  O   UNL     1      -1.835  -1.187  -1.100  0.00  0.00    -0.270 OA
ATOM      3  N   UNL     1      -2.233  -0.726   1.034  0.00  0.00    -0.204 N 
ATOM      4  H   UNL     1      -1.905  -0.376   1.877  0.00  0.00    +0.177 HD
ENDROOT
BRANCH   1   6
ATOM      5  C   UNL     1      -0.044   1.273   0.345  0.00  0.00    +0.062 C 
ATOM      6  C   UNL     1      -0.015  -0.229   0.058  0.00  0.00    +0.257 C 
BRANCH   6   7
ATOM      7  O   UNL     1       0.671  -0.465  -1.174  0.00  0.00    -0.480 OA
BRANCH   7   8
ATOM      8  C   UNL     1       2.026  -0.553  -1.118  0.00  0.00    +0.122 A 
ATOM      9  C   UNL     1       2.690  -0.309   0.075  0.00  0.00    +0.047 A 
ATOM     10  C   UNL     1       4.067  -0.399   0.130  0.00  0.00    +0.023 A 
ATOM     11  C   UNL     1       4.785  -0.732  -1.005  0.00  0.00    +0.041 A 
ATOM     12  C   UNL     1       4.125  -0.975  -2.197  0.00  0.00    +0.023 A 
ATOM     13  C   UNL     1       2.747  -0.893  -2.253  0.00  0.00    +0.047 A 
ATOM     14 CL   UNL     1       6.516  -0.844  -0.934  0.00  0.00    -0.084 Cl
ENDBRANCH   7   8
ENDBRANCH   6   7
ENDBRANCH   1   6
BRANCH   3  15
ATOM     15  N   UNL     1      -3.544  -1.209   0.938  0.00  0.00    -0.191 NA
ATOM     16  C   UNL     1      -4.311  -1.188   1.962  0.00  0.00    +0.120 C 
BRANCH  16  17
ATOM     17  C   UNL     1      -5.722  -1.707   1.859  0.00  0.00    +0.141 C 
ATOM     18  C   UNL     1      -5.842  -2.911   2.773  0.00  0.00    +0.001 C 
ATOM     19  C   UNL     1      -6.790  -2.860   3.752  0.00  0.00    -0.007 A 
ATOM     20  C   UNL     1      -6.974  -3.978   4.678  0.00  0.00    +0.009 A 
ATOM     21  C   UNL     1      -7.930  -3.884   5.637  0.00  0.00    +0.001 A 
ATOM     22  C   UNL     1      -8.733  -2.749   5.753  0.00  0.00    +0.002 A 
ATOM     23  C   UNL     1      -8.612  -1.678   4.926  0.00  0.00    +0.024 A 
ATOM     24  C   UNL     1      -7.652  -1.674   3.898  0.00  0.00    +0.040 A 
ATOM     25  N   UNL     1      -7.542  -0.618   3.092  0.00  0.00    -0.284 N 
ATOM     26  C   UNL     1      -6.662  -0.549   2.108  0.00  0.00    +0.229 C 
ATOM     27  O   UNL     1      -6.609   0.443   1.406  0.00  0.00    -0.274 OA
ATOM     28  H   UNL     1      -8.136   0.136   3.235  0.00  0.00    +0.155 HD
ENDBRANCH  16  17
ENDBRANCH   3  15
TORSDOF 5
