REMARK  Name = ZINC12560175
REMARK  7 active torsions:
REMARK  status: ('A' for Active; 'I' for Inactive)
REMARK    1  A    between atoms: C_1  and  C_2
REMARK    2  A    between atoms: C_3  and  C_20
REMARK    3  A    between atoms: C_4  and  N_13
REMARK    4  A    between atoms: N_5  and  C_7
REMARK    5  A    between atoms: C_20  and  C_21
REMARK    6  A    between atoms: C_20  and  C_25
REMARK    7  A    between atoms: C_20  and  O_29
REMARK                            x       y       z     vdW  Elec       q    Type
REMARK                         _______ _______ _______ _____ _____    ______ ____
ROOT
ATOM      1  C   UNL     1       0.309   1.330   1.587  0.00  0.00    +0.068 C 
ATOM      2  C   UNL     1      -0.667   0.349   0.991  0.00  0.00    +0.069 A 
ATOM      3  C   UNL     1      -1.681   0.658   0.080  0.00  0.00    +0.064 A 
ATOM      4  C   UNL     1      -2.341  -0.496  -0.217  0.00  0.00    +0.134 A 
ATOM      5  N   UNL     1      -1.752  -1.497   0.492  0.00  0.00    -0.218 N 
ATOM      6  N   UNL     1      -0.708  -0.935   1.238  0.00  0.00    -0.170 NA
ENDROOT
BRANCH   4   7
ATOM      7  N   UNL     1      -3.421  -0.627  -1.087  0.00  0.00    -0.289 N 
ATOM      8  C   UNL     1      -4.531   0.163  -0.927  0.00  0.00    +0.073 C 
ATOM      9  C   UNL     1      -5.701   1.963   0.123  0.00  0.00    +0.113 C 
ATOM     10  C   UNL     1      -5.828   2.899  -1.080  0.00  0.00    +0.021 C 
ATOM     11  C   UNL     1      -6.606   2.231  -2.201  0.00  0.00    +0.002 C 
ATOM     12  C   UNL     1      -5.886   1.035  -2.801  0.00  0.00    +0.007 C 
ATOM     13  C   UNL     1      -5.761  -0.090  -1.771  0.00  0.00    +0.069 C 
ATOM     14  H   UNL     1      -3.388  -1.277  -1.807  0.00  0.00    +0.155 HD
ATOM     15  N   UNL     1      -4.459   1.113  -0.021  0.00  0.00    -0.376 N 
ATOM     16  H   UNL     1      -3.619   1.267   0.547  0.00  0.00    +0.160 HD
ENDBRANCH   4   7
BRANCH   5  17
ATOM     17  C   UNL     1      -2.124  -2.848   0.479  0.00  0.00    +0.067 A 
ATOM     18  C   UNL     1      -3.462  -3.200   0.363  0.00  0.00    +0.028 A 
ATOM     19  C   UNL     1      -3.825  -4.532   0.346  0.00  0.00    +0.002 A 
ATOM     20  C   UNL     1      -2.858  -5.515   0.455  0.00  0.00    +0.000 A 
ATOM     21  C   UNL     1      -1.525  -5.168   0.575  0.00  0.00    +0.002 A 
ATOM     22  C   UNL     1      -1.156  -3.837   0.588  0.00  0.00    +0.028 A 
ENDBRANCH   5  17
BRANCH   3  23
ATOM     23  C   UNL     1      -1.985   2.023  -0.480  0.00  0.00    +0.286 C 
BRANCH  23  24
ATOM     24  C   UNL     1      -2.286   2.989   0.668  0.00  0.00    +0.431 C 
ATOM     25  F   UNL     1      -1.085   3.467   1.202  0.00  0.00    -0.167 F 
ATOM     26  F   UNL     1      -3.042   4.064   0.187  0.00  0.00    -0.167 F 
ATOM     27  F   UNL     1      -3.006   2.321   1.663  0.00  0.00    -0.167 F 
ENDBRANCH  23  24
BRANCH  23  28
ATOM     28  C   UNL     1      -0.778   2.531  -1.271  0.00  0.00    +0.431 C 
ATOM     29  F   UNL     1      -0.223   1.476  -2.003  0.00  0.00    -0.167 F 
ATOM     30  F   UNL     1      -1.186   3.543  -2.147  0.00  0.00    -0.167 F 
ATOM     31  F   UNL     1       0.179   3.038  -0.386  0.00  0.00    -0.167 F 
ENDBRANCH  23  28
BRANCH  23  32
ATOM     32  O   UNL     1      -3.121   1.942  -1.344  0.00  0.00    -0.369 OA
ATOM     33  H   UNL     1      -3.023   1.302  -2.063  0.00  0.00    +0.211 HD
ENDBRANCH  23  32
ENDBRANCH   3  23
TORSDOF 6
