REMARK  Name = ZINC61888130
REMARK  5 active torsions:
REMARK  status: ('A' for Active; 'I' for Inactive)
REMARK    1  A    between atoms: C_4  and  S_8
REMARK    2  A    between atoms: S_8  and  N_11
REMARK    3  A    between atoms: N_11  and  C_12
REMARK    4  A    between atoms: C_17  and  C_19
REMARK    5  A    between atoms: N_20  and  O_21
REMARK                            x       y       z     vdW  Elec       q    Type
REMARK                         _______ _______ _______ _____ _____    ______ ____
ROOT
ATOM      1  N   UNL     1       3.870  -0.200  -1.219  0.00  0.00    -0.186 NA
ATOM      2  H   UNL     1       4.287  -1.074  -1.267  0.00  0.00    +0.148 HD
ENDROOT
BRANCH   1   3
ATOM      3  C   UNL     1       4.648   1.001  -1.536  0.00  0.00    +0.087 C 
ATOM      4  C   UNL     1       6.056   0.893  -0.925  0.00  0.00    +0.021 C 
ATOM      5  C   UNL     1       7.053   0.951  -2.101  0.00  0.00    +0.002 C 
ATOM      6  C   UNL     1       6.225   0.482  -3.323  0.00  0.00    +0.013 C 
ATOM      7  C   UNL     1       4.837   1.121  -3.062  0.00  0.00    +0.074 C 
BRANCH   7   8
ATOM      8  C   UNL     1       3.759   0.358  -3.789  0.00  0.00    +0.136 C 
ATOM      9  N   UNL     1       3.003   0.964  -4.644  0.00  0.00    -0.076 NA
ATOM     10  N   UNL     1       3.580  -0.985  -3.542  0.00  0.00    -0.344 N 
ATOM     11  H   UNL     1       4.171  -1.448  -2.927  0.00  0.00    +0.144 HD
ATOM     12  H   UNL     1       2.863  -1.468  -3.982  0.00  0.00    +0.144 HD
BRANCH   9  13
ATOM     13  O   UNL     1       3.273   2.307  -5.000  0.00  0.00    -0.408 OA
ATOM     14  H   UNL     1       2.612   2.699  -5.588  0.00  0.00    +0.328 HD
ENDBRANCH   9  13
ENDBRANCH   7   8
ENDBRANCH   1   3
BRANCH   1  15
ATOM     15  S   UNL     1       2.279  -0.064  -0.780  0.00  0.00    +0.060 S 
ATOM     16  O   UNL     1       2.206   1.006   0.153  0.00  0.00    -0.153 OA
ATOM     17  O   UNL     1       1.830  -1.376  -0.471  0.00  0.00    -0.153 OA
BRANCH  15  21
ATOM     18  C   UNL     1      -0.015   1.262  -4.452  0.00  0.00    +0.021 A 
ATOM     19  C   UNL     1       0.774   2.167  -3.767  0.00  0.00    +0.023 A 
ATOM     20  C   UNL     1       1.475   1.762  -2.645  0.00  0.00    +0.067 A 
ATOM     21  C   UNL     1       1.386   0.452  -2.208  0.00  0.00    +0.125 A 
ATOM     22  C   UNL     1       0.598  -0.452  -2.894  0.00  0.00    +0.050 A 
ATOM     23  C   UNL     1      -0.103  -0.047  -4.016  0.00  0.00    +0.043 A 
ATOM     24 CL   UNL     1      -1.095  -1.183  -4.877  0.00  0.00    -0.083 Cl
ATOM     25 CL   UNL     1       2.467   2.898  -1.784  0.00  0.00    -0.082 Cl
ENDBRANCH  15  21
ENDBRANCH   1  15
TORSDOF 5
