REMARK  Name = ZINC11911586
REMARK  9 active torsions:
REMARK  status: ('A' for Active; 'I' for Inactive)
REMARK    1  A    between atoms: C_1  and  C_2
REMARK    2  A    between atoms: C_2  and  C_3
REMARK    3  A    between atoms: C_3  and  C_14
REMARK    4  A    between atoms: N_6  and  C_10
REMARK    5  A    between atoms: C_10  and  C_11
REMARK    6  A    between atoms: C_11  and  C_13
REMARK    7  A    between atoms: C_19  and  C_20
REMARK    8  A    between atoms: C_19  and  N_62
REMARK    9  A    between atoms: C_25  and  C_26
REMARK                            x       y       z     vdW  Elec       q    Type
REMARK                         _______ _______ _______ _____ _____    ______ ____
ROOT
ATOM      1  C   UNL     1      -1.478  -0.360   0.315  0.00  0.00    +0.018 C 
ATOM      2  C   UNL     1      -2.941  -0.037   0.631  0.00  0.00    -0.013 C 
ATOM      3  C   UNL     1      -3.296  -0.600   2.009  0.00  0.00    -0.078 C 
ATOM      4  C   UNL     1      -1.009  -0.345   2.767  0.00  0.00    -0.078 C 
ATOM      5  C   UNL     1      -0.585   0.226   1.412  0.00  0.00    -0.013 C 
ATOM      6  N   UNL     1      -2.418   0.022   3.023  0.00  0.00    +0.382 N 
ATOM      7  H   UNL     1      -2.513   1.043   2.964  0.00  0.00    -0.081 HD
ENDROOT
BRANCH   1   8
ATOM      8  C   UNL     1      -1.099   0.253  -1.034  0.00  0.00    +0.115 C 
ATOM      9  C   UNL     1      -1.145   1.766  -0.965  0.00  0.00    +0.247 C 
ATOM     10  O   UNL     1      -2.112   2.459  -0.728  0.00  0.00    -0.273 OA
ATOM     11  N   UNL     1       0.110   2.182  -1.226  0.00  0.00    -0.220 N 
ATOM     12  C   UNL     1       0.934   1.152  -1.449  0.00  0.00    +0.310 C 
ATOM     13  O   UNL     1       2.116   1.276  -1.706  0.00  0.00    -0.252 OA
ATOM     14  N   UNL     1       0.309  -0.035  -1.357  0.00  0.00    -0.285 N 
ATOM     15  H   UNL     1       0.708  -0.911  -1.480  0.00  0.00    +0.151 HD
BRANCH   8  17
ATOM     16  C   UNL     1      -1.517   0.221  -3.497  0.00  0.00    +0.006 C 
ATOM     17  C   UNL     1      -2.024  -0.264  -2.138  0.00  0.00    +0.032 C 
ENDBRANCH   8  17
BRANCH  11  18
ATOM     18  C   UNL     1       0.520   3.588  -1.263  0.00  0.00    +0.148 C 
BRANCH  18  19
ATOM     19  C   UNL     1       0.967   4.017   0.111  0.00  0.00    -0.062 C 
ATOM     20  C   UNL     1       2.238   3.979   0.427  0.00  0.00    +0.009 C 
ATOM     21  C   UNL     1      -0.047   4.489   1.120  0.00  0.00    +0.040 C 
ENDBRANCH  18  19
ENDBRANCH  11  18
ENDBRANCH   1   8
BRANCH   6  22
ATOM     22  C   UNL     1      -2.818  -0.419   4.375  0.00  0.00    -0.039 C 
BRANCH  22  23
ATOM     23  C   UNL     1      -4.287  -0.147   4.566  0.00  0.00    -0.019 A 
ATOM     24  C   UNL     1      -5.271  -1.073   4.590  0.00  0.00    +0.107 A 
ATOM     25  N   UNL     1      -6.443  -0.430   4.786  0.00  0.00    -0.284 N 
ATOM     26  H   UNL     1      -7.343  -0.860   4.853  0.00  0.00    +0.188 HD
ATOM     27  N   UNL     1      -6.178   0.942   4.878  0.00  0.00    -0.174 NA
ATOM     28  C   UNL     1      -4.880   1.118   4.746  0.00  0.00    +0.094 A 
BRANCH  28  29
ATOM     29  C   UNL     1      -4.167   2.419   4.780  0.00  0.00    +0.002 A 
ATOM     30  C   UNL     1      -2.975   2.545   5.491  0.00  0.00    +0.010 A 
ATOM     31  C   UNL     1      -2.314   3.756   5.515  0.00  0.00    +0.001 A 
ATOM     32  C   UNL     1      -2.838   4.846   4.845  0.00  0.00    +0.000 A 
ATOM     33  C   UNL     1      -4.024   4.729   4.142  0.00  0.00    +0.001 A 
ATOM     34  C   UNL     1      -4.690   3.521   4.107  0.00  0.00    +0.010 A 
ENDBRANCH  28  29
ENDBRANCH  22  23
ENDBRANCH   6  22
TORSDOF 7
