REMARK  Name = ZINC39710442
REMARK  10 active torsions:
REMARK  status: ('A' for Active; 'I' for Inactive)
REMARK    1  A    between atoms: C_1  and  C_2
REMARK    2  A    between atoms: C_2  and  C_3
REMARK    3  A    between atoms: C_10  and  C_15
REMARK    4  A    between atoms: C_15  and  C_17
REMARK    5  A    between atoms: C_15  and  N_27
REMARK    6  A    between atoms: N_22  and  C_23
REMARK    7  A    between atoms: C_23  and  C_24
REMARK    8  A    between atoms: C_23  and  C_25
REMARK    9  A    between atoms: C_23  and  C_26
REMARK   10  A    between atoms: N_30  and  C_33
REMARK                            x       y       z     vdW  Elec       q    Type
REMARK                         _______ _______ _______ _____ _____    ______ ____
ROOT
ATOM      1  C   UNL     1       5.427  -3.051  -3.440  0.00  0.00    -0.009 C 
ENDROOT
BRANCH   1   9
ATOM      2  C   UNL     1       6.250   2.713  -3.058  0.00  0.00    -0.047 A 
ATOM      3  C   UNL     1       5.546   2.783  -1.856  0.00  0.00    +0.005 A 
ATOM      4  C   UNL     1       4.793   1.754  -1.387  0.00  0.00    +0.024 A 
ATOM      5  C   UNL     1       4.693   0.553  -2.114  0.00  0.00    +0.040 A 
ATOM      6  N   UNL     1       3.951  -0.450  -1.644  0.00  0.00    -0.285 N 
ATOM      7  C   UNL     1       3.815  -1.604  -2.275  0.00  0.00    +0.223 C 
ATOM      8  O   UNL     1       3.123  -2.484  -1.797  0.00  0.00    -0.275 OA
ATOM      9  C   UNL     1       4.522  -1.827  -3.593  0.00  0.00    +0.088 C 
ATOM     10  C   UNL     1       5.367  -0.689  -4.131  0.00  0.00    -0.006 C 
ATOM     11  C   UNL     1       5.427   0.451  -3.387  0.00  0.00    -0.007 A 
ATOM     12  C   UNL     1       6.215   1.600  -3.835  0.00  0.00    +0.013 A 
ATOM     13  H   UNL     1       3.489  -0.328  -0.800  0.00  0.00    +0.155 HD
BRANCH   2  15
ATOM     14  C   UNL     1       6.188   4.825  -4.356  0.00  0.00    +0.009 C 
ATOM     15  C   UNL     1       7.063   3.901  -3.507  0.00  0.00    +0.032 C 
ENDBRANCH   2  15
ENDBRANCH   1   9
BRANCH   1  16
ATOM     16  N   UNL     1       6.117  -3.312  -4.710  0.00  0.00    +0.387 N 
ATOM     17  C   UNL     1       5.135  -3.355  -5.800  0.00  0.00    -0.059 C 
ATOM     18  C   UNL     1       5.864  -3.512  -7.138  0.00  0.00    +0.086 C 
ATOM     19  N   UNL     1       6.734  -4.695  -7.058  0.00  0.00    -0.333 N 
ATOM     20  C   UNL     1       7.640  -4.813  -5.905  0.00  0.00    +0.086 C 
ATOM     21  C   UNL     1       6.827  -4.595  -4.625  0.00  0.00    -0.059 C 
ATOM     22  H   UNL     1       6.781  -2.573  -4.888  0.00  0.00    -0.081 HD
BRANCH  19  23
ATOM     23  C   UNL     1       6.703  -5.678  -8.050  0.00  0.00    +0.030 A 
ATOM     24  C   UNL     1       5.923  -5.497  -9.185  0.00  0.00    +0.023 A 
ATOM     25  C   UNL     1       5.894  -6.471 -10.164  0.00  0.00    +0.002 A 
ATOM     26  C   UNL     1       6.640  -7.625 -10.015  0.00  0.00    +0.000 A 
ATOM     27  C   UNL     1       7.418  -7.809  -8.886  0.00  0.00    +0.002 A 
ATOM     28  C   UNL     1       7.456  -6.837  -7.906  0.00  0.00    +0.023 A 
ENDBRANCH  19  23
ENDBRANCH   1  16
BRANCH   1  29
ATOM     29  C   UNL     1       6.459  -2.787  -2.342  0.00  0.00    +0.205 C 
ATOM     30  N   UNL     1       7.464  -1.820  -2.805  0.00  0.00    -0.152 NA
ATOM     31  N   UNL     1       8.572  -2.359  -2.791  0.00  0.00    -0.070 NA
ATOM     32  N   UNL     1       8.527  -3.682  -2.353  0.00  0.00    -0.179 N 
ATOM     33  N   UNL     1       7.229  -4.015  -2.052  0.00  0.00    -0.183 NA
ATOM     34  H   UNL     1       9.292  -4.274  -2.272  0.00  0.00    +0.191 HD
BRANCH  33  35
ATOM     35  C   UNL     1       7.096  -4.400  -0.641  0.00  0.00    +0.035 C 
ATOM     36  C   UNL     1       5.622  -4.656  -0.320  0.00  0.00    +0.029 C 
ATOM     37  C   UNL     1       7.902  -5.674  -0.381  0.00  0.00    +0.029 C 
ATOM     38  C   UNL     1       7.623  -3.272   0.247  0.00  0.00    +0.029 C 
ENDBRANCH  33  35
ENDBRANCH   1  29
TORSDOF 6
