REMARK  Name = ZINC38634125
REMARK  7 active torsions:
REMARK  status: ('A' for Active; 'I' for Inactive)
REMARK    1  A    between atoms: C_4  and  C_7
REMARK    2  A    between atoms: C_7  and  C_9
REMARK    3  A    between atoms: C_12  and  O_33
REMARK    4  A    between atoms: C_13  and  O_32
REMARK    5  A    between atoms: C_14  and  O_15
REMARK    6  A    between atoms: O_15  and  S_16
REMARK    7  A    between atoms: S_16  and  C_19
REMARK                            x       y       z     vdW  Elec       q    Type
REMARK                         _______ _______ _______ _____ _____    ______ ____
ROOT
ATOM      1  C   UNL     1       3.990  -2.257  -0.642  0.00  0.00    +0.071 A 
ATOM      2  C   UNL     1       2.843  -2.975  -1.000  0.00  0.00    +0.019 A 
ATOM      3  C   UNL     1       2.901  -4.343  -1.132  0.00  0.00    +0.050 A 
ATOM      4  C   UNL     1       4.096  -5.020  -0.911  0.00  0.00    +0.162 A 
ATOM      5  C   UNL     1       5.243  -4.319  -0.555  0.00  0.00    +0.204 A 
ATOM      6  C   UNL     1       5.198  -2.938  -0.424  0.00  0.00    +0.212 A 
ENDROOT
BRANCH   1   7
ATOM      7  C   UNL     1       3.931  -0.793  -0.501  0.00  0.00    +0.197 C 
ATOM      8  O   UNL     1       3.383  -0.297   0.465  0.00  0.00    -0.287 OA
BRANCH   7  12
ATOM      9  C   UNL     1       5.678   1.699  -3.464  0.00  0.00    +0.000 A 
ATOM     10  C   UNL     1       4.967   2.265  -2.420  0.00  0.00    +0.001 A 
ATOM     11  C   UNL     1       4.398   1.461  -1.454  0.00  0.00    +0.012 A 
ATOM     12  C   UNL     1       4.539   0.074  -1.532  0.00  0.00    +0.022 A 
ATOM     13  C   UNL     1       5.256  -0.490  -2.589  0.00  0.00    +0.012 A 
ATOM     14  C   UNL     1       5.821   0.325  -3.548  0.00  0.00    +0.001 A 
ENDBRANCH   7  12
ENDBRANCH   1   7
BRANCH   5  15
ATOM     15  O   UNL     1       6.410  -4.986  -0.340  0.00  0.00    -0.501 OA
ATOM     16  H   UNL     1       6.956  -5.088  -1.131  0.00  0.00    +0.292 HD
ENDBRANCH   5  15
BRANCH   4  17
ATOM     17  O   UNL     1       4.143  -6.370  -1.043  0.00  0.00    -0.503 OA
ATOM     18  H   UNL     1       4.366  -6.671  -1.935  0.00  0.00    +0.292 HD
ENDBRANCH   4  17
BRANCH   6  19
ATOM     19  O   UNL     1       6.317  -2.249  -0.083  0.00  0.00    -0.338 OA
BRANCH  19  20
ATOM     20  S   UNL     1       6.504  -2.078   1.418  0.00  0.00    +0.152 S 
ATOM     21  O   UNL     1       7.586  -1.172   1.592  0.00  0.00    -0.131 OA
ATOM     22  O   UNL     1       5.214  -1.837   1.963  0.00  0.00    -0.131 OA
BRANCH  20  23
ATOM     23  C   UNL     1       7.039  -3.630   2.057  0.00  0.00    +0.136 A 
ATOM     24  C   UNL     1       6.132  -4.490   2.640  0.00  0.00    +0.031 A 
ATOM     25  C   UNL     1       6.540  -5.714   3.145  0.00  0.00    +0.003 A 
ATOM     26  C   UNL     1       7.869  -6.099   3.076  0.00  0.00    +0.012 A 
ATOM     27  C   UNL     1       8.803  -5.250   2.493  0.00  0.00    +0.034 A 
ATOM     28  C   UNL     1       8.391  -4.001   1.970  0.00  0.00    +0.014 A 
ATOM     29  C   UNL     1       9.341  -3.148   1.376  0.00  0.00    +0.014 C 
ATOM     30  C   UNL     1      10.674  -3.517   1.292  0.00  0.00    +0.048 C 
ATOM     31  C   UNL     1      11.125  -4.721   1.779  0.00  0.00    +0.190 C 
ATOM     32  N   UNL     1      12.336  -5.016   1.683  0.00  0.00    -0.275 NA
ATOM     33  N   UNL     1      13.401  -5.276   1.599  0.00  0.00    +0.044 NA
ATOM     34  C   UNL     1      10.224  -5.624   2.401  0.00  0.00    +0.226 C 
ATOM     35  O   UNL     1      10.616  -6.694   2.837  0.00  0.00    -0.284 OA
ENDBRANCH  20  23
ENDBRANCH  19  20
ENDBRANCH   6  19
TORSDOF 7
