REMARK  Name = ZINC26200385
REMARK  13 active torsions:
REMARK  status: ('A' for Active; 'I' for Inactive)
REMARK    1  A    between atoms: C_1  and  C_2
REMARK    2  A    between atoms: C_2  and  C_3
REMARK    3  A    between atoms: C_10  and  C_12
REMARK    4  A    between atoms: C_12  and  C_14
REMARK    5  A    between atoms: C_12  and  S_15
REMARK    6  A    between atoms: S_15  and  C_16
REMARK    7  A    between atoms: C_19  and  C_22
REMARK    8  A    between atoms: N_20  and  N_21
REMARK    9  A    between atoms: C_22  and  O_23
REMARK   10  A    between atoms: O_23  and  C_24
REMARK   11  A    between atoms: C_27  and  C_30
REMARK   12  A    between atoms: C_30  and  C_31
REMARK   13  A    between atoms: C_30  and  C_32
REMARK                            x       y       z     vdW  Elec       q    Type
REMARK                         _______ _______ _______ _____ _____    ______ ____
ROOT
ATOM      1  C   UNL     1      -2.190   1.778   2.843  0.00  0.00    +0.209 A 
ATOM      2  N   UNL     1      -1.415   2.834   2.756  0.00  0.00    -0.121 NA
ATOM      3  N   UNL     1      -0.663   2.740   1.718  0.00  0.00    -0.128 NA
ATOM      4  C   UNL     1      -0.918   1.633   1.080  0.00  0.00    +0.189 A 
ATOM      5  N   UNL     1      -1.897   0.978   1.775  0.00  0.00    -0.225 N 
ENDROOT
BRANCH   5   6
ATOM      6  N   UNL     1      -2.465  -0.225   1.466  0.00  0.00    -0.295 N 
ATOM      7  H   UNL     1      -2.137  -0.774   0.571  0.00  0.00    +0.163 HD
ATOM      8  H   UNL     1      -3.249  -0.646   2.112  0.00  0.00    +0.163 HD
ENDBRANCH   5   6
BRANCH   1   9
ATOM      9  S   UNL     1      -3.384   1.454   4.098  0.00  0.00    -0.072 S 
BRANCH   9  10
ATOM     10  C   UNL     1      -3.179   2.937   5.116  0.00  0.00    +0.137 C 
ATOM     11  C   UNL     1      -1.778   2.944   5.731  0.00  0.00    +0.029 C 
BRANCH  10  18
ATOM     12  C   UNL     1      -5.692   4.132   7.755  0.00  0.00    +0.076 C 
ATOM     13  C   UNL     1      -6.742   5.148   7.295  0.00  0.00    +0.022 C 
ATOM     14  C   UNL     1      -6.068   6.502   7.062  0.00  0.00    +0.003 C 
ATOM     15  C   UNL     1      -5.013   6.366   5.962  0.00  0.00    +0.019 C 
ATOM     16  C   UNL     1      -3.940   5.363   6.411  0.00  0.00    +0.108 C 
ATOM     17  N   UNL     1      -4.601   4.101   6.771  0.00  0.00    -0.298 N 
ATOM     18  C   UNL     1      -4.210   2.938   6.215  0.00  0.00    +0.229 C 
ATOM     19  O   UNL     1      -4.689   1.891   6.599  0.00  0.00    -0.274 OA
BRANCH  12  21
ATOM     20  C   UNL     1      -7.487   2.787   8.856  0.00  0.00    +0.006 C 
ATOM     21  C   UNL     1      -6.328   2.744   7.858  0.00  0.00    +0.019 C 
ENDBRANCH  12  21
ENDBRANCH  10  18
ENDBRANCH   9  10
ENDBRANCH   1   9
BRANCH   4  22
ATOM     22  C   UNL     1      -0.253   1.158  -0.186  0.00  0.00    +0.306 C 
BRANCH  22  23
ATOM     23  O   UNL     1      -0.983   1.639  -1.317  0.00  0.00    -0.484 OA
BRANCH  23  24
ATOM     24  C   UNL     1      -0.512   1.298  -2.545  0.00  0.00    +0.121 A 
ATOM     25  C   UNL     1       0.632   0.521  -2.660  0.00  0.00    +0.046 A 
ATOM     26  C   UNL     1       1.104   0.171  -3.910  0.00  0.00    +0.007 A 
ATOM     27  C   UNL     1       0.446   0.604  -5.046  0.00  0.00    -0.045 A 
ATOM     28  C   UNL     1      -0.691   1.383  -4.934  0.00  0.00    +0.007 A 
ATOM     29  C   UNL     1      -1.172   1.731  -3.687  0.00  0.00    +0.046 A 
BRANCH  27  30
ATOM     30  C   UNL     1       0.967   0.226  -6.409  0.00  0.00    +0.013 C 
ATOM     31  C   UNL     1       2.389   0.765  -6.578  0.00  0.00    +0.012 C 
ATOM     32  C   UNL     1       0.980  -1.298  -6.545  0.00  0.00    +0.012 C 
ENDBRANCH  27  30
ENDBRANCH  23  24
ENDBRANCH  22  23
ENDBRANCH   4  22
TORSDOF 9
