REMARK  Name = ZINC08922393
REMARK  9 active torsions:
REMARK  status: ('A' for Active; 'I' for Inactive)
REMARK    1  A    between atoms: C_1  and  C_2
REMARK    2  A    between atoms: C_2  and  C_3
REMARK    3  A    between atoms: C_3  and  C_4
REMARK    4  A    between atoms: C_4  and  C_30
REMARK    5  A    between atoms: N_7  and  C_11
REMARK    6  A    between atoms: C_11  and  C_12
REMARK    7  A    between atoms: C_17  and  C_20
REMARK    8  A    between atoms: C_30  and  C_31
REMARK    9  A    between atoms: C_31  and  C_32
REMARK                            x       y       z     vdW  Elec       q    Type
REMARK                         _______ _______ _______ _____ _____    ______ ____
ROOT
ATOM      1  C   UNL     1       1.888   3.731   1.444  0.00  0.00    +0.237 C 
ATOM      2  O   UNL     1       1.590   2.987   2.354  0.00  0.00    -0.274 OA
ATOM      3  N   UNL     1       2.169   5.025   1.695  0.00  0.00    -0.263 N 
ATOM      4  C   UNL     1       2.118   5.507   2.997  0.00  0.00    +0.165 A 
ATOM      5  N   UNL     1       2.360   6.723   3.447  0.00  0.00    -0.225 NA
ATOM      6  C   UNL     1       2.257   7.013   4.737  0.00  0.00    +0.081 A 
ATOM      7  C   UNL     1       1.905   6.028   5.619  0.00  0.00    +0.076 A 
ATOM      8  S   UNL     1       1.713   4.641   4.508  0.00  0.00    -0.060 S 
ATOM      9  H   UNL     1       2.408   5.620   0.967  0.00  0.00    +0.157 HD
ENDROOT
BRANCH   6  10
ATOM     10  C   UNL     1       2.527   8.387   5.218  0.00  0.00    +0.009 A 
ATOM     11  C   UNL     1       3.357   8.597   6.306  0.00  0.00    +0.010 A 
ATOM     12  C   UNL     1       3.620   9.884   6.760  0.00  0.00    +0.001 A 
ATOM     13  C   UNL     1       3.062  10.971   6.158  0.00  0.00    +0.008 A 
ATOM     14  C   UNL     1       2.209  10.804   5.053  0.00  0.00    -0.017 A 
ATOM     15  C   UNL     1       1.935   9.500   4.574  0.00  0.00    -0.009 A 
ATOM     16  C   UNL     1       1.085   9.335   3.471  0.00  0.00    +0.009 A 
ATOM     17  C   UNL     1       0.533  10.428   2.876  0.00  0.00    +0.001 A 
ATOM     18  C   UNL     1       0.800  11.712   3.346  0.00  0.00    +0.001 A 
ATOM     19  C   UNL     1       1.621  11.910   4.414  0.00  0.00    +0.008 A 
ENDBRANCH   6  10
BRANCH   1  20
ATOM     20  C   UNL     1       1.945   3.209   0.031  0.00  0.00    +0.214 C 
BRANCH  20  24
ATOM     21  C   UNL     1       1.697  -0.497   0.089  0.00  0.00    +0.113 C 
ATOM     22  C   UNL     1       2.498   0.788   0.158  0.00  0.00    +0.247 C 
ATOM     23  O   UNL     1       3.697   0.897   0.303  0.00  0.00    -0.273 OA
ATOM     24  N   UNL     1       1.601   1.785   0.023  0.00  0.00    -0.215 N 
ATOM     25  C   UNL     1       0.357   1.313  -0.120  0.00  0.00    +0.310 C 
ATOM     26  O   UNL     1      -0.622   2.020  -0.262  0.00  0.00    -0.252 OA
ATOM     27  N   UNL     1       0.311  -0.031  -0.094  0.00  0.00    -0.285 N 
ATOM     28  H   UNL     1      -0.480  -0.586  -0.178  0.00  0.00    +0.151 HD
BRANCH  21  29
ATOM     29  C   UNL     1       1.832  -1.286   1.392  0.00  0.00    +0.035 C 
BRANCH  29  31
ATOM     30  C   UNL     1       1.452  -1.228   3.861  0.00  0.00    +0.004 C 
ATOM     31  C   UNL     1       1.317  -0.439   2.557  0.00  0.00    -0.001 C 
ENDBRANCH  29  31
ENDBRANCH  21  29
BRANCH  21  32
ATOM     32  C   UNL     1       2.141  -1.345  -1.105  0.00  0.00    +0.035 C 
BRANCH  32  33
ATOM     33  C   UNL     1       2.047  -0.513  -2.385  0.00  0.00    -0.001 C 
ATOM     34  C   UNL     1       2.491  -1.361  -3.578  0.00  0.00    +0.004 C 
ENDBRANCH  32  33
ENDBRANCH  21  32
ENDBRANCH  20  24
ENDBRANCH   1  20
TORSDOF 7
