REMARK  Name = ZINC09690903
REMARK  9 active torsions:
REMARK  status: ('A' for Active; 'I' for Inactive)
REMARK    1  A    between atoms: C_1  and  O_2
REMARK    2  A    between atoms: O_2  and  C_3
REMARK    3  A    between atoms: C_6  and  C_9
REMARK    4  A    between atoms: C_9  and  C_11
REMARK    5  A    between atoms: C_9  and  N_66
REMARK    6  A    between atoms: C_11  and  N_12
REMARK    7  A    between atoms: C_13  and  C_15
REMARK    8  A    between atoms: N_20  and  S_22
REMARK    9  A    between atoms: S_22  and  C_25
REMARK                            x       y       z     vdW  Elec       q    Type
REMARK                         _______ _______ _______ _____ _____    ______ ____
ROOT
ATOM      1  N   UNL     1       3.430   0.344   7.722  0.00  0.00    -0.316 N 
ATOM      2  C   UNL     1       4.603   0.850   8.150  0.00  0.00    +0.217 C 
ATOM      3  O   UNL     1       5.147   1.734   7.523  0.00  0.00    -0.275 OA
ATOM      4  H   UNL     1       2.995  -0.364   8.224  0.00  0.00    +0.149 HD
ENDROOT
BRANCH   2   5
ATOM      5  C   UNL     1       5.239   0.318   9.409  0.00  0.00    +0.091 C 
ATOM      6  C   UNL     1       5.520  -1.178   9.246  0.00  0.00    +0.015 C 
ATOM      7  C   UNL     1       6.135  -1.727  10.535  0.00  0.00    +0.018 C 
ATOM      8  C   UNL     1       7.463  -1.012  10.806  0.00  0.00    +0.109 C 
ATOM      9  N   UNL     1       7.226   0.438  10.820  0.00  0.00    -0.175 NA
ATOM     10  C   UNL     1       6.556   1.055   9.667  0.00  0.00    +0.122 C 
BRANCH   9  11
ATOM     11  S   UNL     1       7.704   1.359  12.111  0.00  0.00    +0.067 S 
ATOM     12  O   UNL     1       6.885   2.520  12.107  0.00  0.00    -0.152 OA
ATOM     13  O   UNL     1       7.779   0.484  13.228  0.00  0.00    -0.152 OA
BRANCH  11  14
ATOM     14  C   UNL     1       9.348   1.900  11.784  0.00  0.00    +0.143 A 
ATOM     15  C   UNL     1       9.767   3.021  11.146  0.00  0.00    +0.036 A 
ATOM     16  C   UNL     1      11.124   3.245  11.007  0.00  0.00    +0.010 A 
ATOM     17  C   UNL     1      11.995   2.332  11.502  0.00  0.00    +0.047 A 
ATOM     18  S   UNL     1      10.895   1.111  12.200  0.00  0.00    -0.077 S 
ENDBRANCH  11  14
ENDBRANCH   9  11
ENDBRANCH   2   5
BRANCH   1  19
ATOM     19  C   UNL     1       2.812   0.861   6.499  0.00  0.00    +0.093 C 
BRANCH  19  20
ATOM     20  C   UNL     1       1.589   0.011   6.146  0.00  0.00    -0.020 C 
BRANCH  20  26
ATOM     21  C   UNL     1       1.864  -2.203   7.086  0.00  0.00    -0.078 C 
ATOM     22  C   UNL     1       2.174  -3.661   6.740  0.00  0.00    -0.019 C 
ATOM     23  C   UNL     1       3.605  -3.760   6.202  0.00  0.00    -0.004 C 
ATOM     24  C   UNL     1       3.747  -2.847   4.981  0.00  0.00    -0.019 C 
ATOM     25  C   UNL     1       3.391  -1.413   5.378  0.00  0.00    -0.078 C 
ATOM     26  N   UNL     1       1.995  -1.381   5.864  0.00  0.00    +0.385 N 
ATOM     27  H   UNL     1       1.381  -1.766   5.136  0.00  0.00    -0.081 HD
ENDBRANCH  20  26
BRANCH  20  31
ATOM     28  C   UNL     1      -0.297   1.606   2.659  0.00  0.00    +0.120 A 
ATOM     29  C   UNL     1       0.874   0.870   2.541  0.00  0.00    +0.046 A 
ATOM     30  C   UNL     1       1.484   0.360   3.670  0.00  0.00    +0.005 A 
ATOM     31  C   UNL     1       0.924   0.573   4.916  0.00  0.00    -0.059 A 
ATOM     32  C   UNL     1      -0.245   1.301   5.036  0.00  0.00    +0.005 A 
ATOM     33  C   UNL     1      -0.857   1.818   3.910  0.00  0.00    +0.046 A 
BRANCH  28  35
ATOM     34  C   UNL     1      -0.264   1.855   0.295  0.00  0.00    +0.277 C 
ATOM     35  O   UNL     1      -0.896   2.113   1.550  0.00  0.00    -0.495 OA
ENDBRANCH  28  35
ENDBRANCH  20  31
ENDBRANCH  19  20
ENDBRANCH   1  19
TORSDOF 8
