REMARK  Name = ZINC09427920
REMARK  13 active torsions:
REMARK  status: ('A' for Active; 'I' for Inactive)
REMARK    1  A    between atoms: C_1  and  C_2
REMARK    2  A    between atoms: C_2  and  C_3
REMARK    3  A    between atoms: C_3  and  C_4
REMARK    4  A    between atoms: C_4  and  C_5
REMARK    5  A    between atoms: C_5  and  C_6
REMARK    6  A    between atoms: C_6  and  O_7
REMARK    7  A    between atoms: O_7  and  C_8
REMARK    8  A    between atoms: C_11  and  N_14
REMARK    9  A    between atoms: C_19  and  C_33
REMARK   10  A    between atoms: N_21  and  C_27
REMARK   11  A    between atoms: C_36  and  O_41
REMARK   12  A    between atoms: C_37  and  O_39
REMARK   13  A    between atoms: O_39  and  C_40
REMARK                            x       y       z     vdW  Elec       q    Type
REMARK                         _______ _______ _______ _____ _____    ______ ____
ROOT
ATOM      1  N   UNL     1       2.658 -10.032   4.215  0.00  0.00    -0.208 N 
ATOM      2  C   UNL     1       3.284 -10.634   5.279  0.00  0.00    +0.235 C 
ATOM      3  O   UNL     1       3.627 -10.120   6.321  0.00  0.00    -0.274 OA
ATOM      4  C   UNL     1       3.443 -12.012   4.883  0.00  0.00    +0.145 C 
ATOM      5  C   UNL     1       3.646 -13.340   5.484  0.00  0.00    +0.157 C 
ATOM      6  N   UNL     1       3.125 -14.255   4.418  0.00  0.00    -0.244 N 
ATOM      7  O   UNL     1       2.602 -13.430   3.352  0.00  0.00    -0.257 OA
ATOM      8  C   UNL     1       2.129 -12.257   4.038  0.00  0.00    +0.249 C 
ATOM      9  C   UNL     1       2.152 -10.933   3.323  0.00  0.00    +0.259 C 
ATOM     10  O   UNL     1       1.796 -10.713   2.186  0.00  0.00    -0.272 OA
ENDROOT
BRANCH   1  14
ATOM     11  C   UNL     1       2.324  -5.898   3.768  0.00  0.00    +0.121 A 
ATOM     12  C   UNL     1       1.781  -6.745   2.813  0.00  0.00    +0.047 A 
ATOM     13  C   UNL     1       1.891  -8.114   2.960  0.00  0.00    +0.027 A 
ATOM     14  C   UNL     1       2.546  -8.642   4.065  0.00  0.00    +0.044 A 
ATOM     15  C   UNL     1       3.089  -7.794   5.020  0.00  0.00    +0.027 A 
ATOM     16  C   UNL     1       2.982  -6.425   4.869  0.00  0.00    +0.047 A 
BRANCH  11  17
ATOM     17  O   UNL     1       2.215  -4.551   3.622  0.00  0.00    -0.492 OA
BRANCH  17  18
ATOM     18  C   UNL     1       1.524  -4.077   2.464  0.00  0.00    +0.229 C 
BRANCH  18  19
ATOM     19  C   UNL     1       1.503  -2.548   2.473  0.00  0.00    +0.041 C 
BRANCH  19  20
ATOM     20  C   UNL     1       0.763  -2.041   1.233  0.00  0.00    +0.003 C 
BRANCH  20  21
ATOM     21  C   UNL     1       0.742  -0.511   1.242  0.00  0.00    -0.000 C 
BRANCH  21  23
ATOM     22  C   UNL     1      -0.019   1.526   0.010  0.00  0.00    +0.004 C 
ATOM     23  C   UNL     1       0.002  -0.004   0.002  0.00  0.00    -0.003 C 
ENDBRANCH  21  23
ENDBRANCH  20  21
ENDBRANCH  19  20
ENDBRANCH  18  19
ENDBRANCH  17  18
ENDBRANCH  11  17
ENDBRANCH   1  14
BRANCH   6  24
ATOM     24  C   UNL     1       3.143 -15.652   4.447  0.00  0.00    +0.065 A 
ATOM     25  C   UNL     1       3.676 -16.318   5.544  0.00  0.00    +0.028 A 
ATOM     26  C   UNL     1       3.691 -17.698   5.570  0.00  0.00    +0.002 A 
ATOM     27  C   UNL     1       3.178 -18.418   4.507  0.00  0.00    +0.000 A 
ATOM     28  C   UNL     1       2.647 -17.758   3.414  0.00  0.00    +0.002 A 
ATOM     29  C   UNL     1       2.623 -16.377   3.383  0.00  0.00    +0.028 A 
ENDBRANCH   6  24
BRANCH   5  30
ATOM     30  C   UNL     1       2.848 -13.482   6.755  0.00  0.00    -0.018 A 
ATOM     31  C   UNL     1       1.499 -13.778   6.692  0.00  0.00    +0.009 A 
ATOM     32  C   UNL     1       0.762 -13.909   7.855  0.00  0.00    +0.049 A 
ATOM     33  C   UNL     1       1.376 -13.743   9.086  0.00  0.00    +0.158 A 
ATOM     34  C   UNL     1       2.734 -13.445   9.149  0.00  0.00    +0.162 A 
ATOM     35  C   UNL     1       3.467 -13.320   7.980  0.00  0.00    +0.055 A 
BRANCH  34  36
ATOM     36  O   UNL     1       3.340 -13.282  10.355  0.00  0.00    -0.491 OA
ATOM     37  C   UNL     1       4.737 -12.977  10.343  0.00  0.00    +0.277 C 
ENDBRANCH  34  36
BRANCH  33  38
ATOM     38  O   UNL     1       0.652 -13.871  10.230  0.00  0.00    -0.503 OA
ATOM     39  H   UNL     1       0.631 -14.771  10.584  0.00  0.00    +0.292 HD
ENDBRANCH  33  38
ENDBRANCH   5  30
TORSDOF 11
