REMARK  Name = ZINC16474732
REMARK  8 active torsions:
REMARK  status: ('A' for Active; 'I' for Inactive)
REMARK    1  A    between atoms: C_1  and  N_2
REMARK    2  A    between atoms: C_6  and  C_7
REMARK    3  A    between atoms: C_7  and  C_9
REMARK    4  A    between atoms: C_7  and  N_17
REMARK    5  A    between atoms: C_12  and  O_15
REMARK    6  A    between atoms: O_15  and  C_16
REMARK    7  A    between atoms: C_18  and  C_20
REMARK    8  A    between atoms: C_21  and  C_22
REMARK                            x       y       z     vdW  Elec       q    Type
REMARK                         _______ _______ _______ _____ _____    ______ ____
ROOT
ATOM      1  N   UNL     1      -3.471   1.630   0.915  0.00  0.00    -0.298 N 
ATOM      2  C   UNL     1      -4.466   0.913   1.475  0.00  0.00    +0.238 C 
ATOM      3  O   UNL     1      -4.569  -0.276   1.236  0.00  0.00    -0.271 OA
ATOM      4  H   UNL     1      -3.389   2.577   1.105  0.00  0.00    +0.150 HD
ENDROOT
BRANCH   2   5
ATOM      5  C   UNL     1      -5.422   1.565   2.369  0.00  0.00    +0.068 C 
ATOM      6  C   UNL     1      -6.419   0.848   2.930  0.00  0.00    +0.013 C 
BRANCH   6   7
ATOM      7  C   UNL     1      -7.380   1.502   3.829  0.00  0.00    -0.021 A 
ATOM      8  C   UNL     1      -7.263   2.870   4.105  0.00  0.00    +0.012 A 
ATOM      9  C   UNL     1      -8.165   3.483   4.947  0.00  0.00    +0.050 A 
ATOM     10  C   UNL     1      -9.189   2.744   5.524  0.00  0.00    +0.162 A 
ATOM     11  C   UNL     1      -9.310   1.385   5.255  0.00  0.00    +0.162 A 
ATOM     12  C   UNL     1      -8.418   0.761   4.407  0.00  0.00    +0.057 A 
ATOM     13  O   UNL     1     -10.322   0.672   5.831  0.00  0.00    -0.488 OA
ATOM     14  C   UNL     1     -11.642   0.986   5.382  0.00  0.00    +0.232 C 
ATOM     15  C   UNL     1     -12.200   2.179   6.141  0.00  0.00    +0.082 C 
ATOM     16  C   UNL     1     -11.420   3.455   5.869  0.00  0.00    +0.232 C 
ATOM     17  O   UNL     1     -10.082   3.346   6.358  0.00  0.00    -0.488 OA
ENDBRANCH   6   7
ENDBRANCH   2   5
BRANCH   1  18
ATOM     18  C   UNL     1      -2.513   0.977   0.019  0.00  0.00    +0.170 C 
BRANCH  18  24
ATOM     19  C   UNL     1      -2.490  -1.445  -1.913  0.00  0.00    +0.150 C 
ATOM     20  N   UNL     1      -3.058  -0.127  -2.206  0.00  0.00    -0.336 N 
ATOM     21  C   UNL     1      -3.669   0.253  -3.371  0.00  0.00    +0.106 A 
ATOM     22  C   UNL     1      -4.040   1.538  -3.214  0.00  0.00    +0.130 A 
ATOM     23  N   UNL     1      -3.670   1.930  -1.986  0.00  0.00    -0.238 NA
ATOM     24  C   UNL     1      -3.077   0.939  -1.378  0.00  0.00    +0.134 A 
ENDBRANCH  18  24
BRANCH  18  25
ATOM     25  C   UNL     1      -1.220   1.750   0.017  0.00  0.00    -0.020 A 
ATOM     26  C   UNL     1      -0.013   1.076   0.008  0.00  0.00    +0.009 A 
ATOM     27  C   UNL     1       1.175   1.782   0.000  0.00  0.00    +0.046 A 
ATOM     28  C   UNL     1       1.155   3.169   0.008  0.00  0.00    +0.120 A 
ATOM     29  C   UNL     1      -0.057   3.844   0.023  0.00  0.00    +0.046 A 
ATOM     30  C   UNL     1      -1.242   3.133   0.031  0.00  0.00    +0.009 A 
BRANCH  28  31
ATOM     31  O   UNL     1       2.322   3.866   0.000  0.00  0.00    -0.495 OA
ATOM     32  C   UNL     1       2.225   5.292   0.009  0.00  0.00    +0.277 C 
ENDBRANCH  28  31
ENDBRANCH  18  25
ENDBRANCH   1  18
TORSDOF 6
