REMARK  Name = ZINC04615590
REMARK  9 active torsions:
REMARK  status: ('A' for Active; 'I' for Inactive)
REMARK    1  A    between atoms: C_1  and  C_2
REMARK    2  A    between atoms: C_2  and  C_3
REMARK    3  A    between atoms: C_3  and  C_4
REMARK    4  A    between atoms: C_4  and  N_5
REMARK    5  A    between atoms: C_9  and  C_23
REMARK    6  A    between atoms: N_13  and  C_14
REMARK    7  A    between atoms: C_17  and  O_21
REMARK    8  A    between atoms: N_25  and  C_26
REMARK    9  A    between atoms: C_26  and  C_27
REMARK                            x       y       z     vdW  Elec       q    Type
REMARK                         _______ _______ _______ _____ _____    ______ ____
ROOT
ATOM      1  N   UNL     1      -1.764   1.968   6.479  0.00  0.00    -0.251 N 
ATOM      2  C   UNL     1      -0.551   2.323   6.074  0.00  0.00    +0.223 C 
ATOM      3  O   UNL     1       0.102   2.990   6.848  0.00  0.00    -0.275 OA
ATOM      4  C   UNL     1       0.098   1.992   4.771  0.00  0.00    +0.120 C 
ATOM      5  C   UNL     1      -0.927   1.718   3.671  0.00  0.00    +0.148 C 
ATOM      6  S   UNL     1      -2.077   0.441   4.260  0.00  0.00    -0.077 S 
ATOM      7  C   UNL     1      -2.673   1.284   5.696  0.00  0.00    +0.164 C 
ATOM      8  N   UNL     1      -3.946   1.260   6.009  0.00  0.00    -0.226 NA
ENDROOT
BRANCH   8   9
ATOM      9  C   UNL     1      -4.834   0.576   5.220  0.00  0.00    +0.069 A 
ATOM     10  C   UNL     1      -4.780   0.707   3.831  0.00  0.00    +0.051 A 
ATOM     11  C   UNL     1      -5.673   0.013   3.039  0.00  0.00    +0.086 A 
ATOM     12  C   UNL     1      -6.630  -0.807   3.622  0.00  0.00    +0.153 A 
ATOM     13  C   UNL     1      -6.689  -0.936   5.003  0.00  0.00    +0.086 A 
ATOM     14  C   UNL     1      -5.797  -0.250   5.802  0.00  0.00    +0.051 A 
ATOM     15 CL   UNL     1      -7.888  -1.964   5.727  0.00  0.00    -0.080 Cl
ATOM     16 CL   UNL     1      -5.603   0.170   1.312  0.00  0.00    -0.080 Cl
BRANCH  12  17
ATOM     17  O   UNL     1      -7.510  -1.486   2.839  0.00  0.00    -0.504 OA
ATOM     18  H   UNL     1      -8.325  -1.001   2.651  0.00  0.00    +0.292 HD
ENDBRANCH  12  17
ENDBRANCH   8   9
BRANCH   5  19
ATOM     19  C   UNL     1      -0.222   1.232   2.431  0.00  0.00    +0.227 C 
ATOM     20  O   UNL     1       0.774   0.548   2.529  0.00  0.00    -0.275 OA
ATOM     21  N   UNL     1      -0.698   1.558   1.213  0.00  0.00    -0.315 N 
ATOM     22  H   UNL     1      -1.495   2.106   1.135  0.00  0.00    +0.149 HD
BRANCH  21  23
ATOM     23  C   UNL     1      -0.013   1.086   0.008  0.00  0.00    +0.101 C 
ATOM     24  C   UNL     1      -0.753   1.593  -1.232  0.00  0.00    +0.024 C 
ENDBRANCH  21  23
ENDBRANCH   5  19
BRANCH   1  25
ATOM     25  C   UNL     1      -2.164   2.323   7.843  0.00  0.00    +0.115 C 
BRANCH  25  26
ATOM     26  C   UNL     1      -1.775   1.194   8.799  0.00  0.00    +0.019 C 
BRANCH  26  28
ATOM     27  C   UNL     1      -1.804   0.437  11.180  0.00  0.00    +0.004 C 
ATOM     28  C   UNL     1      -2.192   1.566  10.223  0.00  0.00    -0.002 C 
ENDBRANCH  26  28
ENDBRANCH  25  26
ENDBRANCH   1  25
TORSDOF 7
