REMARK  Name = ZINC59400187
REMARK  8 active torsions:
REMARK  status: ('A' for Active; 'I' for Inactive)
REMARK    1  A    between atoms: C_3  and  N_28
REMARK    2  A    between atoms: C_6  and  N_7
REMARK    3  A    between atoms: N_7  and  C_8
REMARK    4  A    between atoms: C_8  and  C_9
REMARK    5  A    between atoms: C_9  and  N_10
REMARK    6  A    between atoms: C_11  and  C_13
REMARK    7  A    between atoms: C_14  and  C_15
REMARK    8  A    between atoms: C_18  and  C_20
REMARK                            x       y       z     vdW  Elec       q    Type
REMARK                         _______ _______ _______ _____ _____    ______ ____
ROOT
ATOM      1  N   UNL     1      -2.588  -4.181   0.005  0.00  0.00    -0.310 N 
ATOM      2  C   UNL     1      -3.745  -4.873   0.013  0.00  0.00    +0.237 C 
ATOM      3  O   UNL     1      -4.809  -4.279   0.027  0.00  0.00    -0.271 OA
ATOM      4  H   UNL     1      -1.741  -4.654  -0.006  0.00  0.00    +0.149 HD
ENDROOT
BRANCH   2   5
ATOM      5  C   UNL     1      -3.724  -6.287   0.005  0.00  0.00    +0.071 C 
ATOM      6  C   UNL     1      -4.890  -6.983   0.013  0.00  0.00    +0.051 C 
BRANCH   6   7
ATOM      7  C   UNL     1      -4.869  -8.396   0.005  0.00  0.00    +0.129 A 
ATOM      8  C   UNL     1      -5.977  -9.223   0.006  0.00  0.00    +0.050 A 
ATOM      9  C   UNL     1      -5.501 -10.537  -0.004  0.00  0.00    +0.050 A 
ATOM     10  C   UNL     1      -4.126 -10.466  -0.010  0.00  0.00    +0.137 A 
ATOM     11  O   UNL     1      -3.764  -9.171  -0.010  0.00  0.00    -0.455 OA
BRANCH  10  12
ATOM     12  C   UNL     1      -3.204 -11.618  -0.021  0.00  0.00    +0.036 A 
ATOM     13  C   UNL     1      -3.371 -12.659   0.896  0.00  0.00    +0.014 A 
ATOM     14  C   UNL     1      -2.507 -13.733   0.881  0.00  0.00    +0.021 A 
ATOM     15  C   UNL     1      -1.474 -13.782  -0.041  0.00  0.00    +0.042 A 
ATOM     16  C   UNL     1      -1.302 -12.755  -0.953  0.00  0.00    +0.040 A 
ATOM     17  C   UNL     1      -2.164 -11.677  -0.953  0.00  0.00    +0.053 A 
ATOM     18 CL   UNL     1      -1.951 -10.393  -2.102  0.00  0.00    -0.083 Cl
ATOM     19 CL   UNL     1      -0.390 -15.139  -0.053  0.00  0.00    -0.083 Cl
ENDBRANCH  10  12
ENDBRANCH   6   7
ENDBRANCH   2   5
BRANCH   1  20
ATOM     20  C   UNL     1      -2.610  -2.717   0.013  0.00  0.00    +0.123 C 
BRANCH  20  21
ATOM     21  C   UNL     1      -1.175  -2.185   0.002  0.00  0.00    +0.120 C 
BRANCH  21  22
ATOM     22  N   UNL     1      -1.197  -0.720   0.010  0.00  0.00    -0.342 N 
ATOM     23  H   UNL     1      -2.044  -0.248   0.021  0.00  0.00    +0.146 HD
BRANCH  22  29
ATOM     24  C   UNL     1      -0.017   1.385   0.010  0.00  0.00    +0.025 A 
ATOM     25  C   UNL     1       1.171   2.090   0.002  0.00  0.00    +0.034 A 
ATOM     26  C   UNL     1       2.377   1.415  -0.013  0.00  0.00    +0.126 A 
ATOM     27  C   UNL     1       2.400   0.032  -0.022  0.00  0.00    +0.034 A 
ATOM     28  C   UNL     1       1.216  -0.679  -0.014  0.00  0.00    +0.025 A 
ATOM     29  C   UNL     1       0.002  -0.004   0.002  0.00  0.00    +0.027 A 
BRANCH  26  30
ATOM     30  N   UNL     1       3.648   2.174  -0.022  0.00  0.00    +0.056 N 
ATOM     31  O   UNL     1       3.630   3.383  -0.015  0.00  0.00    -0.126 OA
ATOM     32  O   UNL     1       4.704   1.585  -0.036  0.00  0.00    -0.126 OA
ENDBRANCH  26  30
ENDBRANCH  22  29
ENDBRANCH  21  22
ENDBRANCH  20  21
ENDBRANCH   1  20
TORSDOF 8
