REMARK  Name = ZINC49243024
REMARK  12 active torsions:
REMARK  status: ('A' for Active; 'I' for Inactive)
REMARK    1  A    between atoms: C_1  and  C_2
REMARK    2  A    between atoms: C_2  and  C_3
REMARK    3  A    between atoms: C_2  and  N_4
REMARK    4  A    between atoms: N_4  and  C_5
REMARK    5  A    between atoms: N_4  and  C_6
REMARK    6  A    between atoms: C_6  and  C_7
REMARK    7  A    between atoms: C_12  and  C_13
REMARK    8  A    between atoms: C_13  and  N_14
REMARK    9  A    between atoms: N_17  and  C_18
REMARK   10  A    between atoms: C_18  and  C_19
REMARK   11  A    between atoms: C_19  and  C_21
REMARK   12  A    between atoms: C_19  and  O_29
REMARK                            x       y       z     vdW  Elec       q    Type
REMARK                         _______ _______ _______ _____ _____    ______ ____
ROOT
ATOM      1  N   UNL     1       3.489  -3.333  -0.564  0.00  0.00    -0.295 N 
ATOM      2  C   UNL     1       4.208  -3.179   0.566  0.00  0.00    +0.300 C 
ATOM      3  O   UNL     1       4.886  -2.182   0.724  0.00  0.00    -0.253 OA
ATOM      4  N   UNL     1       4.175  -4.130   1.520  0.00  0.00    -0.297 N 
ATOM      5  H   UNL     1       2.949  -4.128  -0.691  0.00  0.00    +0.151 HD
ATOM      6  H   UNL     1       3.634  -4.926   1.394  0.00  0.00    +0.150 HD
ENDROOT
BRANCH   1   7
ATOM      7  C   UNL     1       3.526  -2.299  -1.602  0.00  0.00    +0.141 C 
BRANCH   7  13
ATOM      8  C   UNL     1       1.206  -2.355  -2.541  0.00  0.00    -0.059 A 
ATOM      9  C   UNL     1       0.310  -2.671  -3.545  0.00  0.00    +0.002 A 
ATOM     10  C   UNL     1       0.755  -3.286  -4.700  0.00  0.00    +0.000 A 
ATOM     11  C   UNL     1       2.096  -3.585  -4.851  0.00  0.00    +0.000 A 
ATOM     12  C   UNL     1       2.992  -3.268  -3.848  0.00  0.00    +0.005 A 
ATOM     13  C   UNL     1       2.548  -2.649  -2.694  0.00  0.00    -0.029 A 
BRANCH   8  14
ATOM     14  C   UNL     1       0.721  -1.685  -1.281  0.00  0.00    -0.043 C 
BRANCH  14  15
ATOM     15  N   UNL     1       0.551  -2.691  -0.225  0.00  0.00    +0.382 N 
ATOM     16  C   UNL     1      -0.514  -3.627  -0.606  0.00  0.00    -0.095 C 
ATOM     17  H   UNL     1       1.415  -3.197  -0.101  0.00  0.00    -0.081 HD
BRANCH  15  19
ATOM     18  C   UNL     1       0.014  -3.072   2.134  0.00  0.00    -0.014 C 
ATOM     19  C   UNL     1       0.190  -2.024   1.033  0.00  0.00    -0.075 C 
ATOM     20  C   UNL     1       1.301  -1.049   1.431  0.00  0.00    -0.014 C 
ENDBRANCH  15  19
ENDBRANCH  14  15
ENDBRANCH   8  14
ENDBRANCH   7  13
ENDBRANCH   1   7
BRANCH   4  21
ATOM     21  C   UNL     1       4.955  -3.963   2.748  0.00  0.00    +0.141 C 
BRANCH  21  22
ATOM     22  C   UNL     1       4.742  -5.175   3.657  0.00  0.00    +0.162 C 
BRANCH  22  23
ATOM     23  C   UNL     1       5.446  -4.948   4.970  0.00  0.00    -0.015 A 
ATOM     24  C   UNL     1       6.810  -5.152   5.067  0.00  0.00    +0.009 A 
ATOM     25  C   UNL     1       7.458  -4.944   6.270  0.00  0.00    +0.041 A 
ATOM     26  C   UNL     1       6.740  -4.532   7.380  0.00  0.00    +0.158 A 
ATOM     27  C   UNL     1       5.373  -4.327   7.283  0.00  0.00    +0.159 A 
ATOM     28  C   UNL     1       4.728  -4.531   6.075  0.00  0.00    +0.047 A 
ATOM     29  F   UNL     1       4.671  -3.925   8.365  0.00  0.00    -0.202 F 
ATOM     30  F   UNL     1       7.373  -4.330   8.557  0.00  0.00    -0.202 F 
ENDBRANCH  22  23
BRANCH  22  31
ATOM     31  O   UNL     1       5.274  -6.342   3.027  0.00  0.00    -0.386 OA
ATOM     32  H   UNL     1       6.221  -6.290   2.838  0.00  0.00    +0.210 HD
ENDBRANCH  22  31
ENDBRANCH  21  22
ENDBRANCH   4  21
TORSDOF 9
