REMARK  Name = ZINC39490926
REMARK  9 active torsions:
REMARK  status: ('A' for Active; 'I' for Inactive)
REMARK    1  A    between atoms: C_1  and  C_2
REMARK    2  A    between atoms: C_2  and  C_3
REMARK    3  A    between atoms: C_2  and  S_4
REMARK    4  A    between atoms: S_4  and  C_7
REMARK    5  A    between atoms: C_7  and  C_28
REMARK    6  A    between atoms: N_12  and  C_13
REMARK    7  A    between atoms: C_13  and  C_14
REMARK    8  A    between atoms: C_14  and  C_21
REMARK    9  A    between atoms: N_17  and  O_20
REMARK                            x       y       z     vdW  Elec       q    Type
REMARK                         _______ _______ _______ _____ _____    ______ ____
ROOT
ATOM      1  C   UNL     1       1.617  -0.435   5.262  0.00  0.00    +0.118 C 
ENDROOT
BRANCH   1   7
ATOM      2  C   UNL     1       3.318  -0.360   3.285  0.00  0.00    +0.170 C 
ATOM      3  C   UNL     1       3.357   0.512   2.015  0.00  0.00    +0.170 C 
ATOM      4  N   UNL     1       2.162   1.362   2.134  0.00  0.00    -0.224 N 
ATOM      5  C   UNL     1       1.518   1.059   3.269  0.00  0.00    +0.315 C 
ATOM      6  O   UNL     1       0.493   1.612   3.617  0.00  0.00    -0.252 OA
ATOM      7  N   UNL     1       2.105   0.091   3.985  0.00  0.00    -0.259 N 
ATOM      8  I   UNL     1       1.576   2.783   0.778  0.00  0.00    +0.049 I 
ATOM      9  C   UNL     1       4.558  -0.114   4.147  0.00  0.00    +0.059 C 
BRANCH   2  10
ATOM     10  S   UNL     1       3.186  -2.115   2.848  0.00  0.00    -0.006 S 
ATOM     11  O   UNL     1       1.882  -2.354   2.335  0.00  0.00    -0.172 OA
ATOM     12  O   UNL     1       3.648  -2.888   3.947  0.00  0.00    -0.172 OA
BRANCH  10  14
ATOM     13  C   UNL     1       5.793  -2.054   2.022  0.00  0.00    +0.031 C 
ATOM     14  C   UNL     1       4.377  -2.281   1.490  0.00  0.00    +0.127 C 
ATOM     15  C   UNL     1       4.276  -3.685   0.891  0.00  0.00    +0.031 C 
ENDBRANCH  10  14
ENDBRANCH   2  10
ENDBRANCH   1   7
BRANCH   1  16
ATOM     16  C   UNL     1       1.862   0.596   6.365  0.00  0.00    -0.008 C 
ATOM     17  C   UNL     1       1.277   0.083   7.684  0.00  0.00    +0.026 C 
ATOM     18  C   UNL     1      -0.236  -0.087   7.534  0.00  0.00    +0.115 C 
ATOM     19  N   UNL     1      -0.842   1.202   7.178  0.00  0.00    -0.191 NA
ATOM     20  C   UNL     1      -0.331   1.692   5.892  0.00  0.00    +0.115 C 
ATOM     21  C   UNL     1       1.180   1.915   5.993  0.00  0.00    +0.026 C 
BRANCH  16  22
ATOM     22  C   UNL     1       3.366   0.825   6.526  0.00  0.00    -0.003 C 
ATOM     23  C   UNL     1       4.014  -0.432   7.110  0.00  0.00    +0.004 C 
ATOM     24  C   UNL     1       5.518  -0.202   7.271  0.00  0.00    +0.000 C 
ATOM     25  C   UNL     1       5.756   0.979   8.214  0.00  0.00    +0.000 C 
ATOM     26  C   UNL     1       5.108   2.236   7.630  0.00  0.00    +0.000 C 
ATOM     27  C   UNL     1       3.604   2.006   7.469  0.00  0.00    +0.004 C 
ENDBRANCH  16  22
BRANCH  19  28
ATOM     28  O   UNL     1      -2.302   1.109   7.161  0.00  0.00    -0.312 OA
ATOM     29  H   UNL     1      -2.746   1.937   6.931  0.00  0.00    +0.237 HD
ENDBRANCH  19  28
ENDBRANCH   1  16
TORSDOF 6
