REMARK  Name = ZINC20272106
REMARK  8 active torsions:
REMARK  status: ('A' for Active; 'I' for Inactive)
REMARK    1  A    between atoms: C_1  and  O_2
REMARK    2  A    between atoms: O_2  and  C_3
REMARK    3  A    between atoms: C_8  and  C_9
REMARK    4  A    between atoms: C_9  and  N_10
REMARK    5  A    between atoms: C_21  and  N_25
REMARK    6  A    between atoms: N_25  and  C_26
REMARK    7  A    between atoms: C_26  and  C_27
REMARK    8  A    between atoms: C_27  and  C_28
REMARK                            x       y       z     vdW  Elec       q    Type
REMARK                         _______ _______ _______ _____ _____    ______ ____
ROOT
ATOM      1  N   UNL     1      -2.751   2.612  -9.813  0.00  0.00    -0.294 N 
ATOM      2  C   UNL     1      -3.922   1.934  -9.855  0.00  0.00    +0.203 A 
ATOM      3  N   UNL     1      -4.377   1.224  -8.846  0.00  0.00    -0.230 NA
ATOM      4  C   UNL     1      -3.635   1.186  -7.744  0.00  0.00    +0.116 A 
ATOM      5  C   UNL     1      -2.400   1.857  -7.602  0.00  0.00    +0.076 A 
ATOM      6  C   UNL     1      -1.941   2.621  -8.727  0.00  0.00    +0.263 A 
ATOM      7  O   UNL     1      -0.889   3.236  -8.708  0.00  0.00    -0.267 OA
ATOM      8  C   UNL     1      -1.729   1.701  -6.324  0.00  0.00    -0.023 A 
ATOM      9  C   UNL     1      -2.351   0.930  -5.402  0.00  0.00    -0.006 A 
ATOM     10  S   UNL     1      -3.847   0.383  -6.186  0.00  0.00    -0.073 S 
ATOM     11  C   UNL     1      -1.877   0.612  -4.017  0.00  0.00    +0.027 C 
ATOM     12  C   UNL     1      -0.749   1.587  -3.653  0.00  0.00    -0.067 C 
ATOM     13  C   UNL     1       0.246   1.642  -4.816  0.00  0.00    -0.011 C 
ATOM     14  C   UNL     1      -0.388   2.358  -6.008  0.00  0.00    +0.035 C 
ENDROOT
BRANCH  12  15
ATOM     15  N   UNL     1      -0.065   1.119  -2.440  0.00  0.00    +0.381 N 
ATOM     16  H   UNL     1      -0.050   0.019  -2.429  0.00  0.00    -0.086 HD
ATOM     17  H   UNL     1       0.967   1.500  -2.431  0.00  0.00    -0.086 HD
BRANCH  15  18
ATOM     18  C   UNL     1      -0.753   1.593  -1.232  0.00  0.00    -0.078 C 
BRANCH  18  19
ATOM     19  C   UNL     1      -0.013   1.086   0.008  0.00  0.00    +0.016 C 
BRANCH  19  20
ATOM     20  C   UNL     1      -0.718   1.572   1.248  0.00  0.00    -0.049 A 
ATOM     21  C   UNL     1      -0.360   2.779   1.819  0.00  0.00    +0.003 A 
ATOM     22  C   UNL     1      -1.010   3.227   2.954  0.00  0.00    +0.000 A 
ATOM     23  C   UNL     1      -2.012   2.463   3.523  0.00  0.00    +0.000 A 
ATOM     24  C   UNL     1      -2.366   1.254   2.955  0.00  0.00    +0.000 A 
ATOM     25  C   UNL     1      -1.719   0.808   1.818  0.00  0.00    +0.003 A 
ENDBRANCH  19  20
ENDBRANCH  18  19
ENDBRANCH  15  18
ENDBRANCH  12  15
BRANCH   1  26
ATOM     26  C   UNL     1      -2.340   3.372 -10.996  0.00  0.00    +0.165 C 
BRANCH  26  32
ATOM     27  C   UNL     1      -2.147   1.579 -12.738  0.00  0.00    +0.125 A 
ATOM     28  C   UNL     1      -1.389   0.769 -13.573  0.00  0.00    +0.046 A 
ATOM     29  C   UNL     1      -0.012   0.865 -13.560  0.00  0.00    +0.004 A 
ATOM     30  C   UNL     1       0.612   1.769 -12.720  0.00  0.00    +0.001 A 
ATOM     31  C   UNL     1      -0.141   2.579 -11.891  0.00  0.00    +0.009 A 
ATOM     32  C   UNL     1      -1.519   2.488 -11.900  0.00  0.00    +0.014 A 
BRANCH  27  34
ATOM     33  C   UNL     1      -4.081   0.525 -13.634  0.00  0.00    +0.277 C 
ATOM     34  O   UNL     1      -3.503   1.483 -12.745  0.00  0.00    -0.495 OA
ENDBRANCH  27  34
ENDBRANCH  26  32
ENDBRANCH   1  26
TORSDOF 7
