REMARK  Name = ZINC09307284
REMARK  3 active torsions:
REMARK  status: ('A' for Active; 'I' for Inactive)
REMARK    1  A    between atoms: C_1  and  C_2
REMARK    2  A    between atoms: N_23  and  C_26
REMARK    3  A    between atoms: C_29  and  N_33
REMARK                            x       y       z     vdW  Elec       q    Type
REMARK                         _______ _______ _______ _____ _____    ______ ____
ROOT
ATOM      1  C   UNL     1      -4.519  -1.530   3.343  0.00  0.00    +0.047 C 
ATOM      2  C   UNL     1      -3.143  -0.982   3.063  0.00  0.00    -0.011 A 
ATOM      3  C   UNL     1      -2.026  -1.702   3.438  0.00  0.00    +0.046 A 
ATOM      4  C   UNL     1      -0.759  -1.207   3.184  0.00  0.00    +0.020 A 
ATOM      5  C   UNL     1      -0.611   0.015   2.552  0.00  0.00    +0.006 A 
ATOM      6  C   UNL     1      -1.722   0.735   2.177  0.00  0.00    -0.027 A 
ATOM      7  C   UNL     1      -3.002   0.248   2.426  0.00  0.00    +0.040 A 
ATOM      8  N   UNL     1      -3.961   1.149   1.958  0.00  0.00    -0.286 N 
ATOM      9  C   UNL     1      -3.403   2.239   1.396  0.00  0.00    +0.212 C 
ATOM     10  O   UNL     1      -3.989   3.181   0.907  0.00  0.00    -0.277 OA
ATOM     11  C   UNL     1      -1.912   2.060   1.491  0.00  0.00    +0.053 C 
ATOM     12  C   UNL     1      -1.258   2.068   0.099  0.00  0.00    +0.089 C 
ATOM     13  C   UNL     1      -0.701   3.510  -0.058  0.00  0.00    +0.074 C 
ATOM     14  C   UNL     1      -1.075   4.237   1.246  0.00  0.00    -0.054 C 
ATOM     15  C   UNL     1       0.081   2.757   2.669  0.00  0.00    -0.076 C 
ATOM     16  C   UNL     1       0.891   4.068   2.703  0.00  0.00    -0.020 C 
ATOM     17  C   UNL     1       0.143   5.028   1.757  0.00  0.00    -0.016 C 
ATOM     18  C   UNL     1       0.796   3.302  -0.106  0.00  0.00    +0.228 C 
ATOM     19  O   UNL     1       1.622   4.181  -0.225  0.00  0.00    -0.275 OA
ATOM     20  N   UNL     1       1.067   1.996   0.003  0.00  0.00    -0.209 N 
ATOM     21  C   UNL     1      -0.011   1.213   0.125  0.00  0.00    +0.229 C 
ATOM     22  O   UNL     1       0.008   0.006   0.235  0.00  0.00    -0.275 OA
ATOM     23 CL   UNL     1      -2.212  -3.235   4.231  0.00  0.00    -0.083 Cl
ATOM     24  H   UNL     1      -4.918   1.007   2.029  0.00  0.00    +0.155 HD
ATOM     25  N   UNL     1      -1.259   3.165   2.198  0.00  0.00    +0.395 N 
ATOM     26  H   UNL     1      -1.836   3.473   2.990  0.00  0.00    -0.079 HD
ENDROOT
BRANCH  20  27
ATOM     27  C   UNL     1       2.375   1.490  -0.010  0.00  0.00    +0.062 A 
ATOM     28  C   UNL     1       3.071   1.331   1.180  0.00  0.00    +0.027 A 
ATOM     29  C   UNL     1       4.359   0.832   1.164  0.00  0.00    +0.034 A 
ATOM     30  C   UNL     1       4.955   0.489  -0.035  0.00  0.00    +0.128 A 
ATOM     31  C   UNL     1       4.264   0.645  -1.223  0.00  0.00    +0.054 A 
ATOM     32  C   UNL     1       2.974   1.139  -1.214  0.00  0.00    +0.065 A 
ATOM     33 CL   UNL     1       2.104   1.328  -2.705  0.00  0.00    -0.082 Cl
BRANCH  30  34
ATOM     34  N   UNL     1       6.335  -0.046  -0.048  0.00  0.00    +0.056 N 
ATOM     35  O   UNL     1       6.944  -0.184   0.997  0.00  0.00    -0.126 OA
ATOM     36  O   UNL     1       6.861  -0.348  -1.104  0.00  0.00    -0.126 OA
ENDBRANCH  30  34
ENDBRANCH  20  27
TORSDOF 2
