REMARK  Name = ZINC08990213
REMARK  7 active torsions:
REMARK  status: ('A' for Active; 'I' for Inactive)
REMARK    1  A    between atoms: C_4  and  C_7
REMARK    2  A    between atoms: C_10  and  C_16
REMARK    3  A    between atoms: N_18  and  C_19
REMARK    4  A    between atoms: C_19  and  C_20
REMARK    5  A    between atoms: N_22  and  C_23
REMARK    6  A    between atoms: C_23  and  C_24
REMARK    7  A    between atoms: C_24  and  C_25
REMARK                            x       y       z     vdW  Elec       q    Type
REMARK                         _______ _______ _______ _____ _____    ______ ____
ROOT
ATOM      1  C   UNL     1      -1.196   2.130  -0.284  0.00  0.00    +0.244 C 
ATOM      2  O   UNL     1      -2.242   1.509  -0.316  0.00  0.00    -0.270 OA
ATOM      3  N   UNL     1      -0.021   1.474  -0.343  0.00  0.00    -0.303 N 
ATOM      4  H   UNL     1       0.813   1.970  -0.322  0.00  0.00    +0.150 HD
ENDROOT
BRANCH   1   8
ATOM      5  C   UNL     1      -3.396   6.674   0.054  0.00  0.00    +0.175 A 
ATOM      6  C   UNL     1      -2.444   5.654  -0.027  0.00  0.00    +0.050 A 
ATOM      7  C   UNL     1      -2.432   4.263  -0.123  0.00  0.00    +0.027 A 
ATOM      8  C   UNL     1      -1.216   3.600  -0.183  0.00  0.00    +0.038 A 
ATOM      9  C   UNL     1       0.004   4.309  -0.142  0.00  0.00    +0.015 A 
ATOM     10  C   UNL     1       0.042   5.658  -0.055  0.00  0.00    +0.032 A 
ATOM     11  C   UNL     1      -1.163   6.392   0.010  0.00  0.00    +0.114 A 
ATOM     12  N   UNL     1      -1.499   7.657   0.101  0.00  0.00    -0.078 NA
ATOM     13  O   UNL     1      -2.698   7.818   0.126  0.00  0.00    -0.353 OA
BRANCH   5  17
ATOM     14  C   UNL     1      -7.617   6.242   0.072  0.00  0.00    +0.000 A 
ATOM     15  C   UNL     1      -7.007   7.074   0.994  0.00  0.00    +0.001 A 
ATOM     16  C   UNL     1      -5.636   7.220   0.994  0.00  0.00    +0.011 A 
ATOM     17  C   UNL     1      -4.862   6.524   0.061  0.00  0.00    +0.021 A 
ATOM     18  C   UNL     1      -5.487   5.689  -0.871  0.00  0.00    +0.011 A 
ATOM     19  C   UNL     1      -6.858   5.549  -0.855  0.00  0.00    +0.001 A 
ENDBRANCH   5  17
ENDBRANCH   1   8
BRANCH   3  20
ATOM     20  C   UNL     1      -0.002   0.013  -0.444  0.00  0.00    +0.200 C 
BRANCH  20  21
ATOM     21  C   UNL     1       1.426  -0.469  -0.500  0.00  0.00    +0.230 C 
ATOM     22  O   UNL     1       2.337   0.331  -0.460  0.00  0.00    -0.274 OA
ATOM     23  N   UNL     1       1.689  -1.787  -0.596  0.00  0.00    -0.314 N 
ATOM     24  H   UNL     1       0.960  -2.426  -0.628  0.00  0.00    +0.149 HD
BRANCH  23  25
ATOM     25  C   UNL     1       3.076  -2.254  -0.650  0.00  0.00    +0.109 C 
BRANCH  25  26
ATOM     26  C   UNL     1       3.096  -3.781  -0.756  0.00  0.00    +0.056 C 
BRANCH  26  27
ATOM     27  C   UNL     1       4.523  -4.262  -0.812  0.00  0.00    -0.021 A 
ATOM     28  C   UNL     1       5.230  -4.537  -1.920  0.00  0.00    +0.087 A 
ATOM     29  N   UNL     1       6.491  -4.946  -1.579  0.00  0.00    -0.360 N 
ATOM     30  H   UNL     1       7.184  -5.198  -2.209  0.00  0.00    +0.165 HD
ATOM     31  C   UNL     1       6.627  -4.952  -0.209  0.00  0.00    +0.047 A 
ATOM     32  C   UNL     1       5.400  -4.524   0.332  0.00  0.00    +0.003 A 
ATOM     33  C   UNL     1       5.244  -4.430   1.716  0.00  0.00    +0.010 A 
ATOM     34  C   UNL     1       6.284  -4.756   2.539  0.00  0.00    +0.001 A 
ATOM     35  C   UNL     1       7.496  -5.179   2.011  0.00  0.00    +0.002 A 
ATOM     36  C   UNL     1       7.672  -5.278   0.648  0.00  0.00    +0.026 A 
ENDBRANCH  26  27
ENDBRANCH  25  26
ENDBRANCH  23  25
ENDBRANCH  20  21
ENDBRANCH   3  20
TORSDOF 7
