REMARK  Name = ZINC39666498
REMARK  8 active torsions:
REMARK  status: ('A' for Active; 'I' for Inactive)
REMARK    1  A    between atoms: C_1  and  C_2
REMARK    2  A    between atoms: C_6  and  C_9
REMARK    3  A    between atoms: C_13  and  C_22
REMARK    4  A    between atoms: N_24  and  C_25
REMARK    5  A    between atoms: C_25  and  C_26
REMARK    6  A    between atoms: C_26  and  C_28
REMARK    7  A    between atoms: C_26  and  O_29
REMARK    8  A    between atoms: O_29  and  C_30
REMARK                            x       y       z     vdW  Elec       q    Type
REMARK                         _______ _______ _______ _____ _____    ______ ____
ROOT
ATOM      1  C   UNL     1       0.075  -2.876   2.476  0.00  0.00    +0.251 C 
ATOM      2  O   UNL     1       1.135  -3.179   2.989  0.00  0.00    -0.270 OA
ATOM      3  N   UNL     1      -1.084  -3.234   3.063  0.00  0.00    -0.296 N 
ATOM      4  C   UNL     1      -2.462  -2.964   2.591  0.00  0.00    +0.121 C 
ATOM      5  C   UNL     1      -3.244  -4.259   2.906  0.00  0.00    +0.100 C 
ATOM      6  C   UNL     1      -2.456  -4.925   4.047  0.00  0.00    -0.004 C 
ATOM      7  C   UNL     1      -1.268  -3.992   4.323  0.00  0.00    +0.115 C 
ATOM      8  C   UNL     1      -1.951  -6.297   3.611  0.00  0.00    -0.010 C 
ATOM      9  C   UNL     1      -1.220  -6.962   4.780  0.00  0.00    -0.082 C 
ATOM     10  N   UNL     1      -2.136  -7.095   5.920  0.00  0.00    +0.379 N 
ATOM     11  C   UNL     1      -2.545  -5.766   6.392  0.00  0.00    -0.082 C 
ATOM     12  C   UNL     1      -3.331  -5.050   5.290  0.00  0.00    -0.010 C 
ATOM     13  H   UNL     1      -2.953  -7.615   5.634  0.00  0.00    -0.086 HD
ATOM     14  H   UNL     1      -1.672  -7.588   6.667  0.00  0.00    -0.086 HD
ENDROOT
BRANCH   1  20
ATOM     15  C   UNL     1       0.012   1.494   0.059  0.00  0.00    +0.047 C 
ATOM     16  C   UNL     1       0.027  -0.013   0.041  0.00  0.00    -0.014 A 
ATOM     17  C   UNL     1       0.025  -0.688  -1.166  0.00  0.00    +0.007 A 
ATOM     18  C   UNL     1       0.038  -2.071  -1.193  0.00  0.00    +0.021 A 
ATOM     19  C   UNL     1       0.055  -2.789  -0.014  0.00  0.00    +0.056 A 
ATOM     20  C   UNL     1       0.058  -2.115   1.211  0.00  0.00    +0.091 A 
ATOM     21  C   UNL     1       0.050  -0.717   1.231  0.00  0.00    +0.140 A 
ATOM     22  F   UNL     1       0.058  -0.056   2.409  0.00  0.00    -0.204 F 
ATOM     23 CL   UNL     1       0.071  -4.525  -0.052  0.00  0.00    -0.083 Cl
ENDBRANCH   1  20
BRANCH   5  24
ATOM     24  C   UNL     1      -3.280  -5.158   1.696  0.00  0.00    +0.218 C 
ATOM     25  O   UNL     1      -2.413  -5.073   0.852  0.00  0.00    -0.275 OA
ATOM     26  N   UNL     1      -4.275  -6.055   1.553  0.00  0.00    -0.312 N 
ATOM     27  H   UNL     1      -4.968  -6.123   2.228  0.00  0.00    +0.149 HD
BRANCH  26  28
ATOM     28  C   UNL     1      -4.310  -6.929   0.377  0.00  0.00    +0.148 C 
BRANCH  28  29
ATOM     29  C   UNL     1      -5.532  -7.845   0.459  0.00  0.00    +0.187 C 
ATOM     30  C   UNL     1      -5.569  -8.757  -0.769  0.00  0.00    +0.053 C 
BRANCH  29  31
ATOM     31  O   UNL     1      -5.452  -8.642   1.642  0.00  0.00    -0.486 OA
BRANCH  31  32
ATOM     32  C   UNL     1      -6.622  -9.107   2.154  0.00  0.00    +0.139 A 
ATOM     33  C   UNL     1      -7.811  -8.899   1.470  0.00  0.00    +0.047 A 
ATOM     34  C   UNL     1      -8.999  -9.373   1.991  0.00  0.00    +0.004 A 
ATOM     35  C   UNL     1      -9.004 -10.055   3.194  0.00  0.00    +0.002 A 
ATOM     36  C   UNL     1      -7.822 -10.264   3.879  0.00  0.00    +0.023 A 
ATOM     37  C   UNL     1      -6.629  -9.797   3.358  0.00  0.00    +0.083 A 
ATOM     38 CL   UNL     1      -5.143 -10.065   4.215  0.00  0.00    -0.080 Cl
ENDBRANCH  31  32
ENDBRANCH  29  31
ENDBRANCH  28  29
ENDBRANCH  26  28
ENDBRANCH   5  24
TORSDOF 6
