REMARK  Name = ZINC65074842
REMARK  8 active torsions:
REMARK  status: ('A' for Active; 'I' for Inactive)
REMARK    1  A    between atoms: C_1  and  C_2
REMARK    2  A    between atoms: C_5  and  C_8
REMARK    3  A    between atoms: C_8  and  N_9
REMARK    4  A    between atoms: N_18  and  S_21
REMARK    5  A    between atoms: S_21  and  C_24
REMARK    6  A    between atoms: C_27  and  C_30
REMARK    7  A    between atoms: C_30  and  C_31
REMARK    8  A    between atoms: C_30  and  C_32
REMARK                            x       y       z     vdW  Elec       q    Type
REMARK                         _______ _______ _______ _____ _____    ______ ____
ROOT
ATOM      1  N   UNL     1       1.447  -4.746  -0.032  0.00  0.00    -0.329 N 
ATOM      2  C   UNL     1       1.714  -6.089  -0.041  0.00  0.00    +0.089 C 
ATOM      3  N   UNL     1       0.727  -6.903  -0.045  0.00  0.00    -0.374 N 
ATOM      4  C   UNL     1       0.872  -8.355  -0.044  0.00  0.00    +0.129 C 
ATOM      5  C   UNL     1       2.294  -8.741  -0.457  0.00  0.00    +0.102 C 
ATOM      6  N   UNL     1       3.244  -7.944   0.337  0.00  0.00    -0.303 NA
ATOM      7  C   UNL     1       3.152  -6.527  -0.051  0.00  0.00    +0.075 C 
ATOM      8  C   UNL     1       3.732  -6.345  -1.456  0.00  0.00    +0.047 C 
ATOM      9  C   UNL     1       5.185  -6.830  -1.471  0.00  0.00    +0.111 C 
ATOM     10  N   UNL     1       5.929  -6.126  -0.418  0.00  0.00    -0.176 NA
ATOM     11  C   UNL     1       5.408  -6.158   0.956  0.00  0.00    +0.111 C 
ATOM     12  C   UNL     1       3.952  -5.681   0.943  0.00  0.00    +0.047 C 
ATOM     13  H   UNL     1       2.176  -4.106  -0.032  0.00  0.00    +0.147 HD
ATOM     14  H   UNL     1       3.078  -8.064   1.325  0.00  0.00    +0.123 HD
ATOM     15  H   UNL     1      -0.170  -6.533  -0.048  0.00  0.00    +0.161 HD
ENDROOT
BRANCH  10  16
ATOM     16  S   UNL     1       7.327  -5.312  -0.771  0.00  0.00    +0.061 S 
ATOM     17  O   UNL     1       8.071  -5.239   0.437  0.00  0.00    -0.153 OA
ATOM     18  O   UNL     1       7.851  -5.901  -1.954  0.00  0.00    -0.153 OA
BRANCH  16  19
ATOM     19  C   UNL     1       6.878  -3.660  -1.188  0.00  0.00    +0.105 A 
ATOM     20  C   UNL     1       6.591  -3.332  -2.500  0.00  0.00    +0.029 A 
ATOM     21  C   UNL     1       6.239  -2.036  -2.826  0.00  0.00    +0.006 A 
ATOM     22  C   UNL     1       6.173  -1.068  -1.841  0.00  0.00    -0.045 A 
ATOM     23  C   UNL     1       6.459  -1.397  -0.529  0.00  0.00    +0.006 A 
ATOM     24  C   UNL     1       6.808  -2.694  -0.202  0.00  0.00    +0.029 A 
BRANCH  22  25
ATOM     25  C   UNL     1       5.790   0.345  -2.198  0.00  0.00    +0.013 C 
ATOM     26  C   UNL     1       4.524   0.738  -1.434  0.00  0.00    +0.012 C 
ATOM     27  C   UNL     1       6.929   1.293  -1.819  0.00  0.00    +0.012 C 
ENDBRANCH  22  25
ENDBRANCH  16  19
ENDBRANCH  10  16
BRANCH   1  28
ATOM     28  C   UNL     1       0.059  -4.275  -0.021  0.00  0.00    +0.138 C 
BRANCH  28  33
ATOM     29  C   UNL     1      -0.018   1.503   0.010  0.00  0.00    +0.044 C 
ATOM     30  C   UNL     1       0.002  -0.004   0.002  0.00  0.00    -0.050 A 
ATOM     31  C   UNL     1       0.006  -0.689  -1.199  0.00  0.00    +0.003 A 
ATOM     32  C   UNL     1       0.025  -2.071  -1.206  0.00  0.00    +0.005 A 
ATOM     33  C   UNL     1       0.040  -2.768  -0.013  0.00  0.00    -0.030 A 
ATOM     34  C   UNL     1       0.037  -2.084   1.188  0.00  0.00    +0.005 A 
ATOM     35  C   UNL     1       0.023  -0.702   1.195  0.00  0.00    +0.003 A 
ENDBRANCH  28  33
ENDBRANCH   1  28
TORSDOF 5
