REMARK  Name = ZINC13399934
REMARK  4 active torsions:
REMARK  status: ('A' for Active; 'I' for Inactive)
REMARK    1  A    between atoms: C_1  and  C_2
REMARK    2  A    between atoms: C_6  and  O_24
REMARK    3  A    between atoms: C_13  and  O_23
REMARK    4  A    between atoms: C_17  and  C_22
REMARK                            x       y       z     vdW  Elec       q    Type
REMARK                         _______ _______ _______ _____ _____    ______ ____
ROOT
ATOM      1  C   UNL     1      -2.551  -0.202  -1.525  0.00  0.00    +0.014 C 
ATOM      2  C   UNL     1      -2.244   1.266  -1.224  0.00  0.00    -0.003 C 
ATOM      3  C   UNL     1      -2.790   2.215  -2.325  0.00  0.00    +0.009 C 
ATOM      4  C   UNL     1      -1.798   3.389  -2.415  0.00  0.00    +0.003 C 
ATOM      5  C   UNL     1      -0.668   3.092  -1.401  0.00  0.00    +0.035 C 
ATOM      6  C   UNL     1      -0.738   1.574  -1.223  0.00  0.00    +0.075 C 
ATOM      7  C   UNL     1      -0.013   1.086   0.008  0.00  0.00    +0.029 C 
ATOM      8  C   UNL     1       1.431   1.604  -0.003  0.00  0.00    +0.033 C 
ATOM      9  C   UNL     1       2.127   1.157   1.249  0.00  0.00    -0.027 C 
ATOM     10  C   UNL     1       1.496   0.904   2.357  0.00  0.00    -0.065 C 
ATOM     11  C   UNL     1       2.307   0.469   3.567  0.00  0.00    +0.062 C 
ATOM     12  C   UNL     1       1.923   1.362   4.750  0.00  0.00    +0.119 C 
ATOM     13  C   UNL     1       0.409   1.304   4.964  0.00  0.00    +0.032 C 
ATOM     14  C   UNL     1      -0.308   1.876   3.740  0.00  0.00    +0.014 C 
ATOM     15  C   UNL     1       0.009   1.011   2.516  0.00  0.00    -0.008 C 
ATOM     16  C   UNL     1      -0.692   1.566   1.287  0.00  0.00    +0.005 C 
ATOM     17  C   UNL     1      -2.149   1.085   1.280  0.00  0.00    +0.005 C 
ATOM     18  C   UNL     1      -2.872   1.721   0.097  0.00  0.00    +0.010 C 
ATOM     19  C   UNL     1      -0.546  -0.392   2.771  0.00  0.00    +0.016 C 
ENDROOT
BRANCH  12  20
ATOM     20  O   UNL     1       2.314   2.709   4.477  0.00  0.00    -0.391 OA
ATOM     21  H   UNL     1       3.263   2.821   4.331  0.00  0.00    +0.210 HD
ENDBRANCH  12  20
BRANCH   6  22
ATOM     22  O   UNL     1      -0.152   0.977  -2.381  0.00  0.00    -0.388 OA
ATOM     23  H   UNL     1       0.788   1.175  -2.492  0.00  0.00    +0.210 HD
ENDBRANCH   6  22
TORSDOF 2
