REMARK  Name = ZINC03457005
REMARK  11 active torsions:
REMARK  status: ('A' for Active; 'I' for Inactive)
REMARK    1  A    between atoms: C_1  and  C_2
REMARK    2  A    between atoms: C_2  and  C_3
REMARK    3  A    between atoms: C_2  and  C_4
REMARK    4  A    between atoms: C_2  and  C_5
REMARK    5  A    between atoms: C_8  and  C_11
REMARK    6  A    between atoms: C_14  and  S_23
REMARK    7  A    between atoms: N_15  and  C_16
REMARK    8  A    between atoms: S_23  and  C_24
REMARK    9  A    between atoms: C_24  and  C_25
REMARK   10  A    between atoms: C_25  and  C_26
REMARK   11  A    between atoms: C_32  and  N_65
REMARK                            x       y       z     vdW  Elec       q    Type
REMARK                         _______ _______ _______ _____ _____    ______ ____
ROOT
ATOM      1  C   UNL     1       2.638  -0.891  -4.535  0.00  0.00    +0.169 A 
ATOM      2  N   UNL     1       3.934  -0.877  -4.746  0.00  0.00    -0.128 NA
ATOM      3  N   UNL     1       4.228  -1.647  -5.732  0.00  0.00    -0.122 NA
ATOM      4  C   UNL     1       3.138  -2.202  -6.213  0.00  0.00    +0.196 A 
ATOM      5  N   UNL     1       2.087  -1.746  -5.465  0.00  0.00    -0.270 N 
ENDROOT
BRANCH   5   6
ATOM      6  C   UNL     1       0.733  -2.076  -5.616  0.00  0.00    +0.051 A 
ATOM      7  C   UNL     1       0.089  -2.830  -4.644  0.00  0.00    +0.027 A 
ATOM      8  C   UNL     1      -1.247  -3.149  -4.792  0.00  0.00    +0.017 A 
ATOM      9  C   UNL     1      -1.940  -2.727  -5.912  0.00  0.00    +0.018 A 
ATOM     10  C   UNL     1      -1.299  -1.980  -6.885  0.00  0.00    +0.017 A 
ATOM     11  C   UNL     1       0.035  -1.654  -6.739  0.00  0.00    +0.027 A 
ATOM     12 BR   UNL     1      -3.767  -3.172  -6.114  0.00  0.00    -0.050 Br
ENDBRANCH   5   6
BRANCH   1  16
ATOM     13  C   UNL     1       0.542   1.272  -1.541  0.00  0.00    -0.042 A 
ATOM     14  C   UNL     1       1.910   1.093  -1.431  0.00  0.00    +0.005 A 
ATOM     15  C   UNL     1       2.596   0.387  -2.398  0.00  0.00    +0.012 A 
ATOM     16  C   UNL     1       1.909  -0.138  -3.494  0.00  0.00    +0.020 A 
ATOM     17  C   UNL     1       0.530   0.051  -3.601  0.00  0.00    +0.012 A 
ATOM     18  C   UNL     1      -0.145   0.755  -2.625  0.00  0.00    +0.005 A 
BRANCH  13  20
ATOM     19  C   UNL     1      -1.265   1.138   0.152  0.00  0.00    +0.015 C 
ATOM     20  C   UNL     1      -0.202   2.039  -0.478  0.00  0.00    -0.013 C 
ATOM     21  C   UNL     1      -0.876   3.260  -1.108  0.00  0.00    +0.015 C 
ATOM     22  C   UNL     1       0.781   2.500   0.600  0.00  0.00    +0.015 C 
ENDBRANCH  13  20
ENDBRANCH   1  16
BRANCH   4  23
ATOM     23  S   UNL     1       3.047  -3.329  -7.565  0.00  0.00    -0.086 S 
BRANCH  23  24
ATOM     24  C   UNL     1       4.801  -3.435  -8.003  0.00  0.00    +0.076 C 
BRANCH  24  25
ATOM     25  C   UNL     1       4.973  -4.387  -9.188  0.00  0.00    -0.004 C 
BRANCH  25  26
ATOM     26  C   UNL     1       6.464  -4.579  -9.475  0.00  0.00    -0.068 C 
ATOM     27  C   UNL     1       7.080  -3.240  -9.887  0.00  0.00    -0.015 C 
ATOM     28  C   UNL     1       8.567  -3.442 -10.192  0.00  0.00    -0.003 C 
ATOM     29  C   UNL     1       8.716  -4.495 -11.294  0.00  0.00    -0.019 C 
ATOM     30  C   UNL     1       8.052  -5.797 -10.841  0.00  0.00    -0.079 C 
ATOM     31  C   UNL     1       5.930  -6.807 -10.259  0.00  0.00    -0.096 C 
ATOM     32  N   UNL     1       6.618  -5.541 -10.587  0.00  0.00    +0.380 N 
ATOM     33  H   UNL     1       6.196  -5.142 -11.434  0.00  0.00    -0.082 HD
ENDBRANCH  25  26
ENDBRANCH  24  25
ENDBRANCH  23  24
ENDBRANCH   4  23
TORSDOF 7
