REMARK  Name = ZINC66825475
REMARK  7 active torsions:
REMARK  status: ('A' for Active; 'I' for Inactive)
REMARK    1  A    between atoms: C_1  and  C_2
REMARK    2  A    between atoms: C_8  and  N_10
REMARK    3  A    between atoms: C_11  and  C_13
REMARK    4  A    between atoms: C_13  and  N_14
REMARK    5  A    between atoms: N_14  and  C_15
REMARK    6  A    between atoms: C_19  and  C_21
REMARK    7  A    between atoms: C_27  and  O_30
REMARK                            x       y       z     vdW  Elec       q    Type
REMARK                         _______ _______ _______ _____ _____    ______ ____
ROOT
ATOM      1  C   UNL     1       5.920   1.512   4.030  0.00  0.00    +0.028 A 
ATOM      2  C   UNL     1       6.789   1.596   2.948  0.00  0.00    +0.023 A 
ATOM      3  C   UNL     1       8.150   1.711   3.157  0.00  0.00    +0.003 A 
ATOM      4  C   UNL     1       8.656   1.743   4.440  0.00  0.00    +0.013 A 
ATOM      5  C   UNL     1       7.793   1.659   5.534  0.00  0.00    +0.039 A 
ATOM      6  C   UNL     1       6.418   1.548   5.324  0.00  0.00    +0.036 A 
ENDROOT
BRANCH   5   7
ATOM      7  C   UNL     1       8.332   1.693   6.910  0.00  0.00    +0.247 C 
ATOM      8  O   UNL     1       9.235   2.458   7.190  0.00  0.00    -0.270 OA
ATOM      9  N   UNL     1       7.824   0.875   7.853  0.00  0.00    -0.295 N 
ATOM     10  C   UNL     1       6.828  -0.146   7.501  0.00  0.00    +0.108 C 
ATOM     11  C   UNL     1       7.320  -1.507   8.003  0.00  0.00    +0.021 C 
ATOM     12  C   UNL     1       7.624  -1.415   9.500  0.00  0.00    +0.034 C 
ATOM     13  C   UNL     1       8.731  -0.385   9.735  0.00  0.00    +0.132 C 
ATOM     14  C   UNL     1       8.260   0.985   9.252  0.00  0.00    +0.139 C 
BRANCH  13  15
ATOM     15  O   UNL     1       9.036  -0.323  11.130  0.00  0.00    -0.390 OA
ATOM     16  H   UNL     1       9.731   0.311  11.353  0.00  0.00    +0.210 HD
ENDBRANCH  13  15
ENDBRANCH   5   7
BRANCH   1  17
ATOM     17  N   UNL     1       4.544   1.396   3.815  0.00  0.00    -0.335 N 
ATOM     18  H   UNL     1       3.938   1.341   4.570  0.00  0.00    +0.147 HD
BRANCH  17  19
ATOM     19  C   UNL     1       4.018   1.357   2.448  0.00  0.00    +0.197 C 
BRANCH  19  21
ATOM     20  N   UNL     1       1.812   1.174   1.344  0.00  0.00    -0.311 N 
ATOM     21  C   UNL     1       2.517   1.229   2.491  0.00  0.00    +0.230 C 
ATOM     22  O   UNL     1       1.944   1.176   3.558  0.00  0.00    -0.274 OA
ATOM     23  H   UNL     1       2.271   1.217   0.490  0.00  0.00    +0.149 HD
BRANCH  20  30
ATOM     24  C   UNL     1       0.138   3.092  -0.038  0.00  0.00    +0.009 C 
ATOM     25  C   UNL     1      -0.244   1.617   0.096  0.00  0.00    +0.006 C 
ATOM     26  C   UNL     1      -1.768   1.487   0.140  0.00  0.00    +0.005 C 
ATOM     27  C   UNL     1      -2.151   0.012   0.274  0.00  0.00    +0.000 C 
ATOM     28  C   UNL     1      -1.554  -0.555   1.564  0.00  0.00    +0.002 C 
ATOM     29  C   UNL     1      -0.030  -0.425   1.520  0.00  0.00    +0.022 C 
ATOM     30  C   UNL     1       0.353   1.050   1.386  0.00  0.00    +0.076 C 
ENDBRANCH  20  30
ENDBRANCH  19  21
ENDBRANCH  17  19
ENDBRANCH   1  17
TORSDOF 6
