REMARK  Name = ZINC39683163
REMARK  11 active torsions:
REMARK  status: ('A' for Active; 'I' for Inactive)
REMARK    1  A    between atoms: C_1  and  C_2
REMARK    2  A    between atoms: C_2  and  C_3
REMARK    3  A    between atoms: C_2  and  C_4
REMARK    4  A    between atoms: C_4  and  O_5
REMARK    5  A    between atoms: O_5  and  C_6
REMARK    6  A    between atoms: C_6  and  C_7
REMARK    7  A    between atoms: C_7  and  C_8
REMARK    8  A    between atoms: C_8  and  N_9
REMARK    9  A    between atoms: C_10  and  C_12
REMARK   10  A    between atoms: C_23  and  C_25
REMARK   11  A    between atoms: C_31  and  C_33
REMARK                            x       y       z     vdW  Elec       q    Type
REMARK                         _______ _______ _______ _____ _____    ______ ____
ROOT
ATOM      1  C   UNL     1      -4.798  -8.439  -0.545  0.00  0.00    +0.100 C 
ATOM      2  C   UNL     1      -4.261  -8.805  -1.947  0.00  0.00    +0.121 C 
ATOM      3  N   UNL     1      -4.984 -10.046  -2.312  0.00  0.00    -0.299 N 
ATOM      4  C   UNL     1      -6.364  -9.829  -1.814  0.00  0.00    +0.115 C 
ATOM      5  C   UNL     1      -6.178  -9.112  -0.462  0.00  0.00    -0.004 C 
ATOM      6  C   UNL     1      -7.267  -8.062  -0.268  0.00  0.00    -0.010 C 
ATOM      7  C   UNL     1      -8.623  -8.759  -0.130  0.00  0.00    -0.082 C 
ATOM      8  N   UNL     1      -8.590  -9.676   1.016  0.00  0.00    +0.379 N 
ATOM      9  C   UNL     1      -7.604 -10.737   0.780  0.00  0.00    -0.082 C 
ATOM     10  C   UNL     1      -6.204 -10.124   0.680  0.00  0.00    -0.010 C 
ATOM     11  C   UNL     1      -4.498 -11.127  -2.953  0.00  0.00    +0.236 C 
ATOM     12  O   UNL     1      -5.221 -12.073  -3.182  0.00  0.00    -0.274 OA
ATOM     13  H   UNL     1      -8.337  -9.164   1.848  0.00  0.00    -0.086 HD
ATOM     14  H   UNL     1      -9.502 -10.088   1.143  0.00  0.00    -0.086 HD
ENDROOT
BRANCH  11  15
ATOM     15  C   UNL     1      -3.054 -11.161  -3.384  0.00  0.00    +0.162 C 
ATOM     16  C   UNL     1      -2.880 -10.369  -4.697  0.00  0.00    +0.033 C 
ATOM     17  C   UNL     1      -1.847 -11.221  -5.482  0.00  0.00    +0.021 C 
ATOM     18  C   UNL     1      -2.252 -12.658  -5.070  0.00  0.00    +0.109 C 
ATOM     19  N   UNL     1      -2.644 -12.548  -3.650  0.00  0.00    -0.283 N 
ATOM     20  C   UNL     1      -2.629 -13.549  -2.747  0.00  0.00    +0.320 C 
ATOM     21  O   UNL     1      -2.975 -13.340  -1.604  0.00  0.00    -0.266 OA
BRANCH  20  22
ATOM     22  C   UNL     1      -2.184 -14.928  -3.159  0.00  0.00    +0.470 C 
ATOM     23  F   UNL     1      -2.254 -15.790  -2.059  0.00  0.00    -0.162 F 
ATOM     24  F   UNL     1      -3.018 -15.403  -4.178  0.00  0.00    -0.162 F 
ATOM     25  F   UNL     1      -0.865 -14.873  -3.624  0.00  0.00    -0.162 F 
ENDBRANCH  20  22
ENDBRANCH  11  15
BRANCH   1  27
ATOM     26  N   UNL     1      -4.818  -6.365   0.803  0.00  0.00    -0.315 N 
ATOM     27  C   UNL     1      -4.934  -6.944  -0.409  0.00  0.00    +0.218 C 
ATOM     28  O   UNL     1      -5.148  -6.263  -1.389  0.00  0.00    -0.275 OA
ATOM     29  H   UNL     1      -4.646  -6.910   1.587  0.00  0.00    +0.149 HD
BRANCH  26  30
ATOM     30  C   UNL     1      -4.950  -4.912   0.935  0.00  0.00    +0.106 C 
BRANCH  30  31
ATOM     31  C   UNL     1      -4.777  -4.516   2.403  0.00  0.00    +0.047 C 
BRANCH  31  32
ATOM     32  C   UNL     1      -4.916  -2.998   2.541  0.00  0.00    +0.161 C 
BRANCH  32  33
ATOM     33  O   UNL     1      -4.755  -2.628   3.912  0.00  0.00    -0.379 OA
BRANCH  33  34
ATOM     34  C   UNL     1      -4.866  -1.224   4.152  0.00  0.00    +0.162 C 
BRANCH  34  36
ATOM     35  C   UNL     1      -4.673   0.566   5.884  0.00  0.00    +0.009 C 
ATOM     36  C   UNL     1      -4.678  -0.945   5.644  0.00  0.00    +0.009 C 
ATOM     37  C   UNL     1      -5.825  -1.582   6.431  0.00  0.00    +0.009 C 
ENDBRANCH  34  36
ENDBRANCH  33  34
ENDBRANCH  32  33
ENDBRANCH  31  32
ENDBRANCH  30  31
ENDBRANCH  26  30
ENDBRANCH   1  27
TORSDOF 9
