REMARK  Name = ZINC39738270
REMARK  11 active torsions:
REMARK  status: ('A' for Active; 'I' for Inactive)
REMARK    1  A    between atoms: C_1  and  C_2
REMARK    2  A    between atoms: C_2  and  O_3
REMARK    3  A    between atoms: O_3  and  C_4
REMARK    4  A    between atoms: C_4  and  C_6
REMARK    5  A    between atoms: C_8  and  C_38
REMARK    6  A    between atoms: C_10  and  C_29
REMARK    7  A    between atoms: C_11  and  N_12
REMARK    8  A    between atoms: N_13  and  C_15
REMARK    9  A    between atoms: C_18  and  C_21
REMARK   10  A    between atoms: C_24  and  O_27
REMARK   11  A    between atoms: O_27  and  C_28
REMARK                            x       y       z     vdW  Elec       q    Type
REMARK                         _______ _______ _______ _____ _____    ______ ____
ROOT
ATOM      1  C   UNL     1      -2.866  -2.480  -0.061  0.00  0.00    +0.188 C 
ATOM      2  C   UNL     1      -3.543  -2.257   1.295  0.00  0.00    +0.051 C 
ATOM      3  C   UNL     1      -4.767  -3.130   1.393  0.00  0.00    +0.025 C 
ATOM      4  C   UNL     1      -4.928  -4.185   0.583  0.00  0.00    +0.090 C 
ATOM      5  N   UNL     1      -3.981  -4.500  -0.364  0.00  0.00    -0.225 N 
ATOM      6  N   UNL     1      -2.738  -3.929  -0.294  0.00  0.00    -0.223 NA
ATOM      7  C   UNL     1      -2.568  -2.618   2.418  0.00  0.00    +0.015 C 
ATOM      8  H   UNL     1      -2.183  -4.364   0.427  0.00  0.00    +0.145 HD
ENDROOT
BRANCH   3   9
ATOM      9  C   UNL     1      -5.797  -2.821   2.388  0.00  0.00    +0.109 A 
ATOM     10  N   UNL     1      -6.976  -3.387   2.564  0.00  0.00    -0.239 NA
ATOM     11  C   UNL     1      -7.828  -2.995   3.531  0.00  0.00    +0.079 A 
ATOM     12  C   UNL     1      -9.112  -3.512   3.826  0.00  0.00    +0.029 A 
ATOM     13  C   UNL     1      -9.857  -2.994   4.852  0.00  0.00    +0.002 A 
ATOM     14  C   UNL     1      -9.385  -1.952   5.637  0.00  0.00    +0.001 A 
ATOM     15  C   UNL     1      -8.134  -1.421   5.378  0.00  0.00    +0.017 A 
ATOM     16  C   UNL     1      -7.380  -1.933   4.351  0.00  0.00    +0.040 A 
ATOM     17  S   UNL     1      -5.773  -1.585   3.679  0.00  0.00    -0.067 S 
ENDBRANCH   3   9
BRANCH   5  18
ATOM     18  C   UNL     1      -4.299  -5.437  -1.444  0.00  0.00    +0.256 C 
ATOM     19  C   UNL     1      -3.856  -4.881  -2.785  0.00  0.00    +0.052 C 
ATOM     20  C   UNL     1      -5.002  -4.774  -3.485  0.00  0.00    +0.093 C 
ATOM     21  N   UNL     1      -6.056  -5.191  -2.736  0.00  0.00    -0.152 NA
ATOM     22  N   UNL     1      -5.757  -5.575  -1.599  0.00  0.00    -0.159 NA
BRANCH  20  23
ATOM     23  C   UNL     1      -5.099  -4.271  -4.877  0.00  0.00    +0.002 A 
ATOM     24  C   UNL     1      -3.950  -3.872  -5.558  0.00  0.00    +0.013 A 
ATOM     25  C   UNL     1      -4.044  -3.406  -6.852  0.00  0.00    +0.046 A 
ATOM     26  C   UNL     1      -5.281  -3.332  -7.477  0.00  0.00    +0.120 A 
ATOM     27  C   UNL     1      -6.428  -3.728  -6.802  0.00  0.00    +0.046 A 
ATOM     28  C   UNL     1      -6.340  -4.201  -5.509  0.00  0.00    +0.013 A 
BRANCH  26  29
ATOM     29  O   UNL     1      -5.371  -2.871  -8.752  0.00  0.00    -0.495 OA
ATOM     30  C   UNL     1      -6.675  -2.822  -9.334  0.00  0.00    +0.277 C 
ENDBRANCH  26  29
ENDBRANCH  20  23
ENDBRANCH   5  18
BRANCH   4  31
ATOM     31  N   UNL     1      -6.074  -4.978   0.702  0.00  0.00    -0.404 NA
ATOM     32  H   UNL     1      -6.824  -4.567   0.165  0.00  0.00    +0.122 HD
ATOM     33  H   UNL     1      -5.880  -5.904   0.353  0.00  0.00    +0.122 HD
ATOM     34  H   UNL     1      -6.346  -5.033   1.672  0.00  0.00    +0.122 HD
ENDBRANCH   4  31
BRANCH   1  35
ATOM     35  C   UNL     1      -1.499  -1.846  -0.053  0.00  0.00    +0.326 C 
ATOM     36  O   UNL     1      -0.518  -2.527   0.132  0.00  0.00    -0.249 OA
BRANCH  35  37
ATOM     37  O   UNL     1      -1.371  -0.525  -0.253  0.00  0.00    -0.464 OA
BRANCH  37  39
ATOM     38  C   UNL     1      -0.099   1.517  -0.477  0.00  0.00    +0.048 C 
ATOM     39  C   UNL     1      -0.045   0.008  -0.233  0.00  0.00    +0.229 C 
ENDBRANCH  37  39
ENDBRANCH  35  37
ENDBRANCH   1  35
TORSDOF 8
