REMARK  Name = ZINC15003055
REMARK  11 active torsions:
REMARK  status: ('A' for Active; 'I' for Inactive)
REMARK    1  A    between atoms: C_1  and  N_75
REMARK    2  A    between atoms: C_5  and  C_8
REMARK    3  A    between atoms: C_13  and  C_16
REMARK    4  A    between atoms: C_16  and  C_27
REMARK    5  A    between atoms: N_19  and  C_23
REMARK    6  A    between atoms: C_23  and  C_24
REMARK    7  A    between atoms: C_24  and  N_77
REMARK    8  A    between atoms: C_25  and  N_77
REMARK    9  A    between atoms: C_26  and  N_77
REMARK   10  A    between atoms: C_27  and  C_28
REMARK   11  A    between atoms: C_28  and  C_29
REMARK                            x       y       z     vdW  Elec       q    Type
REMARK                         _______ _______ _______ _____ _____    ______ ____
ROOT
ATOM      1  C   UNL     1       0.537  -0.443   2.099  0.00  0.00    +0.116 C 
ATOM      2  C   UNL     1       0.681  -1.849   1.550  0.00  0.00    +0.247 C 
ATOM      3  O   UNL     1      -0.206  -2.649   1.346  0.00  0.00    -0.273 OA
ATOM      4  N   UNL     1       2.004  -2.019   1.336  0.00  0.00    -0.226 N 
ATOM      5  C   UNL     1       2.704  -0.930   1.673  0.00  0.00    +0.309 C 
ATOM      6  O   UNL     1       3.912  -0.845   1.571  0.00  0.00    -0.252 OA
ATOM      7  N   UNL     1       1.921   0.061   2.137  0.00  0.00    -0.285 N 
ATOM      8  H   UNL     1       2.211   0.936   2.438  0.00  0.00    +0.151 HD
ENDROOT
BRANCH   1  14
ATOM      9  C   UNL     1      -2.747   0.505  -2.148  0.00  0.00    +0.217 C 
ATOM     10  O   UNL     1      -2.265   0.631  -3.254  0.00  0.00    -0.275 OA
ATOM     11  N   UNL     1      -2.023   0.822  -1.057  0.00  0.00    -0.301 N 
ATOM     12  C   UNL     1      -0.612   1.213  -1.182  0.00  0.00    +0.108 C 
ATOM     13  C   UNL     1       0.229   0.327  -0.258  0.00  0.00    +0.025 C 
ATOM     14  C   UNL     1      -0.322   0.414   1.167  0.00  0.00    +0.024 C 
ATOM     15  C   UNL     1      -1.765  -0.097   1.189  0.00  0.00    +0.025 C 
ATOM     16  C   UNL     1      -2.629   0.785   0.281  0.00  0.00    +0.108 C 
BRANCH   9  21
ATOM     17  C   UNL     1      -7.430   1.783  -1.482  0.00  0.00    -0.096 C 
ATOM     18  C   UNL     1      -6.896  -0.082  -2.931  0.00  0.00    -0.079 C 
ATOM     19  C   UNL     1      -5.988  -1.303  -3.087  0.00  0.00    -0.018 C 
ATOM     20  C   UNL     1      -4.535  -0.838  -3.223  0.00  0.00    +0.009 C 
ATOM     21  C   UNL     1      -4.156  -0.006  -1.995  0.00  0.00    +0.059 C 
ATOM     22  C   UNL     1      -5.118   1.178  -1.871  0.00  0.00    -0.067 C 
ATOM     23  N   UNL     1      -6.496   0.663  -1.718  0.00  0.00    +0.378 N 
ATOM     24  H   UNL     1      -6.527   0.028  -0.912  0.00  0.00    -0.082 HD
ENDBRANCH   9  21
ENDBRANCH   1  14
BRANCH   4  25
ATOM     25  C   UNL     1       2.599  -3.248   0.804  0.00  0.00    +0.099 C 
BRANCH  25  26
ATOM     26  C   UNL     1       2.954  -4.185   1.959  0.00  0.00    -0.060 C 
BRANCH  26  29
ATOM     27  C   UNL     1       4.845  -5.141   0.788  0.00  0.00    -0.097 C 
ATOM     28  C   UNL     1       3.688  -6.434   2.476  0.00  0.00    -0.097 C 
ATOM     29  N   UNL     1       3.533  -5.427   1.405  0.00  0.00    +0.377 N 
ATOM     30  H   UNL     1       2.900  -5.798   0.687  0.00  0.00    -0.083 HD
ENDBRANCH  26  29
ENDBRANCH  25  26
ENDBRANCH   4  25
BRANCH   1  31
ATOM     31  C   UNL     1      -0.064  -0.473   3.506  0.00  0.00    +0.040 C 
BRANCH  31  32
ATOM     32  C   UNL     1       0.877  -1.230   4.446  0.00  0.00    +0.038 C 
BRANCH  32  33
ATOM     33  C   UNL     1       0.285  -1.260   5.832  0.00  0.00    -0.047 A 
ATOM     34  C   UNL     1       0.581  -0.253   6.731  0.00  0.00    +0.003 A 
ATOM     35  C   UNL     1       0.035  -0.278   8.001  0.00  0.00    +0.000 A 
ATOM     36  C   UNL     1      -0.800  -1.315   8.374  0.00  0.00    +0.000 A 
ATOM     37  C   UNL     1      -1.091  -2.325   7.476  0.00  0.00    +0.000 A 
ATOM     38  C   UNL     1      -0.549  -2.297   6.205  0.00  0.00    +0.003 A 
ENDBRANCH  32  33
ENDBRANCH  31  32
ENDBRANCH   1  31
TORSDOF 8
