REMARK  Name = ZINC59015118
REMARK  7 active torsions:
REMARK  status: ('A' for Active; 'I' for Inactive)
REMARK    1  A    between atoms: C_1  and  C_2
REMARK    2  A    between atoms: C_7  and  N_8
REMARK    3  A    between atoms: C_9  and  C_11
REMARK    4  A    between atoms: C_11  and  S_12
REMARK    5  A    between atoms: S_12  and  C_13
REMARK    6  A    between atoms: N_18  and  N_19
REMARK    7  A    between atoms: C_20  and  C_21
REMARK                            x       y       z     vdW  Elec       q    Type
REMARK                         _______ _______ _______ _____ _____    ______ ____
ROOT
ATOM      1  C   UNL     1      -0.382  -0.116   7.687  0.00  0.00    +0.211 A 
ATOM      2  N   UNL     1      -0.469  -0.557   8.946  0.00  0.00    -0.186 NA
ATOM      3  C   UNL     1      -0.548   0.466   9.770  0.00  0.00    +0.232 A 
ATOM      4  N   UNL     1      -0.512   1.597   9.034  0.00  0.00    -0.245 N 
ATOM      5  N   UNL     1      -0.399   1.196   7.693  0.00  0.00    -0.144 NA
ATOM      6  N   UNL     1      -0.650   0.396  11.147  0.00  0.00    -0.205 N 
ATOM      7  H   UNL     1      -0.703   1.210  11.672  0.00  0.00    +0.177 HD
ATOM      8  H   UNL     1      -0.552   2.508   9.366  0.00  0.00    +0.192 HD
ENDROOT
BRANCH   6   9
ATOM      9  N   UNL     1      -0.676  -0.852  11.785  0.00  0.00    -0.188 NA
ATOM     10  C   UNL     1      -0.772  -0.918  13.078  0.00  0.00    +0.139 C 
BRANCH  10  11
ATOM     11  C   UNL     1      -0.799  -2.231  13.749  0.00  0.00    +0.013 A 
ATOM     12  C   UNL     1      -0.908  -2.306  15.139  0.00  0.00    +0.011 A 
ATOM     13  C   UNL     1      -0.933  -3.537  15.760  0.00  0.00    +0.001 A 
ATOM     14  C   UNL     1      -0.851  -4.697  15.009  0.00  0.00    +0.001 A 
ATOM     15  C   UNL     1      -0.742  -4.631  13.632  0.00  0.00    +0.020 A 
ATOM     16  C   UNL     1      -0.723  -3.406  12.996  0.00  0.00    +0.050 A 
ATOM     17 CL   UNL     1      -0.595  -3.325  11.266  0.00  0.00    -0.083 Cl
ENDBRANCH  10  11
ENDBRANCH   6   9
BRANCH   1  18
ATOM     18  S   UNL     1      -0.258  -1.132   6.253  0.00  0.00    -0.075 S 
BRANCH  18  19
ATOM     19  C   UNL     1      -0.167   0.054   4.882  0.00  0.00    +0.173 C 
BRANCH  19  21
ATOM     20  N   UNL     1       0.026  -0.014   2.417  0.00  0.00    -0.285 N 
ATOM     21  C   UNL     1      -0.056  -0.694   3.578  0.00  0.00    +0.227 C 
ATOM     22  O   UNL     1      -0.040  -1.906   3.574  0.00  0.00    -0.275 OA
ATOM     23  H   UNL     1       0.079   0.955   2.425  0.00  0.00    +0.155 HD
BRANCH  20  30
ATOM     24  C   UNL     1      -1.265   1.183   0.182  0.00  0.00    +0.046 C 
ATOM     25  C   UNL     1      -0.584  -0.158   0.085  0.00  0.00    -0.028 A 
ATOM     26  C   UNL     1      -0.570  -0.840  -1.116  0.00  0.00    +0.020 A 
ATOM     27  C   UNL     1       0.055  -2.071  -1.206  0.00  0.00    +0.018 A 
ATOM     28  C   UNL     1       0.666  -2.623  -0.094  0.00  0.00    +0.017 A 
ATOM     29  C   UNL     1       0.655  -1.945   1.109  0.00  0.00    +0.024 A 
ATOM     30  C   UNL     1       0.034  -0.706   1.201  0.00  0.00    +0.036 A 
ATOM     31 BR   UNL     1       0.072  -3.002  -2.852  0.00  0.00    -0.050 Br
ENDBRANCH  20  30
ENDBRANCH  19  21
ENDBRANCH  18  19
ENDBRANCH   1  18
TORSDOF 6
