REMARK  Name = ZINC57275665
REMARK  7 active torsions:
REMARK  status: ('A' for Active; 'I' for Inactive)
REMARK    1  A    between atoms: C_3  and  C_6
REMARK    2  A    between atoms: C_6  and  C_8
REMARK    3  A    between atoms: C_6  and  N_26
REMARK    4  A    between atoms: C_8  and  C_9
REMARK    5  A    between atoms: N_11  and  C_12
REMARK    6  A    between atoms: C_12  and  C_13
REMARK    7  A    between atoms: N_17  and  C_19
REMARK                            x       y       z     vdW  Elec       q    Type
REMARK                         _______ _______ _______ _____ _____    ______ ____
ROOT
ATOM      1  C   UNL     1       5.712   2.397   1.403  0.00  0.00    +0.215 C 
ATOM      2  O   UNL     1       6.181   2.852   0.382  0.00  0.00    -0.276 OA
ATOM      3  N   UNL     1       6.418   2.448   2.550  0.00  0.00    -0.315 N 
ATOM      4  H   UNL     1       6.042   2.084   3.367  0.00  0.00    +0.149 HD
ENDROOT
BRANCH   1   5
ATOM      5  C   UNL     1       4.339   1.775   1.390  0.00  0.00    +0.123 C 
BRANCH   5   6
ATOM      6  C   UNL     1       3.761   1.845  -0.024  0.00  0.00    +0.120 C 
BRANCH   6   7
ATOM      7  N   UNL     1       4.569   1.019  -0.924  0.00  0.00    -0.292 N 
ATOM      8  C   UNL     1       4.598   1.290  -2.244  0.00  0.00    +0.298 C 
ATOM      9  O   UNL     1       3.953   2.221  -2.688  0.00  0.00    -0.253 OA
ATOM     10  N   UNL     1       5.342   0.530  -3.072  0.00  0.00    -0.313 N 
ATOM     11  H   UNL     1       5.084   0.277  -0.570  0.00  0.00    +0.151 HD
ATOM     12  H   UNL     1       5.857  -0.212  -2.718  0.00  0.00    +0.146 HD
ATOM     13  H   UNL     1       5.363   0.726  -4.022  0.00  0.00    +0.146 HD
ENDBRANCH   6   7
BRANCH   6  16
ATOM     14  C   UNL     1      -0.016   1.351   0.009  0.00  0.00    +0.008 A 
ATOM     15  C   UNL     1       1.183   2.038   0.002  0.00  0.00    +0.013 A 
ATOM     16  C   UNL     1       2.343   1.336  -0.013  0.00  0.00    +0.010 A 
ATOM     17  S   UNL     1       1.754  -0.349  -0.017  0.00  0.00    -0.100 S 
ATOM     18  C   UNL     1       0.002  -0.004   0.002  0.00  0.00    +0.045 A 
ENDBRANCH   6  16
ENDBRANCH   5   6
ENDBRANCH   1   5
BRANCH   3  19
ATOM     19  C   UNL     1       7.752   3.053   2.563  0.00  0.00    +0.109 C 
BRANCH  19  20
ATOM     20  C   UNL     1       8.330   2.983   3.978  0.00  0.00    +0.025 C 
ATOM     21  C   UNL     1       8.651   1.515   4.367  0.00  0.00    +0.025 C 
ATOM     22  C   UNL     1       9.776   1.710   5.414  0.00  0.00    +0.105 C 
ATOM     23  N   UNL     1      10.567   2.848   4.911  0.00  0.00    -0.330 N 
ATOM     24  C   UNL     1       9.711   3.670   4.038  0.00  0.00    +0.110 C 
BRANCH  23  25
ATOM     25  C   UNL     1      11.907   3.107   5.215  0.00  0.00    +0.030 A 
ATOM     26  C   UNL     1      12.539   4.221   4.678  0.00  0.00    +0.026 A 
ATOM     27  C   UNL     1      13.862   4.475   4.981  0.00  0.00    +0.040 A 
ATOM     28  C   UNL     1      14.559   3.619   5.817  0.00  0.00    +0.124 A 
ATOM     29  C   UNL     1      13.931   2.508   6.353  0.00  0.00    +0.040 A 
ATOM     30  C   UNL     1      12.606   2.253   6.058  0.00  0.00    +0.026 A 
ATOM     31  F   UNL     1      15.854   3.870   6.111  0.00  0.00    -0.205 F 
ENDBRANCH  23  25
ENDBRANCH  19  20
ENDBRANCH   3  19
TORSDOF 7
