REMARK  Name = ZINC20102100
REMARK  11 active torsions:
REMARK  status: ('A' for Active; 'I' for Inactive)
REMARK    1  A    between atoms: C_1  and  C_2
REMARK    2  A    between atoms: C_2  and  O_3
REMARK    3  A    between atoms: O_3  and  C_4
REMARK    4  A    between atoms: C_4  and  C_6
REMARK    5  A    between atoms: C_6  and  S_7
REMARK    6  A    between atoms: S_7  and  C_8
REMARK    7  A    between atoms: C_12  and  C_25
REMARK    8  A    between atoms: N_18  and  C_19
REMARK    9  A    between atoms: C_33  and  O_35
REMARK   10  A    between atoms: O_35  and  C_36
REMARK   11  A    between atoms: C_36  and  C_37
REMARK                            x       y       z     vdW  Elec       q    Type
REMARK                         _______ _______ _______ _____ _____    ______ ____
ROOT
ATOM      1  C   UNL     1      -3.478   0.398   7.732  0.00  0.00    +0.173 A 
ATOM      2  N   UNL     1      -2.950  -0.051   6.621  0.00  0.00    -0.223 NA
ATOM      3  C   UNL     1      -2.613   0.783   5.609  0.00  0.00    +0.080 A 
ATOM      4  C   UNL     1      -2.049   0.302   4.424  0.00  0.00    +0.041 A 
ATOM      5  C   UNL     1      -1.720   1.196   3.413  0.00  0.00    +0.039 A 
ATOM      6  C   UNL     1      -1.945   2.568   3.577  0.00  0.00    +0.014 A 
ATOM      7  C   UNL     1      -2.500   3.049   4.727  0.00  0.00    +0.016 A 
ATOM      8  C   UNL     1      -2.838   2.170   5.756  0.00  0.00    +0.065 A 
ATOM      9  C   UNL     1      -3.433   2.646   7.015  0.00  0.00    +0.263 A 
ATOM     10  O   UNL     1      -3.651   3.829   7.202  0.00  0.00    -0.267 OA
ATOM     11  N   UNL     1      -3.729   1.721   7.957  0.00  0.00    -0.284 N 
ENDROOT
BRANCH   5  12
ATOM     12  C   UNL     1      -1.121   0.694   2.155  0.00  0.00    +0.247 C 
ATOM     13  O   UNL     1      -0.326  -0.225   2.184  0.00  0.00    -0.270 OA
ATOM     14  N   UNL     1      -1.458   1.256   0.977  0.00  0.00    -0.295 N 
ATOM     15  C   UNL     1      -0.781   0.855  -0.264  0.00  0.00    +0.127 C 
ATOM     16  C   UNL     1      -1.839   0.406  -1.280  0.00  0.00    +0.130 C 
ATOM     17  N   UNL     1      -2.890   1.430  -1.347  0.00  0.00    -0.264 N 
ATOM     18  C   UNL     1      -3.571   1.829  -0.106  0.00  0.00    +0.130 C 
ATOM     19  C   UNL     1      -2.513   2.277   0.910  0.00  0.00    +0.127 C 
ATOM     20  C   UNL     1      -3.225   1.994  -2.524  0.00  0.00    +0.403 C 
ATOM     21  O   UNL     1      -2.655   1.657  -3.543  0.00  0.00    -0.226 OA
BRANCH  20  22
ATOM     22  O   UNL     1      -4.190   2.931  -2.572  0.00  0.00    -0.451 OA
BRANCH  22  23
ATOM     23  C   UNL     1      -4.498   3.496  -3.874  0.00  0.00    +0.230 C 
ATOM     24  C   UNL     1      -5.611   4.535  -3.729  0.00  0.00    +0.048 C 
ENDBRANCH  22  23
ENDBRANCH  20  22
ENDBRANCH   5  12
BRANCH  11  25
ATOM     25  C   UNL     1      -4.323   2.143   9.228  0.00  0.00    +0.093 C 
ATOM     26  C   UNL     1      -5.657   2.842   8.960  0.00  0.00    +0.025 C 
ATOM     27  C   UNL     1      -6.278   3.283  10.287  0.00  0.00    +0.002 C 
ATOM     28  C   UNL     1      -5.329   4.250  10.998  0.00  0.00    +0.000 C 
ATOM     29  C   UNL     1      -3.995   3.550  11.266  0.00  0.00    +0.002 C 
ATOM     30  C   UNL     1      -3.374   3.110   9.938  0.00  0.00    +0.025 C 
ENDBRANCH  11  25
BRANCH   1  31
ATOM     31  S   UNL     1      -3.885  -0.760   8.997  0.00  0.00    -0.076 S 
BRANCH  31  32
ATOM     32  C   UNL     1      -3.362  -2.297   8.195  0.00  0.00    +0.197 C 
BRANCH  32  33
ATOM     33  C   UNL     1      -3.622  -3.459   9.119  0.00  0.00    +0.317 C 
ATOM     34  O   UNL     1      -4.110  -3.268  10.208  0.00  0.00    -0.250 OA
BRANCH  33  35
ATOM     35  O   UNL     1      -3.311  -4.706   8.733  0.00  0.00    -0.464 OA
BRANCH  35  37
ATOM     36  C   UNL     1      -3.170  -7.115   9.062  0.00  0.00    +0.048 C 
ATOM     37  C   UNL     1      -3.589  -5.776   9.674  0.00  0.00    +0.229 C 
ENDBRANCH  35  37
ENDBRANCH  33  35
ENDBRANCH  32  33
ENDBRANCH  31  32
ENDBRANCH   1  31
TORSDOF 9
