REMARK  Name = ZINC00993993
REMARK  5 active torsions:
REMARK  status: ('A' for Active; 'I' for Inactive)
REMARK    1  A    between atoms: C_1  and  O_2
REMARK    2  A    between atoms: O_2  and  C_3
REMARK    3  A    between atoms: C_5  and  C_11
REMARK    4  A    between atoms: C_8  and  O_9
REMARK    5  A    between atoms: N_16  and  C_19
REMARK                            x       y       z     vdW  Elec       q    Type
REMARK                         _______ _______ _______ _____ _____    ______ ____
ROOT
ATOM      1  C   UNL     1       5.071   3.308  -0.033  0.00  0.00    +0.026 C 
ATOM      2  C   UNL     1       5.727   3.508  -1.229  0.00  0.00    +0.102 C 
ATOM      3  C   UNL     1       5.208   3.264  -2.589  0.00  0.00    +0.266 C 
ATOM      4  O   UNL     1       4.104   2.842  -2.879  0.00  0.00    -0.268 OA
ATOM      5  N   UNL     1       6.190   3.598  -3.448  0.00  0.00    -0.223 N 
ATOM      6  N   UNL     1       7.316   4.044  -2.756  0.00  0.00    -0.184 N 
ATOM      7  C   UNL     1       7.097   4.019  -1.427  0.00  0.00    +0.272 C 
ATOM      8  O   UNL     1       7.880   4.350  -0.557  0.00  0.00    -0.268 OA
ATOM      9  H   UNL     1       6.124   3.537  -4.413  0.00  0.00    +0.174 HD
ENDROOT
BRANCH   1  12
ATOM     10  C   UNL     1       1.547   2.416   0.876  0.00  0.00    +0.163 A 
ATOM     11  C   UNL     1       2.769   3.057   0.867  0.00  0.00    +0.057 A 
ATOM     12  C   UNL     1       3.774   2.629  -0.013  0.00  0.00    -0.019 A 
ATOM     13  C   UNL     1       3.533   1.549  -0.875  0.00  0.00    +0.027 A 
ATOM     14  C   UNL     1       2.312   0.913  -0.854  0.00  0.00    +0.063 A 
ATOM     15  C   UNL     1       1.317   1.339   0.019  0.00  0.00    +0.173 A 
ATOM     16 BR   UNL     1       1.987  -0.542  -2.017  0.00  0.00    -0.046 Br
BRANCH  10  18
ATOM     17  C   UNL     1       0.873   3.939   2.573  0.00  0.00    +0.277 C 
ATOM     18  O   UNL     1       0.569   2.831   1.724  0.00  0.00    -0.491 OA
ENDBRANCH  10  18
BRANCH  15  19
ATOM     19  O   UNL     1       0.115   0.707   0.035  0.00  0.00    -0.503 OA
ATOM     20  H   UNL     1       0.069  -0.034   0.655  0.00  0.00    +0.292 HD
ENDBRANCH  15  19
ENDBRANCH   1  12
BRANCH   6  21
ATOM     21  C   UNL     1       8.506   4.465  -3.359  0.00  0.00    +0.056 A 
ATOM     22  C   UNL     1       9.568   4.897  -2.575  0.00  0.00    +0.026 A 
ATOM     23  C   UNL     1      10.743   5.309  -3.172  0.00  0.00    +0.017 A 
ATOM     24  C   UNL     1      10.859   5.301  -4.551  0.00  0.00    +0.018 A 
ATOM     25  C   UNL     1       9.801   4.876  -5.335  0.00  0.00    +0.017 A 
ATOM     26  C   UNL     1       8.625   4.458  -4.742  0.00  0.00    +0.026 A 
ATOM     27 BR   UNL     1      12.467   5.871  -5.366  0.00  0.00    -0.050 Br
ENDBRANCH   6  21
TORSDOF 4
