REMARK  Name = ZINC39688376
REMARK  6 active torsions:
REMARK  status: ('A' for Active; 'I' for Inactive)
REMARK    1  A    between atoms: C_1  and  C_2
REMARK    2  A    between atoms: C_2  and  C_4
REMARK    3  A    between atoms: C_2  and  N_12
REMARK    4  A    between atoms: C_4  and  C_5
REMARK    5  A    between atoms: C_13  and  C_15
REMARK    6  A    between atoms: C_26  and  C_28
REMARK                            x       y       z     vdW  Elec       q    Type
REMARK                         _______ _______ _______ _____ _____    ______ ____
ROOT
ATOM      1  C   UNL     1      -4.048  -1.424  -0.874  0.00  0.00    +0.100 C 
ATOM      2  C   UNL     1      -4.680  -0.289  -0.037  0.00  0.00    +0.121 C 
ATOM      3  N   UNL     1      -5.233   0.652  -1.040  0.00  0.00    -0.296 N 
ATOM      4  C   UNL     1      -5.798  -0.224  -2.095  0.00  0.00    +0.115 C 
ATOM      5  C   UNL     1      -4.787  -1.380  -2.222  0.00  0.00    -0.004 C 
ATOM      6  C   UNL     1      -5.518  -2.697  -2.467  0.00  0.00    -0.010 C 
ATOM      7  C   UNL     1      -6.196  -2.651  -3.839  0.00  0.00    -0.082 C 
ATOM      8  N   UNL     1      -5.185  -2.428  -4.880  0.00  0.00    +0.379 N 
ATOM      9  C   UNL     1      -4.552  -1.117  -4.690  0.00  0.00    -0.082 C 
ATOM     10  C   UNL     1      -3.804  -1.099  -3.354  0.00  0.00    -0.010 C 
ATOM     11  C   UNL     1      -5.223   1.999  -1.002  0.00  0.00    +0.247 C 
ATOM     12  O   UNL     1      -4.609   2.578  -0.127  0.00  0.00    -0.270 OA
ATOM     13  H   UNL     1      -4.483  -3.150  -4.825  0.00  0.00    -0.086 HD
ATOM     14  H   UNL     1      -5.626  -2.459  -5.787  0.00  0.00    -0.086 HD
ENDROOT
BRANCH  11  15
ATOM     15  C   UNL     1      -5.960   2.772  -2.023  0.00  0.00    +0.038 A 
ATOM     16  C   UNL     1      -6.994   2.173  -2.745  0.00  0.00    +0.014 A 
ATOM     17  C   UNL     1      -7.678   2.899  -3.697  0.00  0.00    +0.022 A 
ATOM     18  C   UNL     1      -7.341   4.221  -3.938  0.00  0.00    +0.059 A 
ATOM     19  C   UNL     1      -6.316   4.822  -3.225  0.00  0.00    +0.060 A 
ATOM     20  C   UNL     1      -5.628   4.106  -2.266  0.00  0.00    +0.034 A 
ATOM     21 CL   UNL     1      -5.900   6.478  -3.535  0.00  0.00    -0.082 Cl
ATOM     22 CL   UNL     1      -8.206   5.128  -5.139  0.00  0.00    -0.082 Cl
ENDBRANCH  11  15
BRANCH   1  24
ATOM     23  N   UNL     1      -1.713  -2.206  -1.106  0.00  0.00    -0.312 N 
ATOM     24  C   UNL     1      -2.576  -1.171  -1.073  0.00  0.00    +0.218 C 
ATOM     25  O   UNL     1      -2.168  -0.037  -1.205  0.00  0.00    -0.275 OA
ATOM     26  H   UNL     1      -2.039  -3.113  -1.001  0.00  0.00    +0.149 HD
BRANCH  23  28
ATOM     27  C   UNL     1       0.370  -1.649   0.048  0.00  0.00    +0.028 C 
ATOM     28  C   UNL     1      -0.282  -1.960  -1.300  0.00  0.00    +0.074 C 
BRANCH  28  29
ATOM     29  C   UNL     1       0.372  -3.202  -1.908  0.00  0.00    +0.057 C 
BRANCH  29  30
ATOM     30  C   UNL     1      -0.183  -3.437  -3.289  0.00  0.00    -0.045 A 
ATOM     31  C   UNL     1      -1.308  -4.223  -3.457  0.00  0.00    +0.006 A 
ATOM     32  C   UNL     1      -1.819  -4.439  -4.723  0.00  0.00    +0.038 A 
ATOM     33  C   UNL     1      -1.203  -3.867  -5.824  0.00  0.00    +0.123 A 
ATOM     34  C   UNL     1      -0.076  -3.080  -5.655  0.00  0.00    +0.038 A 
ATOM     35  C   UNL     1       0.429  -2.862  -4.387  0.00  0.00    +0.006 A 
ATOM     36  F   UNL     1      -1.701  -4.078  -7.062  0.00  0.00    -0.205 F 
ENDBRANCH  29  30
ENDBRANCH  28  29
ENDBRANCH  23  28
ENDBRANCH   1  24
TORSDOF 5
