REMARK  Name = ZINC60331043
REMARK  4 active torsions:
REMARK  status: ('A' for Active; 'I' for Inactive)
REMARK    1  A    between atoms: C_1  and  C_2
REMARK    2  A    between atoms: N_5  and  C_21
REMARK    3  A    between atoms: C_6  and  N_7
REMARK    4  A    between atoms: C_8  and  C_10
REMARK                            x       y       z     vdW  Elec       q    Type
REMARK                         _______ _______ _______ _____ _____    ______ ____
ROOT
ATOM      1  C   UNL     1      -1.599   0.700   0.175  0.00  0.00    +0.049 C 
ATOM      2  C   UNL     1      -0.570  -0.397   0.082  0.00  0.00    +0.009 A 
ATOM      3  C   UNL     1      -0.080  -0.968  -1.096  0.00  0.00    +0.139 A 
ATOM      4  N   UNL     1       0.797  -1.884  -0.775  0.00  0.00    -0.177 NA
ATOM      5  N   UNL     1       0.898  -1.929   0.622  0.00  0.00    -0.243 N 
ATOM      6  C   UNL     1       0.053  -1.003   1.129  0.00  0.00    +0.127 A 
ENDROOT
BRANCH   5   7
ATOM      7  C   UNL     1       1.768  -2.818   1.395  0.00  0.00    +0.139 C 
ATOM      8  C   UNL     1       3.189  -2.740   0.841  0.00  0.00    +0.032 C 
ATOM      9  C   UNL     1       4.032  -3.829   1.514  0.00  0.00    +0.007 C 
ATOM     10  C   UNL     1       3.562  -5.188   0.998  0.00  0.00    +0.035 C 
ATOM     11  C   UNL     1       2.066  -5.316   1.130  0.00  0.00    -0.042 A 
ATOM     12  C   UNL     1       1.243  -4.227   1.307  0.00  0.00    -0.020 A 
ATOM     13  C   UNL     1      -0.129  -4.414   1.414  0.00  0.00    +0.006 A 
ATOM     14  C   UNL     1      -0.672  -5.681   1.346  0.00  0.00    +0.000 A 
ATOM     15  C   UNL     1       0.156  -6.774   1.171  0.00  0.00    +0.000 A 
ATOM     16  C   UNL     1       1.518  -6.590   1.064  0.00  0.00    +0.004 A 
ENDBRANCH   5   7
BRANCH   6  17
ATOM     17  N   UNL     1      -0.147  -0.722   2.481  0.00  0.00    -0.270 N 
ATOM     18  C   UNL     1      -0.326   0.551   2.886  0.00  0.00    +0.226 C 
ATOM     19  O   UNL     1      -0.206   1.461   2.093  0.00  0.00    -0.275 OA
ATOM     20  H   UNL     1      -0.157  -1.444   3.130  0.00  0.00    +0.156 HD
BRANCH  18  21
ATOM     21  C   UNL     1      -0.674   0.843   4.322  0.00  0.00    +0.105 C 
ATOM     22  C   UNL     1      -0.638   2.352   4.553  0.00  0.00    +0.018 C 
ATOM     23  C   UNL     1      -1.204   2.642   5.948  0.00  0.00    +0.006 C 
ATOM     24  C   UNL     1      -2.704   2.357   5.929  0.00  0.00    +0.035 C 
ATOM     25  C   UNL     1      -2.975   0.987   5.364  0.00  0.00    -0.043 A 
ATOM     26  C   UNL     1      -2.045   0.294   4.622  0.00  0.00    -0.032 A 
ATOM     27  C   UNL     1      -2.362  -0.963   4.124  0.00  0.00    +0.004 A 
ATOM     28  C   UNL     1      -3.599  -1.522   4.368  0.00  0.00    +0.000 A 
ATOM     29  C   UNL     1      -4.531  -0.828   5.115  0.00  0.00    +0.000 A 
ATOM     30  C   UNL     1      -4.219   0.420   5.610  0.00  0.00    +0.004 A 
ENDBRANCH  18  21
ENDBRANCH   6  17
TORSDOF 3
