REMARK  Name = ZINC49527054
REMARK  7 active torsions:
REMARK  status: ('A' for Active; 'I' for Inactive)
REMARK    1  A    between atoms: C_1  and  C_2
REMARK    2  A    between atoms: C_2  and  C_4
REMARK    3  A    between atoms: C_2  and  N_11
REMARK    4  A    between atoms: N_11  and  S_12
REMARK    5  A    between atoms: S_12  and  C_15
REMARK    6  A    between atoms: C_20  and  N_21
REMARK    7  A    between atoms: N_21  and  N_22
REMARK                            x       y       z     vdW  Elec       q    Type
REMARK                         _______ _______ _______ _____ _____    ______ ____
ROOT
ATOM      1  S   UNL     1       2.345  -0.733  -1.189  0.00  0.00    +0.061 S 
ATOM      2  O   UNL     1       2.841  -1.057  -2.481  0.00  0.00    -0.153 OA
ATOM      3  O   UNL     1       2.807   0.393  -0.456  0.00  0.00    -0.153 OA
ENDROOT
BRANCH   1   4
ATOM      4  C   UNL     1       2.626  -2.145  -0.173  0.00  0.00    +0.127 A 
ATOM      5  C   UNL     1       3.233  -2.001   1.059  0.00  0.00    +0.030 A 
ATOM      6  C   UNL     1       3.454  -3.108   1.856  0.00  0.00    +0.002 A 
ATOM      7  C   UNL     1       3.069  -4.364   1.424  0.00  0.00    +0.002 A 
ATOM      8  C   UNL     1       2.462  -4.516   0.193  0.00  0.00    +0.026 A 
ATOM      9  C   UNL     1       2.233  -3.404  -0.609  0.00  0.00    +0.067 A 
BRANCH   9  10
ATOM     10  N   UNL     1       1.614  -3.554  -1.852  0.00  0.00    -0.281 N 
ATOM     11  H   UNL     1       1.387  -2.771  -2.377  0.00  0.00    +0.166 HD
BRANCH  10  12
ATOM     12  N   UNL     1       1.330  -4.802  -2.328  0.00  0.00    -0.256 NA
ATOM     13  H   UNL     1       0.760  -5.317  -1.674  0.00  0.00    +0.140 HD
ATOM     14  H   UNL     1       0.886  -4.752  -3.233  0.00  0.00    +0.140 HD
ENDBRANCH  10  12
ENDBRANCH   9  10
ENDBRANCH   1   4
BRANCH   1  15
ATOM     15  N   UNL     1       0.705  -0.559  -1.342  0.00  0.00    -0.183 NA
ATOM     16  H   UNL     1       0.285  -0.661  -2.211  0.00  0.00    +0.149 HD
BRANCH  15  18
ATOM     17  C   UNL     1      -0.340   1.259  -0.085  0.00  0.00    +0.031 C 
ATOM     18  C   UNL     1      -0.112  -0.251  -0.165  0.00  0.00    +0.103 C 
BRANCH  18  19
ATOM     19  C   UNL     1      -1.439  -0.955  -0.277  0.00  0.00    -0.029 A 
ATOM     20  C   UNL     1      -2.082  -1.027  -1.499  0.00  0.00    +0.006 A 
ATOM     21  C   UNL     1      -3.300  -1.673  -1.602  0.00  0.00    +0.015 A 
ATOM     22  C   UNL     1      -3.875  -2.248  -0.483  0.00  0.00    +0.018 A 
ATOM     23  C   UNL     1      -3.231  -2.175   0.739  0.00  0.00    +0.015 A 
ATOM     24  C   UNL     1      -2.011  -1.534   0.840  0.00  0.00    +0.006 A 
ATOM     25 BR   UNL     1      -5.541  -3.131  -0.624  0.00  0.00    -0.050 Br
ENDBRANCH  18  19
ENDBRANCH  15  18
ENDBRANCH   1  15
TORSDOF 6
