REMARK  Name = ZINC26068819
REMARK  6 active torsions:
REMARK  status: ('A' for Active; 'I' for Inactive)
REMARK    1  A    between atoms: C_1  and  C_2
REMARK    2  A    between atoms: C_4  and  N_19
REMARK    3  A    between atoms: C_6  and  C_7
REMARK    4  A    between atoms: N_9  and  C_10
REMARK    5  A    between atoms: C_16  and  C_18
REMARK    6  A    between atoms: C_20  and  C_22
REMARK                            x       y       z     vdW  Elec       q    Type
REMARK                         _______ _______ _______ _____ _____    ______ ____
ROOT
ATOM      1  C   UNL     1      -8.491   2.780   0.053  0.00  0.00    +0.045 C 
ATOM      2  C   UNL     1      -7.197   2.007   0.044  0.00  0.00    -0.029 A 
ATOM      3  C   UNL     1      -5.986   2.646   0.042  0.00  0.00    +0.035 A 
ATOM      4  C   UNL     1      -4.835   1.887   0.033  0.00  0.00    +0.073 A 
ATOM      5  S   UNL     1      -5.437   0.261   0.020  0.00  0.00    -0.069 S 
ATOM      6  C   UNL     1      -7.184   0.620   0.036  0.00  0.00    +0.078 A 
ENDROOT
BRANCH   6   7
ATOM      7  C   UNL     1      -8.312  -0.309   0.035  0.00  0.00    +0.251 C 
ATOM      8  O   UNL     1      -9.453   0.118   0.042  0.00  0.00    -0.270 OA
ATOM      9  N   UNL     1      -8.091  -1.639   0.027  0.00  0.00    -0.308 N 
ATOM     10  H   UNL     1      -7.061  -2.025   0.021  0.00  0.00    +0.149 HD
BRANCH   9  11
ATOM     11  C   UNL     1      -9.222  -2.570   0.026  0.00  0.00    +0.076 C 
ATOM     12  C   UNL     1      -9.690  -2.805   1.464  0.00  0.00    +0.022 C 
ATOM     13  C   UNL     1      -8.542  -3.397   2.284  0.00  0.00    +0.002 C 
ATOM     14  C   UNL     1      -8.107  -4.727   1.665  0.00  0.00    +0.000 C 
ATOM     15  C   UNL     1      -7.639  -4.492   0.228  0.00  0.00    +0.005 C 
ATOM     16  C   UNL     1      -8.787  -3.900  -0.592  0.00  0.00    +0.006 C 
ATOM     17  C   UNL     1      -8.319  -3.665  -2.030  0.00  0.00    +0.009 C 
ENDBRANCH   9  11
ENDBRANCH   6   7
BRANCH   4  18
ATOM     18  N   UNL     1      -3.516   2.319   0.030  0.00  0.00    -0.273 N 
ATOM     19  C   UNL     1      -2.512   1.420   0.021  0.00  0.00    +0.284 C 
ATOM     20  O   UNL     1      -2.763   0.229   0.016  0.00  0.00    -0.266 OA
ATOM     21  H   UNL     1      -3.290   3.396   0.034  0.00  0.00    +0.156 HD
BRANCH  19  22
ATOM     22  C   UNL     1      -1.119   1.876   0.017  0.00  0.00    +0.189 A 
ATOM     23  C   UNL     1      -0.013   1.076   0.008  0.00  0.00    +0.054 A 
ATOM     24  C   UNL     1       1.102   1.929   0.002  0.00  0.00    +0.042 A 
ATOM     25  C   UNL     1       0.633   3.196   0.012  0.00  0.00    +0.196 A 
ATOM     26  O   UNL     1      -0.706   3.160   0.024  0.00  0.00    -0.458 OA
ENDBRANCH  19  22
ENDBRANCH   4  18
TORSDOF 4
