REMARK  Name = ZINC58138665
REMARK  6 active torsions:
REMARK  status: ('A' for Active; 'I' for Inactive)
REMARK    1  A    between atoms: C_1  and  C_2
REMARK    2  A    between atoms: C_2  and  C_3
REMARK    3  A    between atoms: C_8  and  N_9
REMARK    4  A    between atoms: C_12  and  C_17
REMARK    5  A    between atoms: C_17  and  N_18
REMARK    6  A    between atoms: C_22  and  C_24
REMARK                            x       y       z     vdW  Elec       q    Type
REMARK                         _______ _______ _______ _____ _____    ______ ____
ROOT
ATOM      1  N   UNL     1      -1.506  -0.315  -2.391  0.00  0.00    -0.283 N 
ATOM      2  C   UNL     1      -2.164  -0.547  -3.583  0.00  0.00    +0.224 A 
ATOM      3  N   UNL     1      -1.548  -0.315  -4.740  0.00  0.00    -0.198 NA
ATOM      4  C   UNL     1      -2.176  -0.536  -5.881  0.00  0.00    +0.150 A 
ATOM      5  N   UNL     1      -3.418  -0.988  -5.879  0.00  0.00    -0.198 NA
ATOM      6  C   UNL     1      -4.041  -1.222  -4.726  0.00  0.00    +0.217 A 
ATOM      7  N   UNL     1      -3.410  -1.006  -3.576  0.00  0.00    -0.181 NA
ATOM      8  N   UNL     1      -5.338  -1.694  -4.724  0.00  0.00    -0.327 N 
ATOM      9  H   UNL     1      -0.569  -0.065  -2.395  0.00  0.00    +0.155 HD
ATOM     10  H   UNL     1      -5.796  -1.856  -5.564  0.00  0.00    +0.145 HD
ATOM     11  H   UNL     1      -5.791  -1.865  -3.884  0.00  0.00    +0.145 HD
ENDROOT
BRANCH   1  17
ATOM     12  C   UNL     1      -1.509  -0.816  -0.029  0.00  0.00    -0.026 A 
ATOM     13  C   UNL     1      -2.188  -0.933   1.169  0.00  0.00    +0.005 A 
ATOM     14  C   UNL     1      -3.546  -0.681   1.222  0.00  0.00    +0.000 A 
ATOM     15  C   UNL     1      -4.230  -0.312   0.078  0.00  0.00    +0.002 A 
ATOM     16  C   UNL     1      -3.557  -0.193  -1.122  0.00  0.00    +0.023 A 
ATOM     17  C   UNL     1      -2.191  -0.440  -1.178  0.00  0.00    +0.037 A 
BRANCH  12  19
ATOM     18  C   UNL     1       0.740   0.224   0.065  0.00  0.00    +0.009 C 
ATOM     19  C   UNL     1      -0.028  -1.090  -0.086  0.00  0.00    +0.033 C 
ENDBRANCH  12  19
ENDBRANCH   1  17
BRANCH   4  20
ATOM     20  C   UNL     1      -1.475  -0.273  -7.189  0.00  0.00    +0.161 C 
BRANCH  20  21
ATOM     21  N   UNL     1      -0.773  -1.488  -7.622  0.00  0.00    -0.288 NA
ATOM     22  C   UNL     1      -1.733  -2.541  -8.019  0.00  0.00    +0.085 C 
ATOM     23  C   UNL     1      -1.808  -2.446  -9.563  0.00  0.00    +0.017 C 
ATOM     24  C   UNL     1      -0.338  -2.115  -9.929  0.00  0.00    +0.025 C 
ATOM     25  C   UNL     1       0.114  -1.207  -8.765  0.00  0.00    +0.087 C 
BRANCH  25  26
ATOM     26  C   UNL     1       1.541  -1.520  -8.396  0.00  0.00    -0.027 A 
ATOM     27  C   UNL     1       1.829  -2.643  -7.643  0.00  0.00    +0.009 A 
ATOM     28  C   UNL     1       3.136  -2.933  -7.301  0.00  0.00    +0.050 A 
ATOM     29  C   UNL     1       4.163  -2.097  -7.712  0.00  0.00    +0.162 A 
ATOM     30  C   UNL     1       3.875  -0.969  -8.471  0.00  0.00    +0.162 A 
ATOM     31  C   UNL     1       2.561  -0.686  -8.814  0.00  0.00    +0.054 A 
ATOM     32  O   UNL     1       4.868  -0.139  -8.891  0.00  0.00    -0.485 OA
ATOM     33  C   UNL     1       6.128  -0.252  -8.221  0.00  0.00    +0.270 C 
ATOM     34  C   UNL     1       6.481  -1.742  -8.109  0.00  0.00    +0.270 C 
ATOM     35  O   UNL     1       5.446  -2.393  -7.364  0.00  0.00    -0.485 OA
ENDBRANCH  25  26
ENDBRANCH  20  21
ENDBRANCH   4  20
TORSDOF 5
