REMARK  Name = ZINC54647106
REMARK  18 active torsions:
REMARK  status: ('A' for Active; 'I' for Inactive)
REMARK    1  A    between atoms: C_1  and  C_2
REMARK    2  A    between atoms: C_2  and  O_3
REMARK    3  A    between atoms: O_3  and  C_4
REMARK    4  A    between atoms: C_4  and  C_6
REMARK    5  A    between atoms: C_7  and  C_37
REMARK    6  A    between atoms: C_8  and  C_31
REMARK    7  A    between atoms: C_10  and  N_11
REMARK    8  A    between atoms: C_12  and  C_14
REMARK    9  A    between atoms: C_14  and  C_15
REMARK   10  A    between atoms: C_15  and  C_16
REMARK   11  A    between atoms: C_16  and  N_17
REMARK   12  A    between atoms: C_24  and  C_30
REMARK   13  A    between atoms: C_27  and  C_28
REMARK   14  A    between atoms: C_27  and  C_29
REMARK   15  A    between atoms: C_31  and  O_33
REMARK   16  A    between atoms: O_33  and  C_34
REMARK   17  A    between atoms: C_34  and  C_35
REMARK   18  A    between atoms: C_34  and  C_36
REMARK                            x       y       z     vdW  Elec       q    Type
REMARK                         _______ _______ _______ _____ _____    ______ ____
ROOT
ATOM      1  N   UNL     1       3.750  -2.426   1.391  0.00  0.00    -0.279 N 
ATOM      2  C   UNL     1       5.053  -2.736   1.538  0.00  0.00    +0.218 C 
ATOM      3  O   UNL     1       5.453  -3.193   2.588  0.00  0.00    -0.275 OA
ATOM      4  H   UNL     1       3.429  -2.061   0.552  0.00  0.00    +0.155 HD
ENDROOT
BRANCH   1   9
ATOM      5  C   UNL     1       1.498  -2.372   2.469  0.00  0.00    +0.091 A 
ATOM      6  C   UNL     1       0.816  -2.667   3.641  0.00  0.00    -0.014 A 
ATOM      7  C   UNL     1       1.564  -3.184   4.665  0.00  0.00    +0.102 A 
ATOM      8  S   UNL     1       3.201  -3.243   3.964  0.00  0.00    -0.066 S 
ATOM      9  C   UNL     1       2.870  -2.630   2.436  0.00  0.00    +0.087 A 
ATOM     10  C   UNL     1      -0.666  -2.432   3.780  0.00  0.00    +0.046 C 
BRANCH   5  11
ATOM     11  C   UNL     1       0.801  -1.814   1.304  0.00  0.00    +0.342 C 
ATOM     12  O   UNL     1       0.321  -2.556   0.470  0.00  0.00    -0.245 OA
BRANCH  11  13
ATOM     13  O   UNL     1       0.693  -0.477   1.160  0.00  0.00    -0.461 OA
BRANCH  13  15
ATOM     14  C   UNL     1      -0.019   1.526   0.010  0.00  0.00    +0.048 C 
ATOM     15  C   UNL     1       0.002  -0.004   0.002  0.00  0.00    +0.229 C 
ENDBRANCH  13  15
ENDBRANCH  11  13
ENDBRANCH   5  11
BRANCH   7  16
ATOM     16  C   UNL     1       1.129  -3.586   6.002  0.00  0.00    +0.346 C 
ATOM     17  O   UNL     1      -0.041  -3.475   6.320  0.00  0.00    -0.244 OA
BRANCH  16  18
ATOM     18  O   UNL     1       2.023  -4.078   6.884  0.00  0.00    -0.458 OA
BRANCH  18  19
ATOM     19  C   UNL     1       1.528  -4.451   8.171  0.00  0.00    +0.171 C 
ATOM     20  C   UNL     1       2.373  -5.597   8.731  0.00  0.00    +0.052 C 
ATOM     21  C   UNL     1       1.609  -3.250   9.116  0.00  0.00    +0.052 C 
ENDBRANCH  18  19
ENDBRANCH  16  18
ENDBRANCH   7  16
ENDBRANCH   1   9
BRANCH   2  22
ATOM     22  C   UNL     1       6.013  -2.514   0.398  0.00  0.00    +0.097 C 
BRANCH  22  23
ATOM     23  C   UNL     1       7.419  -2.944   0.824  0.00  0.00    +0.029 C 
BRANCH  23  24
ATOM     24  C   UNL     1       8.393  -2.719  -0.334  0.00  0.00    +0.117 C 
BRANCH  24  25
ATOM     25  N   UNL     1       9.739  -3.131   0.073  0.00  0.00    -0.241 N 
ATOM     26  C   UNL     1      10.549  -2.225   0.652  0.00  0.00    +0.225 C 
ATOM     27  O   UNL     1      10.150  -1.101   0.870  0.00  0.00    -0.275 OA
ATOM     28  C   UNL     1      11.965  -2.620   1.031  0.00  0.00    +0.082 C 
ATOM     29  C   UNL     1      11.862  -3.501   2.300  0.00  0.00    +0.014 C 
ATOM     30  C   UNL     1      11.576  -4.930   1.802  0.00  0.00    +0.017 C 
ATOM     31  C   UNL     1      11.521  -4.841   0.258  0.00  0.00    +0.051 C 
ATOM     32  C   UNL     1      10.122  -4.403  -0.139  0.00  0.00    +0.228 C 
ATOM     33  O   UNL     1       9.346  -5.202  -0.619  0.00  0.00    -0.275 OA
ATOM     34  C   UNL     1      12.443  -3.606  -0.072  0.00  0.00    -0.010 C 
ATOM     35  C   UNL     1      13.921  -3.959   0.106  0.00  0.00    +0.012 C 
ATOM     36  C   UNL     1      12.176  -3.043  -1.470  0.00  0.00    +0.012 C 
ATOM     37  C   UNL     1      11.951  -6.135  -0.435  0.00  0.00    +0.021 C 
ENDBRANCH  24  25
ENDBRANCH  23  24
ENDBRANCH  22  23
ENDBRANCH   2  22
TORSDOF 11
