REMARK  Name = ZINC09360383
REMARK  9 active torsions:
REMARK  status: ('A' for Active; 'I' for Inactive)
REMARK    1  A    between atoms: C_4  and  C_7
REMARK    2  A    between atoms: C_7  and  N_8
REMARK    3  A    between atoms: N_17  and  N_18
REMARK    4  A    between atoms: C_19  and  C_20
REMARK    5  A    between atoms: C_19  and  N_22
REMARK    6  A    between atoms: C_20  and  O_21
REMARK    7  A    between atoms: N_23  and  C_24
REMARK    8  A    between atoms: N_32  and  C_33
REMARK    9  A    between atoms: C_33  and  C_34
REMARK                            x       y       z     vdW  Elec       q    Type
REMARK                         _______ _______ _______ _____ _____    ______ ____
ROOT
ATOM      1  N   UNL     1      -1.150   1.980   0.019  0.00  0.00    -0.161 NA
ATOM      2  C   UNL     1      -0.014   1.335   0.013  0.00  0.00    +0.194 C 
ENDROOT
BRANCH   1  12
ATOM      3  N   UNL     1      -2.485   5.425  -0.035  0.00  0.00    -0.306 N 
ATOM      4  C   UNL     1      -3.829   5.716   0.123  0.00  0.00    +0.070 A 
ATOM      5  C   UNL     1      -4.562   6.893   0.140  0.00  0.00    +0.028 A 
ATOM      6  C   UNL     1      -5.928   6.848   0.330  0.00  0.00    +0.002 A 
ATOM      7  C   UNL     1      -6.574   5.633   0.503  0.00  0.00    +0.002 A 
ATOM      8  C   UNL     1      -5.862   4.454   0.489  0.00  0.00    +0.030 A 
ATOM      9  C   UNL     1      -4.478   4.482   0.298  0.00  0.00    +0.091 A 
ATOM     10  N   UNL     1      -3.526   3.517   0.236  0.00  0.00    -0.213 NA
ATOM     11  C   UNL     1      -2.354   4.067   0.037  0.00  0.00    +0.217 A 
ATOM     12  N   UNL     1      -1.163   3.378  -0.077  0.00  0.00    -0.205 N 
ATOM     13  H   UNL     1      -0.335   3.861  -0.224  0.00  0.00    +0.177 HD
BRANCH   3  14
ATOM     14  C   UNL     1      -1.405   6.392  -0.244  0.00  0.00    +0.160 C 
BRANCH  14  18
ATOM     15  C   UNL     1      -0.891   7.071  -4.430  0.00  0.00    +0.000 A 
ATOM     16  C   UNL     1      -1.768   7.857  -3.705  0.00  0.00    +0.000 A 
ATOM     17  C   UNL     1      -1.934   7.637  -2.350  0.00  0.00    +0.005 A 
ATOM     18  C   UNL     1      -1.224   6.632  -1.721  0.00  0.00    -0.028 A 
ATOM     19  C   UNL     1      -0.344   5.849  -2.445  0.00  0.00    +0.005 A 
ATOM     20  C   UNL     1      -0.181   6.066  -3.801  0.00  0.00    +0.000 A 
ENDBRANCH  14  18
ENDBRANCH   3  14
ENDBRANCH   1  12
BRANCH   2  21
ATOM     21  N   UNL     1      -0.005  -0.007  -0.002  0.00  0.00    -0.127 NA
ATOM     22  N   UNL     1      -1.117  -0.660  -0.003  0.00  0.00    -0.109 NA
BRANCH  22  23
ATOM     23  C   UNL     1      -1.107  -2.018  -0.018  0.00  0.00    +0.251 A 
ATOM     24  N   UNL     1      -0.028  -2.767  -0.036  0.00  0.00    -0.209 NA
ATOM     25  C   UNL     1      -0.377  -4.068  -0.044  0.00  0.00    +0.091 A 
ATOM     26  C   UNL     1       0.358  -5.260  -0.061  0.00  0.00    +0.030 A 
ATOM     27  C   UNL     1      -0.292  -6.460  -0.071  0.00  0.00    +0.002 A 
ATOM     28  C   UNL     1      -1.679  -6.516  -0.065  0.00  0.00    +0.002 A 
ATOM     29  C   UNL     1      -2.425  -5.356  -0.049  0.00  0.00    +0.028 A 
ATOM     30  C   UNL     1      -1.784  -4.125  -0.038  0.00  0.00    +0.071 A 
ATOM     31  N   UNL     1      -2.223  -2.816  -0.021  0.00  0.00    -0.303 N 
BRANCH  31  32
ATOM     32  C   UNL     1      -3.617  -2.366  -0.009  0.00  0.00    +0.160 C 
BRANCH  32  33
ATOM     33  C   UNL     1      -4.102  -2.195  -1.426  0.00  0.00    -0.028 A 
ATOM     34  C   UNL     1      -3.961  -0.976  -2.063  0.00  0.00    +0.005 A 
ATOM     35  C   UNL     1      -4.401  -0.821  -3.364  0.00  0.00    +0.000 A 
ATOM     36  C   UNL     1      -4.992  -1.882  -4.025  0.00  0.00    +0.000 A 
ATOM     37  C   UNL     1      -5.137  -3.099  -3.386  0.00  0.00    +0.000 A 
ATOM     38  C   UNL     1      -4.692  -3.256  -2.087  0.00  0.00    +0.005 A 
ENDBRANCH  32  33
ENDBRANCH  31  32
ENDBRANCH  22  23
ENDBRANCH   2  21
BRANCH   2  39
ATOM     39  C   UNL     1       1.285   2.098   0.015  0.00  0.00    +0.235 C 
BRANCH  39  40
ATOM     40  O   UNL     1       2.376   1.181   0.125  0.00  0.00    -0.387 OA
ATOM     41  H   UNL     1       3.245   1.604   0.133  0.00  0.00    +0.210 HD
ENDBRANCH  39  40
ENDBRANCH   2  39
TORSDOF 9
