REMARK  Name = ZINC39617546
REMARK  14 active torsions:
REMARK  status: ('A' for Active; 'I' for Inactive)
REMARK    1  A    between atoms: C_1  and  C_2
REMARK    2  A    between atoms: C_2  and  C_3
REMARK    3  A    between atoms: C_3  and  C_5
REMARK    4  A    between atoms: C_3  and  N_35
REMARK    5  A    between atoms: C_9  and  S_18
REMARK    6  A    between atoms: N_10  and  C_11
REMARK    7  A    between atoms: C_11  and  C_12
REMARK    8  A    between atoms: S_18  and  C_19
REMARK    9  A    between atoms: C_19  and  C_20
REMARK   10  A    between atoms: C_25  and  C_34
REMARK   11  A    between atoms: C_26  and  C_31
REMARK   12  A    between atoms: C_31  and  C_33
REMARK   13  A    between atoms: N_35  and  C_36
REMARK   14  A    between atoms: N_35  and  C_37
REMARK                            x       y       z     vdW  Elec       q    Type
REMARK                         _______ _______ _______ _____ _____    ______ ____
ROOT
ATOM      1  C   UNL     1      -1.206  -2.144   0.193  0.00  0.00    +0.164 C 
ATOM      2  N   UNL     1      -0.100  -2.661  -0.631  0.00  0.00    -0.248 N 
ATOM      3  N   UNL     1       0.875  -3.116   0.265  0.00  0.00    -0.163 NA
ATOM      4  C   UNL     1       0.507  -2.945   1.490  0.00  0.00    +0.176 C 
ATOM      5  N   UNL     1      -0.751  -2.359   1.577  0.00  0.00    -0.286 N 
ATOM      6  H   UNL     1      -0.055  -2.682  -1.600  0.00  0.00    +0.170 HD
ENDROOT
BRANCH   1   7
ATOM      7  C   UNL     1      -1.425  -0.654  -0.075  0.00  0.00    -0.029 C 
BRANCH   7   8
ATOM      8  N   UNL     1      -1.985  -0.475  -1.421  0.00  0.00    +0.380 N 
ATOM      9  C   UNL     1      -3.225  -1.254  -1.542  0.00  0.00    -0.096 C 
ATOM     10  C   UNL     1      -2.276   0.947  -1.645  0.00  0.00    -0.096 C 
ATOM     11  H   UNL     1      -1.319  -0.794  -2.108  0.00  0.00    -0.082 HD
ENDBRANCH   7   8
BRANCH   7  13
ATOM     12  C   UNL     1       0.385   0.094   1.478  0.00  0.00    +0.002 C 
ATOM     13  C   UNL     1      -0.087   0.083   0.023  0.00  0.00    -0.015 C 
ENDBRANCH   7  13
ENDBRANCH   1   7
BRANCH   5  14
ATOM     14  C   UNL     1      -1.480  -2.021   2.802  0.00  0.00    +0.144 C 
BRANCH  14  15
ATOM     15  C   UNL     1      -2.331  -3.193   3.219  0.00  0.00    -0.030 A 
ATOM     16  C   UNL     1      -3.626  -3.309   2.749  0.00  0.00    +0.005 A 
ATOM     17  C   UNL     1      -4.407  -4.384   3.132  0.00  0.00    +0.000 A 
ATOM     18  C   UNL     1      -3.892  -5.343   3.984  0.00  0.00    +0.000 A 
ATOM     19  C   UNL     1      -2.597  -5.227   4.454  0.00  0.00    +0.000 A 
ATOM     20  C   UNL     1      -1.815  -4.154   4.068  0.00  0.00    +0.005 A 
ENDBRANCH  14  15
ENDBRANCH   5  14
BRANCH   4  21
ATOM     21  S   UNL     1       1.481  -3.400   2.886  0.00  0.00    -0.081 S 
BRANCH  21  22
ATOM     22  C   UNL     1       2.987  -4.103   2.159  0.00  0.00    +0.150 C 
BRANCH  22  23
ATOM     23  C   UNL     1       3.920  -4.539   3.260  0.00  0.00    +0.134 C 
ATOM     24  N   UNL     1       3.538  -4.367   4.502  0.00  0.00    -0.160 NA
ATOM     25  C   UNL     1       4.293  -4.721   5.548  0.00  0.00    +0.271 C 
ATOM     26  O   UNL     1       3.906  -4.547   6.691  0.00  0.00    -0.268 OA
ATOM     27  C   UNL     1       5.629  -5.338   5.269  0.00  0.00    +0.071 C 
ATOM     28  C   UNL     1       6.546  -5.767   6.148  0.00  0.00    -0.038 C 
ATOM     29  C   UNL     1       7.825  -6.357   5.599  0.00  0.00    +0.145 C 
ATOM     30  S   UNL     1       7.550  -6.222   3.786  0.00  0.00    -0.090 S 
ATOM     31  C   UNL     1       5.939  -5.476   3.830  0.00  0.00    +0.112 C 
ATOM     32  N   UNL     1       5.080  -5.080   2.922  0.00  0.00    -0.227 NA
ATOM     33  C   UNL     1       6.311  -5.663   7.633  0.00  0.00    +0.041 C 
BRANCH  29  34
ATOM     34  C   UNL     1       9.021  -5.545   6.026  0.00  0.00    +0.148 C 
ATOM     35  O   UNL     1       9.650  -5.866   7.006  0.00  0.00    -0.296 OA
ATOM     36  C   UNL     1       9.432  -4.333   5.230  0.00  0.00    +0.087 C 
ENDBRANCH  29  34
ENDBRANCH  22  23
ENDBRANCH  21  22
ENDBRANCH   4  21
TORSDOF 9
