REMARK  Name = ZINC08156473
REMARK  8 active torsions:
REMARK  status: ('A' for Active; 'I' for Inactive)
REMARK    1  A    between atoms: C_1  and  C_2
REMARK    2  A    between atoms: C_2  and  C_4
REMARK    3  A    between atoms: C_2  and  N_54
REMARK    4  A    between atoms: N_6  and  C_7
REMARK    5  A    between atoms: C_8  and  C_17
REMARK    6  A    between atoms: C_19  and  N_54
REMARK    7  A    between atoms: C_20  and  C_21
REMARK    8  A    between atoms: C_20  and  N_54
REMARK                            x       y       z     vdW  Elec       q    Type
REMARK                         _______ _______ _______ _____ _____    ______ ____
ROOT
ATOM      1  C   UNL     1       6.321   0.304   5.675  0.00  0.00    +0.204 C 
ATOM      2  O   UNL     1       5.237   0.508   6.179  0.00  0.00    -0.277 OA
ATOM      3  N   UNL     1       7.445   0.502   6.391  0.00  0.00    -0.280 N 
ATOM      4  H   UNL     1       8.312   0.339   5.987  0.00  0.00    +0.155 HD
ENDROOT
BRANCH   3   5
ATOM      5  C   UNL     1       7.363   0.940   7.705  0.00  0.00    +0.090 A 
ATOM      6  C   UNL     1       8.395   1.198   8.593  0.00  0.00    +0.084 A 
ATOM      7  C   UNL     1       8.041   1.654   9.930  0.00  0.00    -0.018 A 
ATOM      8  C   UNL     1       6.715   1.768  10.160  0.00  0.00    -0.004 A 
ATOM      9  S   UNL     1       5.946   1.303   8.633  0.00  0.00    -0.077 S 
ATOM     10  C   UNL     1       6.038   2.194  11.425  0.00  0.00    +0.043 C 
ATOM     11  C   UNL     1       6.691   3.485  11.937  0.00  0.00    +0.005 C 
ATOM     12  C   UNL     1       7.850   3.110  12.855  0.00  0.00    +0.001 C 
ATOM     13  C   UNL     1       8.501   1.813  12.378  0.00  0.00    +0.005 C 
ATOM     14  C   UNL     1       9.089   1.993  10.982  0.00  0.00    +0.037 C 
BRANCH   6  15
ATOM     15  C   UNL     1       9.763   1.022   8.209  0.00  0.00    +0.102 C 
ATOM     16  N   UNL     1      10.848   0.883   7.904  0.00  0.00    -0.191 NA
ENDBRANCH   6  15
ENDBRANCH   3   5
BRANCH   1  18
ATOM     17  C   UNL     1       7.119  -1.526   4.204  0.00  0.00    -0.004 C 
ATOM     18  C   UNL     1       6.410  -0.171   4.247  0.00  0.00    +0.016 C 
BRANCH  18  20
ATOM     19  C   UNL     1       4.276  -1.296   4.447  0.00  0.00    -0.095 C 
ATOM     20  N   UNL     1       5.044  -0.283   3.694  0.00  0.00    +0.388 N 
ATOM     21  H   UNL     1       4.573   0.625   3.781  0.00  0.00    -0.081 HD
BRANCH  20  22
ATOM     22  C   UNL     1       5.107  -0.655   2.265  0.00  0.00    -0.042 C 
BRANCH  22  23
ATOM     23  C   UNL     1       3.725  -0.548   1.673  0.00  0.00    -0.060 A 
ATOM     24  C   UNL     1       2.886  -1.647   1.675  0.00  0.00    +0.005 A 
ATOM     25  C   UNL     1       1.617  -1.553   1.135  0.00  0.00    +0.050 A 
ATOM     26  C   UNL     1       1.183  -0.356   0.589  0.00  0.00    +0.166 A 
ATOM     27  C   UNL     1       2.028   0.751   0.586  0.00  0.00    +0.166 A 
ATOM     28  C   UNL     1       3.299   0.650   1.130  0.00  0.00    +0.051 A 
ATOM     29  O   UNL     1       1.376   1.797  -0.001  0.00  0.00    -0.453 OA
ATOM     30  C   UNL     1      -0.018   1.436   0.010  0.00  0.00    +0.466 C 
ATOM     31  O   UNL     1       0.002  -0.004   0.002  0.00  0.00    -0.453 OA
ENDBRANCH  22  23
ENDBRANCH  20  22
ENDBRANCH  18  20
ENDBRANCH   1  18
TORSDOF 6
