REMARK  Name = ZINC09911546
REMARK  14 active torsions:
REMARK  status: ('A' for Active; 'I' for Inactive)
REMARK    1  A    between atoms: C_1  and  C_2
REMARK    2  A    between atoms: C_2  and  C_3
REMARK    3  A    between atoms: C_3  and  N_65
REMARK    4  A    between atoms: C_9  and  N_16
REMARK    5  A    between atoms: C_10  and  C_11
REMARK    6  A    between atoms: C_11  and  O_13
REMARK    7  A    between atoms: O_13  and  C_14
REMARK    8  A    between atoms: C_14  and  C_15
REMARK    9  A    between atoms: C_17  and  C_19
REMARK   10  A    between atoms: C_19  and  C_20
REMARK   11  A    between atoms: C_20  and  C_21
REMARK   12  A    between atoms: C_21  and  S_22
REMARK   13  A    between atoms: S_22  and  C_25
REMARK   14  A    between atoms: C_28  and  C_31
REMARK                            x       y       z     vdW  Elec       q    Type
REMARK                         _______ _______ _______ _____ _____    ______ ____
ROOT
ATOM      1  C   UNL     1      -0.016   1.920 -12.216  0.00  0.00    -0.074 C 
ATOM      2  C   UNL     1      -1.246   2.098 -11.321  0.00  0.00    +0.018 C 
ATOM      3  C   UNL     1      -0.821   1.861  -9.876  0.00  0.00    -0.025 A 
ATOM      4  C   UNL     1       0.339   1.220  -9.607  0.00  0.00    -0.021 A 
ATOM      5  S   UNL     1       0.427   1.171  -7.841  0.00  0.00    -0.079 S 
ATOM      6  C   UNL     1      -1.053   1.989  -7.463  0.00  0.00    +0.086 A 
ATOM      7  C   UNL     1      -1.585   2.276  -8.715  0.00  0.00    +0.091 A 
ATOM      8  C   UNL     1       1.310   0.681 -10.610  0.00  0.00    -0.035 C 
ATOM      9  N   UNL     1       0.620   0.619 -11.921  0.00  0.00    +0.383 N 
ATOM     10  H   UNL     1      -0.105  -0.107 -11.883  0.00  0.00    -0.081 HD
ENDROOT
BRANCH   6  11
ATOM     11  N   UNL     1      -1.582   2.281  -6.215  0.00  0.00    -0.279 N 
ATOM     12  C   UNL     1      -0.919   1.915  -5.101  0.00  0.00    +0.218 C 
ATOM     13  O   UNL     1       0.140   1.330  -5.189  0.00  0.00    -0.275 OA
ATOM     14  H   UNL     1      -2.429   2.748  -6.145  0.00  0.00    +0.155 HD
BRANCH  12  15
ATOM     15  C   UNL     1      -1.493   2.232  -3.744  0.00  0.00    +0.098 C 
BRANCH  15  16
ATOM     16  C   UNL     1      -0.551   1.712  -2.657  0.00  0.00    +0.032 C 
BRANCH  16  17
ATOM     17  C   UNL     1      -1.135   2.034  -1.279  0.00  0.00    +0.172 C 
BRANCH  17  18
ATOM     18  S   UNL     1      -0.017   1.417   0.010  0.00  0.00    -0.003 S 
ATOM     19  O   UNL     1       0.002  -0.004   0.002  0.00  0.00    -0.169 OA
ATOM     20  O   UNL     1       1.195   2.158   0.002  0.00  0.00    -0.169 OA
BRANCH  18  21
ATOM     21  C   UNL     1      -0.798   1.847   1.530  0.00  0.00    +0.088 A 
ATOM     22  C   UNL     1      -0.521   3.062   2.129  0.00  0.00    +0.027 A 
ATOM     23  C   UNL     1      -1.137   3.402   3.319  0.00  0.00    +0.005 A 
ATOM     24  C   UNL     1      -2.022   2.523   3.915  0.00  0.00    -0.050 A 
ATOM     25  C   UNL     1      -2.295   1.306   3.318  0.00  0.00    +0.005 A 
ATOM     26  C   UNL     1      -1.683   0.968   2.126  0.00  0.00    +0.027 A 
ATOM     27  C   UNL     1      -2.690   2.891   5.215  0.00  0.00    +0.044 C 
ENDBRANCH  18  21
ENDBRANCH  17  18
ENDBRANCH  16  17
ENDBRANCH  15  16
ENDBRANCH  12  15
ENDBRANCH   6  11
BRANCH   7  28
ATOM     28  C   UNL     1      -2.865   2.974  -8.855  0.00  0.00    +0.342 C 
ATOM     29  O   UNL     1      -2.892   4.189  -8.916  0.00  0.00    -0.245 OA
BRANCH  28  30
ATOM     30  O   UNL     1      -4.013   2.270  -8.917  0.00  0.00    -0.461 OA
BRANCH  30  31
ATOM     31  C   UNL     1      -5.244   3.028  -9.057  0.00  0.00    +0.229 C 
ATOM     32  C   UNL     1      -6.432   2.065  -9.110  0.00  0.00    +0.048 C 
ENDBRANCH  30  31
ENDBRANCH  28  30
ENDBRANCH   7  28
BRANCH   9  33
ATOM     33  C   UNL     1       1.588   0.277 -12.986  0.00  0.00    -0.079 C 
BRANCH  33  35
ATOM     34  C   UNL     1       3.612   1.014 -14.250  0.00  0.00    +0.002 C 
ATOM     35  C   UNL     1       2.625   1.390 -13.143  0.00  0.00    -0.022 C 
ENDBRANCH  33  35
ENDBRANCH   9  33
TORSDOF 11
