REMARK  Name = ZINC43741406
REMARK  7 active torsions:
REMARK  status: ('A' for Active; 'I' for Inactive)
REMARK    1  A    between atoms: C_1  and  C_2
REMARK    2  A    between atoms: N_6  and  N_7
REMARK    3  A    between atoms: N_7  and  C_8
REMARK    4  A    between atoms: C_8  and  N_10
REMARK    5  A    between atoms: C_22  and  C_35
REMARK    6  A    between atoms: C_23  and  O_34
REMARK    7  A    between atoms: C_26  and  C_28
REMARK                            x       y       z     vdW  Elec       q    Type
REMARK                         _______ _______ _______ _____ _____    ______ ____
ROOT
ATOM      1  C   UNL     1      -0.320   0.970   0.064  0.00  0.00    +0.012 C 
ATOM      2  C   UNL     1      -0.433  -0.558   0.073  0.00  0.00    -0.025 C 
ATOM      3  C   UNL     1       0.181  -1.105  -1.223  0.00  0.00    +0.013 C 
ATOM      4  C   UNL     1       1.651  -0.705  -1.341  0.00  0.00    +0.053 C 
ATOM      5  C   UNL     1       2.378  -1.120  -0.082  0.00  0.00    +0.037 C 
ATOM      6  N   UNL     1       3.469  -1.789  -0.143  0.00  0.00    -0.190 NA
ATOM      7  C   UNL     1       1.786  -0.725   1.252  0.00  0.00    +0.056 C 
ATOM      8  C   UNL     1       0.311  -1.126   1.279  0.00  0.00    +0.001 C 
ATOM      9  C   UNL     1       0.205  -2.655   1.274  0.00  0.00    +0.005 C 
ATOM     10  C   UNL     1      -1.281  -3.021   1.431  0.00  0.00    +0.007 C 
ATOM     11  C   UNL     1      -2.046  -2.489   0.235  0.00  0.00    +0.025 C 
ATOM     12  C   UNL     1      -1.905  -0.964   0.109  0.00  0.00    +0.001 C 
ATOM     13  C   UNL     1      -2.707  -0.243   1.179  0.00  0.00    +0.005 C 
ATOM     14  C   UNL     1      -4.204  -0.603   1.053  0.00  0.00    +0.010 C 
ATOM     15  C   UNL     1      -4.356  -2.092   1.236  0.00  0.00    +0.004 C 
ATOM     16  C   UNL     1      -3.507  -2.834   0.185  0.00  0.00    +0.075 C 
ATOM     17  C   UNL     1      -3.921  -4.290   0.439  0.00  0.00    +0.036 C 
ATOM     18  C   UNL     1      -5.468  -4.156   0.555  0.00  0.00    +0.011 C 
ATOM     19  C   UNL     1      -5.748  -2.701   1.013  0.00  0.00    +0.027 C 
ATOM     20  C   UNL     1      -3.984  -2.466   2.678  0.00  0.00    +0.014 C 
ENDROOT
BRANCH  19  21
ATOM     21  C   UNL     1      -6.559  -1.945  -0.008  0.00  0.00    -0.022 C 
ATOM     22  C   UNL     1      -6.793  -2.312  -1.266  0.00  0.00    +0.094 C 
ATOM     23  C   UNL     1      -7.625  -1.294  -1.914  0.00  0.00    +0.332 C 
ATOM     24  O   UNL     1      -8.013  -1.338  -3.065  0.00  0.00    -0.246 OA
ATOM     25  O   UNL     1      -7.896  -0.305  -1.042  0.00  0.00    -0.457 OA
ATOM     26  C   UNL     1      -7.267  -0.627   0.202  0.00  0.00    +0.264 C 
ENDBRANCH  19  21
BRANCH   6  27
ATOM     27  N   UNL     1       3.953  -2.226  -1.383  0.00  0.00    -0.219 N 
ATOM     28  H   UNL     1       3.505  -1.958  -2.201  0.00  0.00    +0.176 HD
BRANCH  27  29
ATOM     29  C   UNL     1       5.042  -3.018  -1.441  0.00  0.00    +0.147 C 
ATOM     30  S   UNL     1       5.634  -3.551  -2.956  0.00  0.00    -0.017 S 
BRANCH  29  31
ATOM     31  N   UNL     1       5.665  -3.390  -0.305  0.00  0.00    -0.339 N 
ATOM     32  H   UNL     1       5.330  -3.087   0.554  0.00  0.00    +0.144 HD
ATOM     33  H   UNL     1       6.449  -3.960  -0.346  0.00  0.00    +0.144 HD
ENDBRANCH  29  31
ENDBRANCH  27  29
ENDBRANCH   6  27
BRANCH  16  34
ATOM     34  O   UNL     1      -3.978  -2.485  -1.143  0.00  0.00    -0.388 OA
ATOM     35  H   UNL     1      -3.518  -2.948  -1.858  0.00  0.00    +0.210 HD
ENDBRANCH  16  34
TORSDOF 5
