REMARK  Name = ZINC28848200
REMARK  6 active torsions:
REMARK  status: ('A' for Active; 'I' for Inactive)
REMARK    1  A    between atoms: C_7  and  C_11
REMARK    2  A    between atoms: C_11  and  C_12
REMARK    3  A    between atoms: N_16  and  N_20
REMARK    4  A    between atoms: C_21  and  C_23
REMARK    5  A    between atoms: C_23  and  N_24
REMARK    6  A    between atoms: C_32  and  C_33
REMARK                            x       y       z     vdW  Elec       q    Type
REMARK                         _______ _______ _______ _____ _____    ______ ____
ROOT
ATOM      1  C   UNL     1       3.207  -0.503  -1.468  0.00  0.00    +0.167 C 
ATOM      2  C   UNL     1       3.870  -1.865  -1.525  0.00  0.00    +0.260 C 
ATOM      3  O   UNL     1       5.005  -2.141  -1.198  0.00  0.00    -0.272 OA
ATOM      4  N   UNL     1       2.937  -2.705  -2.014  0.00  0.00    -0.137 N 
ATOM      5  C   UNL     1       1.788  -2.070  -2.273  0.00  0.00    +0.326 C 
ATOM      6  O   UNL     1       0.799  -2.617  -2.720  0.00  0.00    -0.251 OA
ATOM      7  N   UNL     1       1.849  -0.758  -1.981  0.00  0.00    -0.286 N 
ATOM      8  H   UNL     1       1.126   0.067  -2.056  0.00  0.00    +0.151 HD
ENDROOT
BRANCH   4   9
ATOM      9  N   UNL     1       3.144  -4.074  -2.226  0.00  0.00    -0.222 N 
ATOM     10  C   UNL     1       2.605  -4.976  -1.382  0.00  0.00    +0.249 C 
ATOM     11  O   UNL     1       1.940  -4.602  -0.439  0.00  0.00    -0.272 OA
ATOM     12  H   UNL     1       3.747  -4.414  -3.081  0.00  0.00    +0.174 HD
BRANCH  10  13
ATOM     13  C   UNL     1       2.828  -6.449  -1.609  0.00  0.00    +0.221 C 
BRANCH  13  14
ATOM     14  N   UNL     1       2.144  -7.214  -0.564  0.00  0.00    -0.311 N 
ATOM     15  C   UNL     1       0.846  -7.682  -0.609  0.00  0.00    +0.069 A 
ATOM     16  C   UNL     1      -0.175  -7.613  -1.547  0.00  0.00    +0.028 A 
ATOM     17  C   UNL     1      -1.391  -8.204  -1.278  0.00  0.00    +0.002 A 
ATOM     18  C   UNL     1      -1.601  -8.866  -0.076  0.00  0.00    +0.002 A 
ATOM     19  C   UNL     1      -0.608  -8.944   0.859  0.00  0.00    +0.030 A 
ATOM     20  C   UNL     1       0.633  -8.352   0.608  0.00  0.00    +0.090 A 
ATOM     21  N   UNL     1       1.788  -8.261   1.317  0.00  0.00    -0.224 NA
ATOM     22  C   UNL     1       2.672  -7.599   0.629  0.00  0.00    +0.216 A 
BRANCH  22  23
ATOM     23  C   UNL     1       4.076  -7.300   1.089  0.00  0.00    +0.451 C 
ATOM     24  F   UNL     1       4.393  -8.116   2.181  0.00  0.00    -0.163 F 
ATOM     25  F   UNL     1       4.972  -7.551   0.044  0.00  0.00    -0.163 F 
ATOM     26  F   UNL     1       4.166  -5.957   1.468  0.00  0.00    -0.163 F 
ENDBRANCH  22  23
ENDBRANCH  13  14
ENDBRANCH  10  13
ENDBRANCH   4   9
BRANCH   1  27
ATOM     27  C   UNL     1       3.151   0.009  -0.028  0.00  0.00    +0.069 C 
BRANCH  27  34
ATOM     28  C   UNL     1      -1.204   1.745   0.017  0.00  0.00    +0.001 A 
ATOM     29  C   UNL     1      -1.232   3.133   0.031  0.00  0.00    +0.002 A 
ATOM     30  C   UNL     1      -0.062   3.860   0.024  0.00  0.00    +0.026 A 
ATOM     31  C   UNL     1       1.162   3.199   0.008  0.00  0.00    +0.047 A 
ATOM     32  C   UNL     1       1.186   1.793   0.000  0.00  0.00    +0.003 A 
ATOM     33  C   UNL     1      -0.013   1.076   0.008  0.00  0.00    +0.010 A 
ATOM     34  C   UNL     1       2.600   1.412  -0.015  0.00  0.00    -0.020 A 
ATOM     35  C   UNL     1       3.313   2.550  -0.015  0.00  0.00    +0.087 A 
ATOM     36  N   UNL     1       2.470   3.628  -0.002  0.00  0.00    -0.360 N 
ATOM     37  H   UNL     1       2.697   4.704   0.002  0.00  0.00    +0.165 HD
ENDBRANCH  27  34
ENDBRANCH   1  27
TORSDOF 6
