REMARK  Name = ZINC13174272
REMARK  8 active torsions:
REMARK  status: ('A' for Active; 'I' for Inactive)
REMARK    1  A    between atoms: C_1  and  C_2
REMARK    2  A    between atoms: N_4  and  C_5
REMARK    3  A    between atoms: C_8  and  N_11
REMARK    4  A    between atoms: C_12  and  C_14
REMARK    5  A    between atoms: C_14  and  S_15
REMARK    6  A    between atoms: S_15  and  C_16
REMARK    7  A    between atoms: C_17  and  C_33
REMARK    8  A    between atoms: C_18  and  C_28
REMARK                            x       y       z     vdW  Elec       q    Type
REMARK                         _______ _______ _______ _____ _____    ______ ____
ROOT
ATOM      1  C   UNL     1      -3.002 -10.989  -0.249  0.00  0.00    +0.112 C 
ATOM      2  C   UNL     1      -4.069 -11.861  -0.383  0.00  0.00    +0.076 C 
ATOM      3  C   UNL     1      -3.751 -13.345  -0.436  0.00  0.00    +0.133 C 
ATOM      4  C   UNL     1      -2.282 -13.710  -0.337  0.00  0.00    +0.032 C 
ATOM      5  C   UNL     1      -1.908 -14.999  -0.378  0.00  0.00    +0.162 C 
ATOM      6  C   UNL     1      -0.459 -15.396  -0.281  0.00  0.00    +0.080 C 
ATOM      7  C   UNL     1       0.412 -14.277  -0.858  0.00  0.00    +0.014 C 
ATOM      8  C   UNL     1       0.121 -12.980  -0.098  0.00  0.00    +0.056 C 
ATOM      9  C   UNL     1      -1.352 -12.663  -0.203  0.00  0.00    +0.050 C 
ATOM     10  N   UNL     1      -1.739 -11.413  -0.173  0.00  0.00    -0.244 NA
ATOM     11  O   UNL     1      -2.848 -15.956  -0.510  0.00  0.00    -0.292 OA
ENDROOT
BRANCH   3  12
ATOM     12  C   UNL     1      -4.479 -14.023   0.695  0.00  0.00    +0.117 A 
ATOM     13  C   UNL     1      -5.394 -15.001   0.568  0.00  0.00    +0.045 A 
ATOM     14  C   UNL     1      -5.815 -15.340   1.874  0.00  0.00    +0.041 A 
ATOM     15  C   UNL     1      -5.132 -14.550   2.722  0.00  0.00    +0.195 A 
ATOM     16  O   UNL     1      -4.321 -13.758   2.002  0.00  0.00    -0.467 OA
ENDBRANCH   3  12
BRANCH   2  17
ATOM     17  C   UNL     1      -5.416 -11.383  -0.468  0.00  0.00    +0.099 C 
ATOM     18  N   UNL     1      -6.485 -11.005  -0.534  0.00  0.00    -0.191 NA
ENDBRANCH   2  17
BRANCH   1  19
ATOM     19  S   UNL     1      -3.323  -9.257  -0.183  0.00  0.00    -0.096 S 
BRANCH  19  20
ATOM     20  C   UNL     1      -1.678  -8.512  -0.017  0.00  0.00    +0.172 C 
BRANCH  20  22
ATOM     21  N   UNL     1      -0.710  -6.244   0.177  0.00  0.00    -0.285 N 
ATOM     22  C   UNL     1      -1.810  -7.012   0.052  0.00  0.00    +0.227 C 
ATOM     23  O   UNL     1      -2.906  -6.497  -0.006  0.00  0.00    -0.275 OA
ATOM     24  H   UNL     1       0.160  -6.657   0.291  0.00  0.00    +0.155 HD
BRANCH  21  28
ATOM     25  C   UNL     1      -1.047  -2.089   0.076  0.00  0.00    +0.033 A 
ATOM     26  C   UNL     1       0.068  -2.709  -0.474  0.00  0.00    +0.025 A 
ATOM     27  C   UNL     1       0.179  -4.084  -0.440  0.00  0.00    +0.025 A 
ATOM     28  C   UNL     1      -0.823  -4.848   0.143  0.00  0.00    +0.034 A 
ATOM     29  C   UNL     1      -1.938  -4.228   0.693  0.00  0.00    +0.025 A 
ATOM     30  C   UNL     1      -2.047  -2.853   0.664  0.00  0.00    +0.025 A 
BRANCH  25  34
ATOM     31  C   UNL     1      -1.766   1.468   1.081  0.00  0.00    +0.109 C 
ATOM     32  C   UNL     1      -1.737  -0.038   1.069  0.00  0.00    +0.214 C 
ATOM     33  O   UNL     1      -2.232  -0.662   1.984  0.00  0.00    -0.276 OA
ATOM     34  N   UNL     1      -1.161  -0.693   0.042  0.00  0.00    -0.286 N 
ATOM     35  H   UNL     1      -0.824  -0.198  -0.722  0.00  0.00    +0.155 HD
ENDBRANCH  25  34
ENDBRANCH  21  28
ENDBRANCH  20  22
ENDBRANCH  19  20
ENDBRANCH   1  19
TORSDOF 7
