REMARK  Name = ZINC16676003
REMARK  6 active torsions:
REMARK  status: ('A' for Active; 'I' for Inactive)
REMARK    1  A    between atoms: C_4  and  C_7
REMARK    2  A    between atoms: N_9  and  N_10
REMARK    3  A    between atoms: C_11  and  C_13
REMARK    4  A    between atoms: C_13  and  N_22
REMARK    5  A    between atoms: C_14  and  C_15
REMARK    6  A    between atoms: C_23  and  C_25
REMARK                            x       y       z     vdW  Elec       q    Type
REMARK                         _______ _______ _______ _____ _____    ______ ____
ROOT
ATOM      1  C   UNL     1      -2.310  -4.184  -0.213  0.00  0.00    +0.098 C 
ATOM      2  C   UNL     1      -3.423  -4.941  -0.080  0.00  0.00    +0.036 C 
ENDROOT
BRANCH   2   3
ATOM      3  C   UNL     1      -4.748  -4.303  -0.053  0.00  0.00    -0.023 A 
ATOM      4  C   UNL     1      -4.971  -3.181   0.752  0.00  0.00    +0.009 A 
ATOM      5  C   UNL     1      -6.214  -2.586   0.769  0.00  0.00    +0.016 A 
ATOM      6  C   UNL     1      -7.244  -3.102   0.000  0.00  0.00    +0.018 A 
ATOM      7  C   UNL     1      -7.032  -4.216  -0.796  0.00  0.00    +0.016 A 
ATOM      8  C   UNL     1      -5.793  -4.819  -0.827  0.00  0.00    +0.009 A 
ATOM      9 BR   UNL     1      -8.948  -2.283   0.037  0.00  0.00    -0.050 Br
ENDBRANCH   2   3
BRANCH   1  11
ATOM     10  N   UNL     1      -1.335  -1.971  -0.546  0.00  0.00    -0.229 N 
ATOM     11  C   UNL     1      -2.427  -2.761  -0.564  0.00  0.00    +0.274 C 
ATOM     12  O   UNL     1      -3.509  -2.296  -0.869  0.00  0.00    -0.267 OA
ATOM     13  H   UNL     1      -0.472  -2.341  -0.303  0.00  0.00    +0.173 HD
BRANCH  10  16
ATOM     14  C   UNL     1      -0.355   0.175  -0.863  0.00  0.00    +0.260 C 
ATOM     15  O   UNL     1       0.727  -0.289  -0.558  0.00  0.00    -0.269 OA
ATOM     16  N   UNL     1      -1.446  -0.615  -0.880  0.00  0.00    -0.230 N 
ATOM     17  H   UNL     1      -2.309  -0.244  -1.124  0.00  0.00    +0.173 HD
BRANCH  14  21
ATOM     18  C   UNL     1      -0.692   4.287  -1.876  0.00  0.00    +0.000 A 
ATOM     19  C   UNL     1       0.540   3.762  -1.529  0.00  0.00    +0.001 A 
ATOM     20  C   UNL     1       0.657   2.427  -1.199  0.00  0.00    +0.013 A 
ATOM     21  C   UNL     1      -0.472   1.607  -1.216  0.00  0.00    +0.038 A 
ATOM     22  C   UNL     1      -1.711   2.141  -1.572  0.00  0.00    +0.013 A 
ATOM     23  C   UNL     1      -1.815   3.478  -1.894  0.00  0.00    +0.001 A 
ENDBRANCH  14  21
ENDBRANCH  10  16
ENDBRANCH   1  11
BRANCH   1  24
ATOM     24  N   UNL     1      -1.049  -4.754  -0.017  0.00  0.00    -0.275 N 
ATOM     25  C   UNL     1      -0.136  -4.726  -1.008  0.00  0.00    +0.284 C 
ATOM     26  O   UNL     1      -0.373  -4.123  -2.038  0.00  0.00    -0.266 OA
ATOM     27  H   UNL     1      -0.831  -5.170   0.832  0.00  0.00    +0.155 HD
BRANCH  25  28
ATOM     28  C   UNL     1       1.144  -5.423  -0.845  0.00  0.00    +0.189 A 
ATOM     29  C   UNL     1       2.152  -5.475  -1.765  0.00  0.00    +0.054 A 
ATOM     30  C   UNL     1       3.179  -6.243  -1.194  0.00  0.00    +0.042 A 
ATOM     31  C   UNL     1       2.759  -6.622   0.033  0.00  0.00    +0.196 A 
ATOM     32  O   UNL     1       1.534  -6.121   0.242  0.00  0.00    -0.458 OA
ENDBRANCH  25  28
ENDBRANCH   1  24
TORSDOF 6
