REMARK  Name = ZINC00996677
REMARK  14 active torsions:
REMARK  status: ('A' for Active; 'I' for Inactive)
REMARK    1  A    between atoms: C_1  and  C_2
REMARK    2  A    between atoms: C_2  and  C_3
REMARK    3  A    between atoms: C_3  and  C_4
REMARK    4  A    between atoms: C_3  and  C_5
REMARK    5  A    between atoms: C_3  and  C_6
REMARK    6  A    between atoms: C_13  and  N_18
REMARK    7  A    between atoms: C_14  and  C_15
REMARK    8  A    between atoms: C_19  and  C_21
REMARK    9  A    between atoms: C_23  and  O_31
REMARK   10  A    between atoms: C_24  and  O_29
REMARK   11  A    between atoms: C_25  and  O_27
REMARK   12  A    between atoms: O_27  and  C_28
REMARK   13  A    between atoms: O_29  and  C_30
REMARK   14  A    between atoms: O_31  and  C_32
REMARK                            x       y       z     vdW  Elec       q    Type
REMARK                         _______ _______ _______ _____ _____    ______ ____
ROOT
ATOM      1  C   UNL     1       0.011   1.072   2.506  0.00  0.00    -0.000 C 
ATOM      2  C   UNL     1      -0.704   1.565   3.768  0.00  0.00    +0.009 C 
ATOM      3  C   UNL     1       0.157   1.276   5.000  0.00  0.00    +0.037 C 
ATOM      4  C   UNL     1       0.548  -0.196   4.990  0.00  0.00    -0.023 A 
ATOM      5  C   UNL     1       0.469  -0.930   3.859  0.00  0.00    -0.004 A 
ATOM      6  S   UNL     1       1.015  -2.547   4.330  0.00  0.00    -0.077 S 
ATOM      7  C   UNL     1       1.345  -2.255   6.005  0.00  0.00    +0.085 A 
ATOM      8  C   UNL     1       1.024  -0.913   6.161  0.00  0.00    +0.068 A 
ATOM      9  C   UNL     1       0.018  -0.463   2.510  0.00  0.00    +0.046 C 
ENDROOT
BRANCH   8  10
ATOM     10  C   UNL     1       1.161  -0.244   7.459  0.00  0.00    +0.244 C 
ATOM     11  O   UNL     1       0.227  -0.232   8.238  0.00  0.00    -0.270 OA
ATOM     12  N   UNL     1       2.322   0.356   7.788  0.00  0.00    -0.325 N 
ATOM     13  H   UNL     1       3.067   0.346   7.167  0.00  0.00    +0.145 HD
ATOM     14  H   UNL     1       2.413   0.799   8.646  0.00  0.00    +0.145 HD
ENDBRANCH   8  10
BRANCH   7  15
ATOM     15  N   UNL     1       1.814  -3.144   6.958  0.00  0.00    -0.275 N 
ATOM     16  C   UNL     1       2.073  -4.422   6.618  0.00  0.00    +0.249 C 
ATOM     17  O   UNL     1       1.894  -4.795   5.474  0.00  0.00    -0.270 OA
ATOM     18  H   UNL     1       1.956  -2.847   7.871  0.00  0.00    +0.156 HD
BRANCH  16  19
ATOM     19  C   UNL     1       2.572  -5.369   7.633  0.00  0.00    +0.044 A 
ATOM     20  C   UNL     1       2.783  -4.941   8.946  0.00  0.00    +0.062 A 
ATOM     21  C   UNL     1       3.245  -5.832   9.897  0.00  0.00    +0.166 A 
ATOM     22  C   UNL     1       3.512  -7.152   9.544  0.00  0.00    +0.204 A 
ATOM     23  C   UNL     1       3.309  -7.580   8.234  0.00  0.00    +0.166 A 
ATOM     24  C   UNL     1       2.841  -6.695   7.281  0.00  0.00    +0.062 A 
BRANCH  23  25
ATOM     25  O   UNL     1       3.570  -8.870   7.893  0.00  0.00    -0.491 OA
ATOM     26  C   UNL     1       3.338  -9.241   6.532  0.00  0.00    +0.277 C 
ENDBRANCH  23  25
BRANCH  22  27
ATOM     27  O   UNL     1       3.972  -8.025  10.479  0.00  0.00    -0.488 OA
ATOM     28  C   UNL     1       5.389  -8.122  10.634  0.00  0.00    +0.277 C 
ENDBRANCH  22  27
BRANCH  21  29
ATOM     29  O   UNL     1       3.445  -5.417  11.176  0.00  0.00    -0.491 OA
ATOM     30  C   UNL     1       3.151  -4.050  11.469  0.00  0.00    +0.277 C 
ENDBRANCH  21  29
ENDBRANCH  16  19
ENDBRANCH   7  15
BRANCH   1  31
ATOM     31  C   UNL     1      -0.729   1.579   1.267  0.00  0.00    -0.032 C 
ATOM     32  C   UNL     1      -0.750   3.109   1.275  0.00  0.00    +0.011 C 
ATOM     33  C   UNL     1      -2.164   1.050   1.278  0.00  0.00    +0.011 C 
BRANCH  31  35
ATOM     34  C   UNL     1      -0.753   1.593  -1.232  0.00  0.00    +0.004 C 
ATOM     35  C   UNL     1      -0.013   1.086   0.008  0.00  0.00    +0.003 C 
ENDBRANCH  31  35
ENDBRANCH   1  31
TORSDOF 8
