REMARK  Name = ZINC20714510
REMARK  9 active torsions:
REMARK  status: ('A' for Active; 'I' for Inactive)
REMARK    1  A    between atoms: C_1  and  C_2
REMARK    2  A    between atoms: C_2  and  C_3
REMARK    3  A    between atoms: C_2  and  C_4
REMARK    4  A    between atoms: C_4  and  C_5
REMARK    5  A    between atoms: C_5  and  C_7
REMARK    6  A    between atoms: C_5  and  N_11
REMARK    7  A    between atoms: C_7  and  O_9
REMARK    8  A    between atoms: O_9  and  C_10
REMARK    9  A    between atoms: C_23  and  C_25
REMARK                            x       y       z     vdW  Elec       q    Type
REMARK                         _______ _______ _______ _____ _____    ______ ____
ROOT
ATOM      1  N   UNL     1      -2.416   1.010  -3.341  0.00  0.00    -0.286 N 
ATOM      2  C   UNL     1      -2.422   1.671  -2.166  0.00  0.00    +0.304 C 
ATOM      3  O   UNL     1      -2.419   1.051  -1.120  0.00  0.00    -0.253 OA
ATOM      4  N   UNL     1      -2.433   3.018  -2.151  0.00  0.00    -0.273 N 
ATOM      5  C   UNL     1      -2.329   3.758  -0.885  0.00  0.00    +0.116 C 
ATOM      6  C   UNL     1      -1.024   4.566  -0.880  0.00  0.00    +0.074 C 
ATOM      7  C   UNL     1      -0.873   5.251  -2.213  0.00  0.00    +0.040 A 
ATOM      8  C   UNL     1      -1.540   4.909  -3.336  0.00  0.00    +0.062 A 
ATOM      9  N   UNL     1      -1.150   5.728  -4.316  0.00  0.00    -0.348 N 
ATOM     10  C   UNL     1      -0.268   6.569  -3.844  0.00  0.00    +0.171 A 
ATOM     11  N   UNL     1      -0.069   6.303  -2.533  0.00  0.00    -0.349 N 
ATOM     12  H   UNL     1       0.532   6.772  -1.933  0.00  0.00    +0.166 HD
ATOM     13  C   UNL     1      -2.541   3.786  -3.405  0.00  0.00    +0.158 C 
ATOM     14  H   UNL     1      -2.494   1.500  -4.174  0.00  0.00    +0.151 HD
ATOM     15  H   UNL     1      -1.471   5.703  -5.231  0.00  0.00    +0.167 HD
ENDROOT
BRANCH  13  16
ATOM     16  C   UNL     1      -3.931   4.352  -3.541  0.00  0.00    -0.001 A 
ATOM     17  C   UNL     1      -4.400   5.263  -2.613  0.00  0.00    +0.007 A 
ATOM     18  C   UNL     1      -5.675   5.783  -2.737  0.00  0.00    +0.002 A 
ATOM     19  C   UNL     1      -6.483   5.391  -3.788  0.00  0.00    +0.021 A 
ATOM     20  C   UNL     1      -6.016   4.479  -4.717  0.00  0.00    +0.060 A 
ATOM     21  C   UNL     1      -4.736   3.963  -4.596  0.00  0.00    +0.065 A 
ATOM     22 CL   UNL     1      -4.145   2.825  -5.766  0.00  0.00    -0.082 Cl
ATOM     23 CL   UNL     1      -7.029   3.987  -6.037  0.00  0.00    -0.082 Cl
ENDBRANCH  13  16
BRANCH   1  24
ATOM     24  C   UNL     1      -2.291  -0.450  -3.359  0.00  0.00    +0.183 C 
BRANCH  24  25
ATOM     25  C   UNL     1      -0.834  -0.830  -3.302  0.00  0.00    +0.327 C 
ATOM     26  O   UNL     1       0.013   0.030  -3.251  0.00  0.00    -0.249 OA
BRANCH  25  27
ATOM     27  O   UNL     1      -0.477  -2.124  -3.308  0.00  0.00    -0.467 OA
ATOM     28  C   UNL     1       0.921  -2.412  -3.252  0.00  0.00    +0.280 C 
ENDBRANCH  25  27
ENDBRANCH  24  25
BRANCH  24  29
ATOM     29  C   UNL     1      -2.912  -0.999  -4.645  0.00  0.00    +0.036 C 
BRANCH  29  31
ATOM     30  C   UNL     1      -5.001  -1.099  -6.012  0.00  0.00    +0.007 C 
ATOM     31  C   UNL     1      -4.410  -0.690  -4.661  0.00  0.00    -0.015 C 
ATOM     32  C   UNL     1      -5.104  -1.471  -3.543  0.00  0.00    +0.007 C 
ENDBRANCH  29  31
ENDBRANCH  24  29
ENDBRANCH   1  24
TORSDOF 6
