REMARK  Name = ZINC37199372
REMARK  6 active torsions:
REMARK  status: ('A' for Active; 'I' for Inactive)
REMARK    1  A    between atoms: C_3  and  S_16
REMARK    2  A    between atoms: C_6  and  C_7
REMARK    3  A    between atoms: C_7  and  N_8
REMARK    4  A    between atoms: N_8  and  C_9
REMARK    5  A    between atoms: C_9  and  C_10
REMARK    6  A    between atoms: S_16  and  N_19
REMARK                            x       y       z     vdW  Elec       q    Type
REMARK                         _______ _______ _______ _____ _____    ______ ____
ROOT
ATOM      1  C   UNL     1      -0.017   1.378   0.010  0.00  0.00    +0.003 A 
ATOM      2  C   UNL     1       1.171   2.086   0.002  0.00  0.00    +0.029 A 
ATOM      3  C   UNL     1       2.377   1.411  -0.013  0.00  0.00    +0.105 A 
ATOM      4  C   UNL     1       2.396   0.029  -0.020  0.00  0.00    +0.029 A 
ATOM      5  C   UNL     1       1.208  -0.679  -0.012  0.00  0.00    +0.003 A 
ATOM      6  C   UNL     1       0.002  -0.004   0.002  0.00  0.00    -0.064 A 
ENDROOT
BRANCH   3   7
ATOM      7  S   UNL     1       3.891   2.312  -0.024  0.00  0.00    +0.056 S 
ATOM      8  O   UNL     1       4.872   1.453  -0.588  0.00  0.00    -0.153 OA
ATOM      9  O   UNL     1       3.597   3.593  -0.566  0.00  0.00    -0.153 OA
BRANCH   7  10
ATOM     10  N   UNL     1       4.327   2.556   1.555  0.00  0.00    -0.204 NA
ATOM     11  H   UNL     1       3.768   2.215   2.271  0.00  0.00    +0.144 HD
ATOM     12  H   UNL     1       5.142   3.039   1.764  0.00  0.00    +0.144 HD
ENDBRANCH   7  10
ENDBRANCH   3   7
BRANCH   6  13
ATOM     13  C   UNL     1      -1.293  -0.775   0.011  0.00  0.00    -0.046 C 
BRANCH  13  14
ATOM     14  N   UNL     1      -1.727  -1.018  -1.371  0.00  0.00    +0.386 N 
ATOM     15  H   UNL     1      -1.864  -0.136  -1.841  0.00  0.00    -0.085 HD
ATOM     16  H   UNL     1      -1.021  -1.552  -1.857  0.00  0.00    -0.085 HD
BRANCH  14  17
ATOM     17  C   UNL     1      -2.989  -1.770  -1.363  0.00  0.00    -0.006 C 
BRANCH  17  18
ATOM     18  C   UNL     1      -3.435  -2.020  -2.781  0.00  0.00    +0.090 A 
ATOM     19  C   UNL     1      -3.113  -3.090  -3.530  0.00  0.00    +0.044 A 
ATOM     20  C   UNL     1      -3.742  -2.916  -4.784  0.00  0.00    +0.056 A 
ATOM     21  C   UNL     1      -4.410  -1.749  -4.727  0.00  0.00    +0.165 A 
ATOM     22  O   UNL     1      -4.225  -1.214  -3.509  0.00  0.00    -0.456 OA
ATOM     23  I   UNL     1      -5.551  -0.914  -6.272  0.00  0.00    -0.001 I 
ENDBRANCH  17  18
ENDBRANCH  14  17
ENDBRANCH  13  14
ENDBRANCH   6  13
TORSDOF 6
