REMARK  Name = ZINC17157413
REMARK  6 active torsions:
REMARK  status: ('A' for Active; 'I' for Inactive)
REMARK    1  A    between atoms: C_3  and  N_26
REMARK    2  A    between atoms: C_4  and  N_23
REMARK    3  A    between atoms: C_6  and  C_7
REMARK    4  A    between atoms: N_9  and  N_10
REMARK    5  A    between atoms: C_11  and  C_13
REMARK    6  A    between atoms: N_26  and  C_27
REMARK                            x       y       z     vdW  Elec       q    Type
REMARK                         _______ _______ _______ _____ _____    ______ ____
ROOT
ATOM      1  C   UNL     1      -1.798   4.734   2.980  0.00  0.00    +0.260 C 
ATOM      2  O   UNL     1      -1.292   5.398   2.096  0.00  0.00    -0.269 OA
ATOM      3  N   UNL     1      -1.785   3.388   2.903  0.00  0.00    -0.230 N 
ATOM      4  H   UNL     1      -2.189   2.858   3.608  0.00  0.00    +0.173 HD
ENDROOT
BRANCH   1  10
ATOM      5  C   UNL     1      -3.013   4.639   5.150  0.00  0.00    +0.015 A 
ATOM      6  C   UNL     1      -3.591   5.264   6.231  0.00  0.00    +0.026 A 
ATOM      7  C   UNL     1      -3.604   6.654   6.308  0.00  0.00    +0.058 A 
ATOM      8  C   UNL     1      -3.026   7.416   5.297  0.00  0.00    +0.148 A 
ATOM      9  C   UNL     1      -2.439   6.796   4.217  0.00  0.00    +0.047 A 
ATOM     10  C   UNL     1      -2.425   5.401   4.136  0.00  0.00    +0.040 A 
BRANCH   8  11
ATOM     11  N   UNL     1      -3.041   8.893   5.383  0.00  0.00    +0.058 N 
ATOM     12  O   UNL     1      -2.439   9.558   4.558  0.00  0.00    -0.126 OA
ATOM     13  O   UNL     1      -3.654   9.445   6.279  0.00  0.00    -0.126 OA
ENDBRANCH   8  11
BRANCH   7  14
ATOM     14  N   UNL     1      -4.195   7.283   7.399  0.00  0.00    -0.339 N 
ATOM     15  H   UNL     1      -4.287   8.248   7.410  0.00  0.00    +0.146 HD
BRANCH  14  16
ATOM     16  C   UNL     1      -4.680   6.487   8.529  0.00  0.00    +0.071 C 
ATOM     17  C   UNL     1      -6.095   6.770   9.037  0.00  0.00    +0.024 C 
ATOM     18  C   UNL     1      -4.883   7.206   9.864  0.00  0.00    +0.024 C 
ENDBRANCH  14  16
ENDBRANCH   7  14
ENDBRANCH   1  10
BRANCH   3  19
ATOM     19  N   UNL     1      -1.189   2.755   1.805  0.00  0.00    -0.234 N 
ATOM     20  C   UNL     1      -1.176   1.409   1.728  0.00  0.00    +0.235 C 
ATOM     21  O   UNL     1      -1.681   0.747   2.610  0.00  0.00    -0.274 OA
ATOM     22  H   UNL     1      -0.785   3.284   1.100  0.00  0.00    +0.173 HD
BRANCH  20  23
ATOM     23  C   UNL     1      -0.535   0.728   0.547  0.00  0.00    +0.049 C 
ATOM     24  C   UNL     1       0.943   1.116   0.475  0.00  0.00    +0.019 C 
ATOM     25  C   UNL     1       1.594   0.424  -0.725  0.00  0.00    -0.009 C 
ATOM     26  C   UNL     1       1.472  -1.093  -0.566  0.00  0.00    +0.007 C 
ATOM     27  C   UNL     1      -0.006  -1.481  -0.494  0.00  0.00    -0.009 C 
ATOM     28  C   UNL     1      -0.657  -0.789   0.705  0.00  0.00    +0.019 C 
ATOM     29  C   UNL     1      -0.711  -1.044  -1.780  0.00  0.00    +0.007 C 
ATOM     30  C   UNL     1      -0.589   0.472  -1.938  0.00  0.00    -0.009 C 
ATOM     31  C   UNL     1       0.889   0.861  -2.010  0.00  0.00    +0.007 C 
ATOM     32  C   UNL     1      -1.240   1.164  -0.739  0.00  0.00    +0.019 C 
ENDBRANCH  20  23
ENDBRANCH   3  19
TORSDOF 6
