REMARK  Name = ZINC39688709
REMARK  8 active torsions:
REMARK  status: ('A' for Active; 'I' for Inactive)
REMARK    1  A    between atoms: C_1  and  C_2
REMARK    2  A    between atoms: C_2  and  C_4
REMARK    3  A    between atoms: C_2  and  N_12
REMARK    4  A    between atoms: C_4  and  C_5
REMARK    5  A    between atoms: C_13  and  C_15
REMARK    6  A    between atoms: C_26  and  C_28
REMARK    7  A    between atoms: C_31  and  O_34
REMARK    8  A    between atoms: O_34  and  C_35
REMARK                            x       y       z     vdW  Elec       q    Type
REMARK                         _______ _______ _______ _____ _____    ______ ____
ROOT
ATOM      1  C   UNL     1       0.882  -1.090  -3.556  0.00  0.00    +0.100 C 
ATOM      2  C   UNL     1       1.092  -2.485  -2.926  0.00  0.00    +0.121 C 
ATOM      3  N   UNL     1       0.336  -3.410  -3.803  0.00  0.00    -0.296 N 
ATOM      4  C   UNL     1       0.585  -2.904  -5.174  0.00  0.00    +0.115 C 
ATOM      5  C   UNL     1       0.552  -1.369  -5.032  0.00  0.00    -0.004 C 
ATOM      6  C   UNL     1      -0.837  -0.838  -5.373  0.00  0.00    -0.010 C 
ATOM      7  C   UNL     1      -1.118  -1.076  -6.859  0.00  0.00    -0.082 C 
ATOM      8  N   UNL     1      -0.100  -0.395  -7.667  0.00  0.00    +0.379 N 
ATOM      9  C   UNL     1       1.222  -0.975  -7.401  0.00  0.00    -0.082 C 
ATOM     10  C   UNL     1       1.602  -0.733  -5.937  0.00  0.00    -0.010 C 
ATOM     11  C   UNL     1      -0.409  -4.472  -3.437  0.00  0.00    +0.248 C 
ATOM     12  O   UNL     1      -1.340  -4.830  -4.132  0.00  0.00    -0.270 OA
ATOM     13  H   UNL     1      -0.322  -0.502  -8.646  0.00  0.00    -0.086 HD
ATOM     14  H   UNL     1      -0.088   0.587  -7.433  0.00  0.00    -0.086 HD
ENDROOT
BRANCH  11  15
ATOM     15  C   UNL     1      -0.095  -5.199  -2.191  0.00  0.00    +0.055 A 
ATOM     16  C   UNL     1      -0.700  -6.436  -1.918  0.00  0.00    +0.020 A 
ATOM     17  C   UNL     1      -0.375  -7.077  -0.741  0.00  0.00    +0.068 A 
ATOM     18  C   UNL     1       0.534  -6.483   0.130  0.00  0.00    +0.220 A 
ATOM     19  N   UNL     1       1.087  -5.314  -0.157  0.00  0.00    -0.220 NA
ATOM     20  C   UNL     1       0.811  -4.671  -1.271  0.00  0.00    +0.127 A 
BRANCH  18  21
ATOM     21  O   UNL     1       0.857  -7.109   1.288  0.00  0.00    -0.438 OA
BRANCH  21  22
ATOM     22  C   UNL     1       0.985  -6.351   2.408  0.00  0.00    +0.130 A 
ATOM     23  C   UNL     1       0.650  -5.005   2.379  0.00  0.00    +0.046 A 
ATOM     24  C   UNL     1       0.780  -4.237   3.520  0.00  0.00    +0.004 A 
ATOM     25  C   UNL     1       1.245  -4.808   4.690  0.00  0.00    +0.000 A 
ATOM     26  C   UNL     1       1.579  -6.149   4.722  0.00  0.00    +0.004 A 
ATOM     27  C   UNL     1       1.445  -6.923   3.586  0.00  0.00    +0.046 A 
ENDBRANCH  21  22
ENDBRANCH  18  21
ENDBRANCH  11  15
BRANCH   1  29
ATOM     28  N   UNL     1      -0.369   0.961  -2.967  0.00  0.00    -0.312 N 
ATOM     29  C   UNL     1      -0.267  -0.380  -2.887  0.00  0.00    +0.218 C 
ATOM     30  O   UNL     1      -1.100  -1.016  -2.276  0.00  0.00    -0.275 OA
ATOM     31  H   UNL     1       0.334   1.476  -3.394  0.00  0.00    +0.149 HD
BRANCH  28  33
ATOM     32  C   UNL     1      -2.707   1.538  -3.397  0.00  0.00    +0.028 C 
ATOM     33  C   UNL     1      -1.541   1.641  -2.412  0.00  0.00    +0.074 C 
BRANCH  33  34
ATOM     34  C   UNL     1      -1.208   3.115  -2.169  0.00  0.00    +0.057 C 
BRANCH  34  35
ATOM     35  C   UNL     1      -0.159   3.222  -1.093  0.00  0.00    -0.045 A 
ATOM     36  C   UNL     1      -0.531   3.217   0.238  0.00  0.00    +0.006 A 
ATOM     37  C   UNL     1       0.431   3.315   1.226  0.00  0.00    +0.038 A 
ATOM     38  C   UNL     1       1.768   3.418   0.881  0.00  0.00    +0.123 A 
ATOM     39  C   UNL     1       2.140   3.422  -0.453  0.00  0.00    +0.038 A 
ATOM     40  C   UNL     1       1.177   3.319  -1.438  0.00  0.00    +0.006 A 
ATOM     41  F   UNL     1       2.709   3.514   1.846  0.00  0.00    -0.205 F 
ENDBRANCH  34  35
ENDBRANCH  33  34
ENDBRANCH  28  33
ENDBRANCH   1  29
TORSDOF 7
