REMARK  Name = ZINC03624871
REMARK  12 active torsions:
REMARK  status: ('A' for Active; 'I' for Inactive)
REMARK    1  A    between atoms: C_1  and  C_2
REMARK    2  A    between atoms: C_2  and  C_3
REMARK    3  A    between atoms: C_2  and  C_4
REMARK    4  A    between atoms: C_4  and  N_5
REMARK    5  A    between atoms: C_11  and  C_25
REMARK    6  A    between atoms: C_13  and  O_24
REMARK    7  A    between atoms: C_15  and  O_22
REMARK    8  A    between atoms: C_15  and  O_23
REMARK    9  A    between atoms: C_28  and  O_33
REMARK   10  A    between atoms: C_29  and  O_31
REMARK   11  A    between atoms: O_31  and  C_32
REMARK   12  A    between atoms: O_33  and  C_34
REMARK                            x       y       z     vdW  Elec       q    Type
REMARK                         _______ _______ _______ _____ _____    ______ ____
ROOT
ATOM      1  N   UNL     1      -1.912   5.832   1.887  0.00  0.00    -0.274 N 
ATOM      2  C   UNL     1      -2.236   7.150   1.889  0.00  0.00    +0.288 C 
ATOM      3  O   UNL     1      -2.168   7.886   2.851  0.00  0.00    -0.266 OA
ATOM      4  C   UNL     1      -2.690   7.555   0.524  0.00  0.00    +0.249 C 
ATOM      5  O   UNL     1      -3.087   8.659   0.199  0.00  0.00    -0.282 OA
ATOM      6  C   UNL     1      -2.576   6.444  -0.312  0.00  0.00    +0.082 C 
ATOM      7  C   UNL     1      -2.979   5.759  -1.434  0.00  0.00    +0.141 C 
ATOM      8  O   UNL     1      -2.699   4.439  -1.349  0.00  0.00    -0.453 OA
ATOM      9  C   UNL     1      -2.408   4.103   0.037  0.00  0.00    +0.269 C 
ATOM     10  C   UNL     1      -1.808   5.431   0.514  0.00  0.00    +0.198 C 
ATOM     11  C   UNL     1      -0.346   5.330   0.043  0.00  0.00    +0.226 C 
ATOM     12  C   UNL     1      -0.052   3.844   0.024  0.00  0.00    +0.023 A 
ATOM     13  C   UNL     1      -1.239   3.134   0.029  0.00  0.00    +0.034 A 
ATOM     14  C   UNL     1      -1.218   1.751   0.017  0.00  0.00    +0.010 A 
ATOM     15  C   UNL     1      -0.013   1.076   0.008  0.00  0.00    +0.000 A 
ATOM     16  C   UNL     1       1.174   1.784   0.000  0.00  0.00    +0.000 A 
ATOM     17  C   UNL     1       1.154   3.165   0.009  0.00  0.00    +0.009 A 
ENDROOT
BRANCH   7  18
ATOM     18  C   UNL     1      -3.636   6.388  -2.590  0.00  0.00    +0.021 A 
ATOM     19  C   UNL     1      -3.888   7.765  -2.591  0.00  0.00    +0.015 A 
ATOM     20  C   UNL     1      -4.503   8.351  -3.675  0.00  0.00    +0.050 A 
ATOM     21  C   UNL     1      -4.875   7.579  -4.768  0.00  0.00    +0.162 A 
ATOM     22  C   UNL     1      -4.628   6.206  -4.775  0.00  0.00    +0.162 A 
ATOM     23  C   UNL     1      -4.007   5.612  -3.695  0.00  0.00    +0.061 A 
BRANCH  22  24
ATOM     24  O   UNL     1      -4.994   5.455  -5.847  0.00  0.00    -0.491 OA
ATOM     25  C   UNL     1      -4.710   4.056  -5.786  0.00  0.00    +0.277 C 
ENDBRANCH  22  24
BRANCH  21  26
ATOM     26  O   UNL     1      -5.482   8.163  -5.834  0.00  0.00    -0.491 OA
ATOM     27  C   UNL     1      -5.705   9.572  -5.762  0.00  0.00    +0.277 C 
ENDBRANCH  21  26
ENDBRANCH   7  18
BRANCH  11  28
ATOM     28  O   UNL     1       0.521   5.998   0.961  0.00  0.00    -0.359 OA
ATOM     29  H   UNL     1       1.460   5.923   0.741  0.00  0.00    +0.213 HD
ENDBRANCH  11  28
BRANCH  11  30
ATOM     30  O   UNL     1      -0.206   5.882  -1.268  0.00  0.00    -0.359 OA
ATOM     31  H   UNL     1       0.684   5.799  -1.637  0.00  0.00    +0.213 HD
ENDBRANCH  11  30
BRANCH   9  32
ATOM     32  O   UNL     1      -3.545   3.666   0.785  0.00  0.00    -0.350 OA
ATOM     33  H   UNL     1      -3.918   2.828   0.479  0.00  0.00    +0.214 HD
ENDBRANCH   9  32
BRANCH   1  34
ATOM     34  C   UNL     1      -1.706   4.982   3.062  0.00  0.00    +0.112 C 
BRANCH  34  36
ATOM     35  C   UNL     1       0.119   6.448   3.934  0.00  0.00    +0.009 C 
ATOM     36  C   UNL     1      -0.234   5.032   3.476  0.00  0.00    +0.000 C 
ATOM     37  C   UNL     1       0.006   4.050   4.624  0.00  0.00    +0.009 C 
ENDBRANCH  34  36
ENDBRANCH   1  34
TORSDOF 8
