REMARK  Name = ZINC06563960
REMARK  9 active torsions:
REMARK  status: ('A' for Active; 'I' for Inactive)
REMARK    1  A    between atoms: C_1  and  C_2
REMARK    2  A    between atoms: C_2  and  C_3
REMARK    3  A    between atoms: C_2  and  N_4
REMARK    4  A    between atoms: C_5  and  C_7
REMARK    5  A    between atoms: C_11  and  N_12
REMARK    6  A    between atoms: C_14  and  C_18
REMARK    7  A    between atoms: C_18  and  C_19
REMARK    8  A    between atoms: C_18  and  C_20
REMARK    9  A    between atoms: C_18  and  C_21
REMARK                            x       y       z     vdW  Elec       q    Type
REMARK                         _______ _______ _______ _____ _____    ______ ____
ROOT
ATOM      1  C   UNL     1       3.493  -2.332  -3.953  0.00  0.00    +0.068 A 
ATOM      2  C   UNL     1       2.554  -1.841  -2.958  0.00  0.00    -0.023 A 
ATOM      3  C   UNL     1       2.922  -0.705  -2.329  0.00  0.00    -0.004 A 
ATOM      4  S   UNL     1       4.489  -0.283  -3.037  0.00  0.00    -0.078 S 
ATOM      5  C   UNL     1       4.655  -1.597  -4.154  0.00  0.00    +0.076 A 
ATOM      6  C   UNL     1       2.162   0.027  -1.267  0.00  0.00    +0.046 C 
ATOM      7  C   UNL     1       0.718  -0.497  -1.257  0.00  0.00    -0.000 C 
ATOM      8  C   UNL     1       0.747  -2.029  -1.264  0.00  0.00    +0.009 C 
ATOM      9  C   UNL     1       1.238  -2.533  -2.622  0.00  0.00    +0.037 C 
ENDROOT
BRANCH   1  11
ATOM     10  N   UNL     1       2.561  -3.486  -5.886  0.00  0.00    -0.309 N 
ATOM     11  C   UNL     1       3.225  -3.554  -4.715  0.00  0.00    +0.247 C 
ATOM     12  O   UNL     1       3.603  -4.630  -4.290  0.00  0.00    -0.270 OA
ATOM     13  H   UNL     1       2.261  -2.628  -6.224  0.00  0.00    +0.149 HD
BRANCH  10  15
ATOM     14  C   UNL     1       1.012  -5.363  -6.127  0.00  0.00    +0.027 C 
ATOM     15  C   UNL     1       2.293  -4.708  -6.647  0.00  0.00    +0.067 C 
ATOM     16  C   UNL     1       2.123  -4.360  -8.127  0.00  0.00    +0.027 C 
ENDBRANCH  10  15
ENDBRANCH   1  11
BRANCH   7  17
ATOM     17  C   UNL     1       0.002  -0.004   0.002  0.00  0.00    -0.035 C 
ATOM     18  C   UNL     1      -0.019   1.526   0.010  0.00  0.00    +0.011 C 
ATOM     19  C   UNL     1       0.742  -0.511   1.242  0.00  0.00    +0.011 C 
ATOM     20  C   UNL     1      -1.433  -0.534   0.013  0.00  0.00    +0.011 C 
ENDBRANCH   7  17
BRANCH   5  21
ATOM     21  N   UNL     1       5.691  -1.852  -5.032  0.00  0.00    -0.352 N 
ATOM     22  H   UNL     1       6.452  -1.252  -5.072  0.00  0.00    +0.143 HD
ATOM     23  H   UNL     1       5.658  -2.631  -5.609  0.00  0.00    +0.143 HD
ENDBRANCH   5  21
TORSDOF 4
