REMARK  Name = ZINC00418969
REMARK  7 active torsions:
REMARK  status: ('A' for Active; 'I' for Inactive)
REMARK    1  A    between atoms: C_1  and  C_2
REMARK    2  A    between atoms: C_7  and  C_8
REMARK    3  A    between atoms: C_7  and  C_9
REMARK    4  A    between atoms: C_13  and  S_16
REMARK    5  A    between atoms: S_16  and  C_17
REMARK    6  A    between atoms: C_17  and  C_18
REMARK    7  A    between atoms: N_20  and  C_21
REMARK                            x       y       z     vdW  Elec       q    Type
REMARK                         _______ _______ _______ _____ _____    ______ ____
ROOT
ATOM      1  C   UNL     1      -0.019   1.526   0.010  0.00  0.00    +0.018 C 
ATOM      2  C   UNL     1       0.002  -0.004   0.002  0.00  0.00    +0.018 C 
ATOM      3  C   UNL     1      -1.388  -0.714   0.063  0.00  0.00    +0.014 C 
ATOM      4  C   UNL     1      -1.053  -2.160   0.499  0.00  0.00    +0.011 C 
ATOM      5  C   UNL     1       0.501  -2.159   0.653  0.00  0.00    +0.048 C 
ATOM      6  C   UNL     1       0.727  -0.705   1.210  0.00  0.00    -0.016 C 
ATOM      7  C   UNL     1      -0.008  -0.488   2.534  0.00  0.00    +0.012 C 
ATOM      8  C   UNL     1       2.205  -0.321   1.304  0.00  0.00    +0.012 C 
ATOM      9  C   UNL     1       1.022  -2.003  -0.776  0.00  0.00    +0.089 A 
ATOM     10  C   UNL     1       0.735  -0.663  -1.165  0.00  0.00    +0.074 A 
ATOM     11  N   UNL     1       1.085  -0.245  -2.361  0.00  0.00    -0.223 NA
ATOM     12  C   UNL     1       1.732  -1.081  -3.171  0.00  0.00    +0.210 A 
ATOM     13  N   UNL     1       2.021  -2.317  -2.784  0.00  0.00    -0.122 NA
ATOM     14  N   UNL     1       1.647  -2.816  -1.598  0.00  0.00    -0.150 NA
ENDROOT
BRANCH  12  15
ATOM     15  S   UNL     1       2.210  -0.539  -4.779  0.00  0.00    -0.075 S 
BRANCH  15  16
ATOM     16  C   UNL     1       3.041  -1.982  -5.499  0.00  0.00    +0.173 C 
BRANCH  16  17
ATOM     17  C   UNL     1       3.506  -1.649  -6.893  0.00  0.00    +0.224 C 
ATOM     18  O   UNL     1       3.297  -0.547  -7.356  0.00  0.00    -0.275 OA
ATOM     19  N   UNL     1       4.154  -2.576  -7.627  0.00  0.00    -0.312 N 
ATOM     20  H   UNL     1       4.321  -3.457  -7.257  0.00  0.00    +0.149 HD
BRANCH  19  21
ATOM     21  C   UNL     1       4.606  -2.253  -8.982  0.00  0.00    +0.073 C 
ATOM     22  C   UNL     1       3.483  -2.549  -9.998  0.00  0.00    +0.022 C 
ATOM     23  C   UNL     1       4.229  -3.102 -11.238  0.00  0.00    +0.002 C 
ATOM     24  C   UNL     1       5.355  -3.957 -10.606  0.00  0.00    +0.002 C 
ATOM     25  C   UNL     1       5.796  -3.148  -9.369  0.00  0.00    +0.022 C 
ENDBRANCH  19  21
ENDBRANCH  16  17
ENDBRANCH  15  16
ENDBRANCH  12  15
TORSDOF 4
