REMARK  Name = ZINC17026319
REMARK  11 active torsions:
REMARK  status: ('A' for Active; 'I' for Inactive)
REMARK    1  A    between atoms: C_1  and  C_2
REMARK    2  A    between atoms: C_5  and  C_37
REMARK    3  A    between atoms: C_6  and  N_8
REMARK    4  A    between atoms: C_9  and  C_11
REMARK    5  A    between atoms: C_11  and  S_12
REMARK    6  A    between atoms: S_12  and  C_13
REMARK    7  A    between atoms: C_16  and  C_26
REMARK    8  A    between atoms: N_17  and  C_18
REMARK    9  A    between atoms: C_20  and  C_25
REMARK   10  A    between atoms: C_23  and  C_24
REMARK   11  A    between atoms: C_26  and  C_27
REMARK                            x       y       z     vdW  Elec       q    Type
REMARK                         _______ _______ _______ _____ _____    ______ ____
ROOT
ATOM      1  C   UNL     1       1.296   1.752  -0.032  0.00  0.00    +0.197 A 
ATOM      2  N   UNL     1       2.019   0.656  -0.051  0.00  0.00    -0.122 NA
ATOM      3  N   UNL     1       1.252  -0.375  -0.059  0.00  0.00    -0.133 NA
ATOM      4  C   UNL     1       0.003  -0.005  -0.046  0.00  0.00    +0.144 A 
ATOM      5  N   UNL     1      -0.016   1.365  -0.028  0.00  0.00    -0.274 N 
ENDROOT
BRANCH   5   6
ATOM      6  C   UNL     1      -1.145   2.197  -0.014  0.00  0.00    +0.053 A 
ATOM      7  C   UNL     1      -1.705   2.589   1.195  0.00  0.00    +0.030 A 
ATOM      8  C   UNL     1      -2.813   3.413   1.205  0.00  0.00    -0.048 A 
ATOM      9  C   UNL     1      -3.372   3.838   0.014  0.00  0.00    +0.004 A 
ATOM     10  C   UNL     1      -2.820   3.444  -1.191  0.00  0.00    +0.005 A 
ATOM     11  C   UNL     1      -1.708   2.625  -1.208  0.00  0.00    -0.026 A 
ATOM     12  C   UNL     1      -1.106   2.197  -2.522  0.00  0.00    +0.046 C 
ATOM     13  C   UNL     1      -3.418   3.844   2.516  0.00  0.00    +0.044 C 
ENDBRANCH   5   6
BRANCH   1  14
ATOM     14  S   UNL     1       1.901   3.406  -0.015  0.00  0.00    -0.076 S 
BRANCH  14  15
ATOM     15  C   UNL     1       3.683   3.090  -0.032  0.00  0.00    +0.173 C 
BRANCH  15  17
ATOM     16  N   UNL     1       5.774   4.412  -0.030  0.00  0.00    -0.285 N 
ATOM     17  C   UNL     1       4.426   4.401  -0.021  0.00  0.00    +0.227 C 
ATOM     18  O   UNL     1       3.811   5.447  -0.003  0.00  0.00    -0.275 OA
ATOM     19  H   UNL     1       6.266   3.579   0.037  0.00  0.00    +0.155 HD
BRANCH  16  25
ATOM     20  C   UNL     1       5.871   9.111  -1.471  0.00  0.00    +0.044 C 
ATOM     21  C   UNL     1       6.534   7.919  -0.830  0.00  0.00    -0.049 A 
ATOM     22  C   UNL     1       7.825   8.024  -0.347  0.00  0.00    +0.004 A 
ATOM     23  C   UNL     1       8.437   6.932   0.241  0.00  0.00    +0.005 A 
ATOM     24  C   UNL     1       7.760   5.733   0.348  0.00  0.00    -0.029 A 
ATOM     25  C   UNL     1       6.463   5.625  -0.137  0.00  0.00    +0.037 A 
ATOM     26  C   UNL     1       5.853   6.722  -0.732  0.00  0.00    +0.027 A 
ATOM     27  C   UNL     1       8.427   4.544   0.989  0.00  0.00    +0.045 C 
ENDBRANCH  16  25
ENDBRANCH  15  17
ENDBRANCH  14  15
ENDBRANCH   1  14
BRANCH   4  28
ATOM     28  C   UNL     1      -1.199  -0.915  -0.048  0.00  0.00    +0.130 C 
BRANCH  28  29
ATOM     29  C   UNL     1      -1.610  -1.200  -1.470  0.00  0.00    +0.033 A 
ATOM     30  C   UNL     1      -1.169  -2.313  -2.094  0.00  0.00    +0.091 A 
ATOM     31  C   UNL     1      -1.569  -2.559  -3.429  0.00  0.00    +0.254 A 
ATOM     32  O   UNL     1      -1.185  -3.556  -4.012  0.00  0.00    -0.268 OA
ATOM     33  N   UNL     1      -2.380  -1.678  -4.050  0.00  0.00    -0.275 N 
ATOM     34  H   UNL     1      -2.667  -1.844  -4.993  0.00  0.00    +0.173 HD
ATOM     35  C   UNL     1      -2.805  -0.576  -3.404  0.00  0.00    +0.327 A 
ATOM     36  O   UNL     1      -3.535   0.209  -3.976  0.00  0.00    -0.247 OA
ATOM     37  N   UNL     1      -2.436  -0.334  -2.133  0.00  0.00    -0.311 N 
ATOM     38  H   UNL     1      -2.769   0.487  -1.669  0.00  0.00    +0.170 HD
ENDBRANCH  28  29
ENDBRANCH   4  28
TORSDOF 7
