REMARK  Name = ZINC38664937
REMARK  12 active torsions:
REMARK  status: ('A' for Active; 'I' for Inactive)
REMARK    1  A    between atoms: C_1  and  O_2
REMARK    2  A    between atoms: O_2  and  C_3
REMARK    3  A    between atoms: N_15  and  C_17
REMARK    4  A    between atoms: C_17  and  C_18
REMARK    5  A    between atoms: C_18  and  C_19
REMARK    6  A    between atoms: C_19  and  C_20
REMARK    7  A    between atoms: C_20  and  C_21
REMARK    8  A    between atoms: C_21  and  C_22
REMARK    9  A    between atoms: C_22  and  C_23
REMARK   10  A    between atoms: C_23  and  C_24
REMARK   11  A    between atoms: C_24  and  N_25
REMARK   12  A    between atoms: C_38  and  O_41
REMARK                            x       y       z     vdW  Elec       q    Type
REMARK                         _______ _______ _______ _____ _____    ______ ____
ROOT
ATOM      1  C   UNL     1       0.626  -0.618   1.041  0.00  0.00    +0.162 A 
ATOM      2  C   UNL     1       1.213   0.117   2.068  0.00  0.00    +0.050 A 
ATOM      3  C   UNL     1       1.877  -0.488   3.108  0.00  0.00    +0.013 A 
ATOM      4  C   UNL     1       1.976  -1.890   3.198  0.00  0.00    -0.001 A 
ATOM      5  C   UNL     1       1.328  -2.624   2.212  0.00  0.00    +0.020 A 
ATOM      6  C   UNL     1       0.698  -2.014   1.123  0.00  0.00    +0.167 A 
ATOM      7  O   UNL     1       0.252  -2.934   0.235  0.00  0.00    -0.484 OA
ATOM      8  C   UNL     1       0.912  -4.187   0.516  0.00  0.00    +0.191 C 
ATOM      9  C   UNL     1       1.158  -4.101   2.021  0.00  0.00    +0.057 C 
ATOM     10  C   UNL     1       2.357  -4.891   2.472  0.00  0.00    +0.040 C 
ATOM     11  C   UNL     1       2.504  -4.909   3.972  0.00  0.00    +0.117 C 
ATOM     12  N   UNL     1       2.999  -3.687   4.548  0.00  0.00    -0.376 N 
ATOM     13  C   UNL     1       2.761  -2.490   4.265  0.00  0.00    +0.089 C 
ATOM     14  C   UNL     1      -0.064  -4.539   2.781  0.00  0.00    -0.013 C 
ATOM     15  C   UNL     1      -1.093  -5.117   2.267  0.00  0.00    +0.001 C 
ATOM     16  C   UNL     1      -1.242  -5.440   0.815  0.00  0.00    +0.141 C 
ATOM     17  C   UNL     1       0.063  -5.360   0.099  0.00  0.00    +0.081 C 
ENDROOT
BRANCH   1  19
ATOM     18  C   UNL     1      -0.017   1.425   0.010  0.00  0.00    +0.277 C 
ATOM     19  O   UNL     1       0.002  -0.004   0.002  0.00  0.00    -0.491 OA
ENDBRANCH   1  19
BRANCH  16  20
ATOM     20  O   UNL     1      -1.766  -6.763   0.683  0.00  0.00    -0.388 OA
ATOM     21  H   UNL     1      -2.631  -6.887   1.097  0.00  0.00    +0.210 HD
ENDBRANCH  16  20
BRANCH  12  22
ATOM     22  C   UNL     1       3.942  -3.875   5.654  0.00  0.00    +0.116 C 
BRANCH  22  23
ATOM     23  C   UNL     1       3.223  -4.541   6.829  0.00  0.00    +0.021 C 
BRANCH  23  24
ATOM     24  C   UNL     1       4.207  -4.737   7.984  0.00  0.00    +0.002 C 
BRANCH  24  25
ATOM     25  C   UNL     1       3.489  -5.403   9.159  0.00  0.00    +0.000 C 
BRANCH  25  26
ATOM     26  C   UNL     1       4.473  -5.599  10.314  0.00  0.00    +0.000 C 
BRANCH  26  27
ATOM     27  C   UNL     1       3.754  -6.265  11.489  0.00  0.00    +0.002 C 
BRANCH  27  28
ATOM     28  C   UNL     1       4.738  -6.461  12.644  0.00  0.00    +0.019 C 
BRANCH  28  29
ATOM     29  C   UNL     1       4.020  -7.127  13.819  0.00  0.00    +0.117 C 
BRANCH  29  30
ATOM     30  N   UNL     1       4.962  -7.315  14.925  0.00  0.00    -0.234 N 
ATOM     31  C   UNL     1       5.727  -8.408  15.096  0.00  0.00    +0.254 C 
ATOM     32  O   UNL     1       5.745  -9.382  14.369  0.00  0.00    -0.270 OA
ATOM     33  C   UNL     1       6.542  -8.227  16.316  0.00  0.00    +0.049 A 
ATOM     34  C   UNL     1       7.486  -8.999  16.972  0.00  0.00    +0.014 A 
ATOM     35  C   UNL     1       8.081  -8.521  18.129  0.00  0.00    +0.001 A 
ATOM     36  C   UNL     1       7.739  -7.280  18.632  0.00  0.00    +0.001 A 
ATOM     37  C   UNL     1       6.795  -6.496  17.986  0.00  0.00    +0.014 A 
ATOM     38  C   UNL     1       6.192  -6.961  16.828  0.00  0.00    +0.049 A 
ATOM     39  C   UNL     1       5.181  -6.414  15.899  0.00  0.00    +0.254 C 
ATOM     40  O   UNL     1       4.636  -5.333  16.001  0.00  0.00    -0.270 OA
ENDBRANCH  29  30
ENDBRANCH  28  29
ENDBRANCH  27  28
ENDBRANCH  26  27
ENDBRANCH  25  26
ENDBRANCH  24  25
ENDBRANCH  23  24
ENDBRANCH  22  23
ENDBRANCH  12  22
TORSDOF 11
