REMARK  Name = ZINC08791032
REMARK  10 active torsions:
REMARK  status: ('A' for Active; 'I' for Inactive)
REMARK    1  A    between atoms: C_1  and  C_2
REMARK    2  A    between atoms: C_16  and  C_18
REMARK    3  A    between atoms: C_18  and  C_19
REMARK    4  A    between atoms: N_24  and  C_27
REMARK    5  A    between atoms: C_27  and  C_28
REMARK    6  A    between atoms: C_28  and  C_29
REMARK    7  A    between atoms: C_32  and  O_37
REMARK    8  A    between atoms: C_33  and  O_35
REMARK    9  A    between atoms: O_35  and  C_36
REMARK   10  A    between atoms: O_37  and  C_38
REMARK                            x       y       z     vdW  Elec       q    Type
REMARK                         _______ _______ _______ _____ _____    ______ ____
ROOT
ATOM      1  C   UNL     1      -0.359   7.420   3.292  0.00  0.00    +0.045 C 
ATOM      2  C   UNL     1       0.185   6.395   2.331  0.00  0.00    -0.029 A 
ATOM      3  C   UNL     1       1.472   6.519   1.849  0.00  0.00    +0.005 A 
ATOM      4  C   UNL     1       1.980   5.584   0.966  0.00  0.00    +0.001 A 
ATOM      5  C   UNL     1       1.194   4.519   0.563  0.00  0.00    +0.004 A 
ATOM      6  C   UNL     1      -0.091   4.391   1.041  0.00  0.00    -0.027 A 
ATOM      7  C   UNL     1      -0.613   5.326   1.931  0.00  0.00    +0.039 A 
ATOM      8  N   UNL     1      -1.924   4.987   2.273  0.00  0.00    -0.286 N 
ATOM      9  C   UNL     1      -2.333   3.860   1.661  0.00  0.00    +0.211 C 
ATOM     10  O   UNL     1      -3.419   3.330   1.770  0.00  0.00    -0.277 OA
ATOM     11  C   UNL     1      -1.183   3.385   0.816  0.00  0.00    +0.050 C 
ATOM     12  C   UNL     1      -1.575   3.301  -0.665  0.00  0.00    +0.088 C 
ATOM     13  C   UNL     1      -0.809   2.059  -1.203  0.00  0.00    +0.073 C 
ATOM     14  C   UNL     1      -0.019   1.526   0.010  0.00  0.00    -0.049 C 
ATOM     15  C   UNL     1      -1.918   1.087  -1.542  0.00  0.00    +0.224 C 
ATOM     16  O   UNL     1      -1.759  -0.029  -1.988  0.00  0.00    -0.275 OA
ATOM     17  N   UNL     1      -3.102   1.651  -1.274  0.00  0.00    -0.241 N 
ATOM     18  C   UNL     1      -3.027   2.893  -0.781  0.00  0.00    +0.225 C 
ATOM     19  O   UNL     1      -3.975   3.583  -0.475  0.00  0.00    -0.275 OA
ATOM     20  H   UNL     1      -2.475   5.504   2.881  0.00  0.00    +0.155 HD
ATOM     21  N   UNL     1      -0.751   2.044   1.168  0.00  0.00    +0.394 N 
ATOM     22  H   UNL     1      -1.565   1.450   1.368  0.00  0.00    -0.083 HD
ATOM     23  H   UNL     1      -0.138   2.073   1.992  0.00  0.00    -0.083 HD
ENDROOT
BRANCH  14  24
ATOM     24  C   UNL     1       0.002  -0.004   0.002  0.00  0.00    +0.080 C 
BRANCH  24  25
ATOM     25  C   UNL     1       0.849  -0.501   1.145  0.00  0.00    +0.209 C 
ATOM     26  O   UNL     1       1.383   0.290   1.893  0.00  0.00    -0.276 OA
ATOM     27  N   UNL     1       1.012  -1.825   1.337  0.00  0.00    -0.329 N 
ATOM     28  H   UNL     1       0.585  -2.458   0.738  0.00  0.00    +0.145 HD
ATOM     29  H   UNL     1       1.558  -2.145   2.072  0.00  0.00    +0.145 HD
ENDBRANCH  24  25
ENDBRANCH  14  24
BRANCH  17  30
ATOM     30  C   UNL     1      -4.376   0.964  -1.501  0.00  0.00    +0.121 C 
BRANCH  30  31
ATOM     31  C   UNL     1      -4.868   1.259  -2.919  0.00  0.00    +0.054 C 
BRANCH  31  32
ATOM     32  C   UNL     1      -6.179   0.553  -3.153  0.00  0.00    -0.042 A 
ATOM     33  C   UNL     1      -6.188  -0.730  -3.670  0.00  0.00    +0.007 A 
ATOM     34  C   UNL     1      -7.388  -1.384  -3.881  0.00  0.00    +0.049 A 
ATOM     35  C   UNL     1      -8.584  -0.750  -3.585  0.00  0.00    +0.161 A 
ATOM     36  C   UNL     1      -8.574   0.542  -3.070  0.00  0.00    +0.162 A 
ATOM     37  C   UNL     1      -7.369   1.190  -2.856  0.00  0.00    +0.053 A 
BRANCH  36  38
ATOM     38  O   UNL     1      -9.746   1.168  -2.778  0.00  0.00    -0.491 OA
ATOM     39  C   UNL     1      -9.659   2.494  -2.252  0.00  0.00    +0.277 C 
ENDBRANCH  36  38
BRANCH  35  40
ATOM     40  O   UNL     1      -9.765  -1.390  -3.798  0.00  0.00    -0.491 OA
ATOM     41  C   UNL     1      -9.698  -2.716  -4.329  0.00  0.00    +0.277 C 
ENDBRANCH  35  40
ENDBRANCH  31  32
ENDBRANCH  30  31
ENDBRANCH  17  30
TORSDOF 7
