REMARK  Name = ZINC39529235
REMARK  10 active torsions:
REMARK  status: ('A' for Active; 'I' for Inactive)
REMARK    1  A    between atoms: C_1  and  C_2
REMARK    2  A    between atoms: C_2  and  C_3
REMARK    3  A    between atoms: C_3  and  C_4
REMARK    4  A    between atoms: C_6  and  S_27
REMARK    5  A    between atoms: C_9  and  N_10
REMARK    6  A    between atoms: C_14  and  S_17
REMARK    7  A    between atoms: S_17  and  O_20
REMARK    8  A    between atoms: O_20  and  C_21
REMARK    9  A    between atoms: S_27  and  O_30
REMARK   10  A    between atoms: O_30  and  C_31
REMARK                            x       y       z     vdW  Elec       q    Type
REMARK                         _______ _______ _______ _____ _____    ______ ____
ROOT
ATOM      1  C   UNL     1       0.739  -2.004  -1.265  0.00  0.00    -0.024 A 
ATOM      2  C   UNL     1       1.834  -2.684  -0.769  0.00  0.00    +0.036 A 
ATOM      3  C   UNL     1       1.854  -4.066  -0.776  0.00  0.00    +0.128 A 
ATOM      4  C   UNL     1       0.777  -4.774  -1.280  0.00  0.00    +0.032 A 
ATOM      5  C   UNL     1      -0.321  -4.101  -1.778  0.00  0.00    +0.025 A 
ATOM      6  C   UNL     1      -0.346  -2.712  -1.767  0.00  0.00    +0.033 A 
ENDROOT
BRANCH   6   7
ATOM      7  N   UNL     1      -1.458  -2.028  -2.264  0.00  0.00    -0.331 N 
ATOM      8  C   UNL     1      -1.541  -1.650  -3.683  0.00  0.00    +0.086 C 
ATOM      9  C   UNL     1      -2.893  -2.116  -4.233  0.00  0.00    -0.061 C 
ATOM     10  N   UNL     1      -3.972  -1.575  -3.397  0.00  0.00    +0.398 N 
ATOM     11  C   UNL     1      -3.883  -2.132  -2.042  0.00  0.00    +0.133 C 
ATOM     12  C   UNL     1      -2.582  -1.671  -1.385  0.00  0.00    +0.115 C 
ATOM     13  H   UNL     1      -3.890  -0.570  -3.353  0.00  0.00    -0.083 HD
ATOM     14  H   UNL     1      -4.864  -1.819  -3.802  0.00  0.00    -0.083 HD
BRANCH  11  15
ATOM     15  S   UNL     1      -5.295  -1.559  -1.058  0.00  0.00    +0.109 S 
ATOM     16  O   UNL     1      -5.322  -2.227   0.196  0.00  0.00    -0.138 OA
ATOM     17  O   UNL     1      -5.398  -0.143  -1.127  0.00  0.00    -0.138 OA
BRANCH  15  18
ATOM     18  O   UNL     1      -6.522  -2.073  -1.798  0.00  0.00    -0.347 OA
BRANCH  18  19
ATOM     19  C   UNL     1      -6.740  -3.406  -1.647  0.00  0.00    +0.156 A 
ATOM     20  C   UNL     1      -6.171  -4.308  -2.533  0.00  0.00    +0.048 A 
ATOM     21  C   UNL     1      -6.395  -5.663  -2.377  0.00  0.00    +0.004 A 
ATOM     22  C   UNL     1      -7.185  -6.119  -1.338  0.00  0.00    +0.000 A 
ATOM     23  C   UNL     1      -7.754  -5.221  -0.454  0.00  0.00    +0.004 A 
ATOM     24  C   UNL     1      -7.529  -3.866  -0.602  0.00  0.00    +0.048 A 
ENDBRANCH  18  19
ENDBRANCH  15  18
ENDBRANCH  11  15
ENDBRANCH   6   7
BRANCH   3  25
ATOM     25  S   UNL     1       3.254  -4.929  -0.143  0.00  0.00    +0.151 S 
ATOM     26  O   UNL     1       3.257  -6.207  -0.763  0.00  0.00    -0.131 OA
ATOM     27  O   UNL     1       4.355  -4.036  -0.232  0.00  0.00    -0.131 OA
BRANCH  25  28
ATOM     28  O   UNL     1       3.004  -5.165   1.339  0.00  0.00    -0.342 OA
BRANCH  28  29
ATOM     29  C   UNL     1       2.101  -6.147   1.598  0.00  0.00    +0.157 A 
ATOM     30  C   UNL     1       0.752  -5.841   1.704  0.00  0.00    +0.048 A 
ATOM     31  C   UNL     1      -0.164  -6.841   1.967  0.00  0.00    +0.004 A 
ATOM     32  C   UNL     1       0.263  -8.147   2.124  0.00  0.00    +0.000 A 
ATOM     33  C   UNL     1       1.607  -8.455   2.019  0.00  0.00    +0.004 A 
ATOM     34  C   UNL     1       2.526  -7.459   1.751  0.00  0.00    +0.048 A 
ENDBRANCH  28  29
ENDBRANCH  25  28
ENDBRANCH   3  25
BRANCH   1  35
ATOM     35  C   UNL     1       0.718  -0.497  -1.257  0.00  0.00    +0.037 C 
BRANCH  35  37
ATOM     36  C   UNL     1      -0.019   1.526   0.010  0.00  0.00    +0.004 C 
ATOM     37  C   UNL     1       0.002  -0.004   0.002  0.00  0.00    +0.001 C 
ENDBRANCH  35  37
ENDBRANCH   1  35
TORSDOF 9
