REMARK  Name = ZINC20584867
REMARK  6 active torsions:
REMARK  status: ('A' for Active; 'I' for Inactive)
REMARK    1  A    between atoms: C_1  and  C_2
REMARK    2  A    between atoms: C_4  and  N_11
REMARK    3  A    between atoms: C_5  and  O_9
REMARK    4  A    between atoms: O_9  and  C_10
REMARK    5  A    between atoms: N_11  and  C_12
REMARK    6  A    between atoms: C_15  and  N_19
REMARK                            x       y       z     vdW  Elec       q    Type
REMARK                         _______ _______ _______ _____ _____    ______ ____
ROOT
ATOM      1  N   UNL     1      -4.872   3.687   0.045  0.00  0.00    -0.311 N 
ATOM      2  H   UNL     1      -5.815   3.129  -0.045  0.00  0.00    +0.152 HD
ENDROOT
BRANCH   1   6
ATOM      3  C   UNL     1      -2.432   7.950   0.269  0.00  0.00    +0.045 C 
ATOM      4  C   UNL     1      -3.725   7.175   0.269  0.00  0.00    -0.030 A 
ATOM      5  C   UNL     1      -3.703   5.797   0.157  0.00  0.00    +0.031 A 
ATOM      6  C   UNL     1      -4.891   5.082   0.158  0.00  0.00    +0.074 A 
ATOM      7  C   UNL     1      -6.106   5.757   0.266  0.00  0.00    +0.143 A 
ATOM      8  C   UNL     1      -6.120   7.137   0.384  0.00  0.00    +0.067 A 
ATOM      9  C   UNL     1      -4.930   7.844   0.383  0.00  0.00    +0.047 A 
ATOM     10 CL   UNL     1      -4.951   9.574   0.523  0.00  0.00    -0.083 Cl
BRANCH   7  11
ATOM     11  O   UNL     1      -7.275   5.062   0.262  0.00  0.00    -0.493 OA
ATOM     12  C   UNL     1      -8.481   5.819   0.376  0.00  0.00    +0.277 C 
ENDBRANCH   7  11
ENDBRANCH   1   6
BRANCH   1  13
ATOM     13  C   UNL     1      -3.650   3.002   0.045  0.00  0.00    +0.050 A 
ATOM     14  C   UNL     1      -3.167   2.443  -1.131  0.00  0.00    +0.026 A 
ATOM     15  C   UNL     1      -1.960   1.772  -1.132  0.00  0.00    +0.024 A 
ATOM     16  C   UNL     1      -1.234   1.646   0.045  0.00  0.00    +0.026 A 
ATOM     17  C   UNL     1      -1.717   2.204   1.222  0.00  0.00    +0.044 A 
ATOM     18  C   UNL     1      -2.921   2.881   1.222  0.00  0.00    +0.064 A 
ATOM     19 CL   UNL     1      -3.525   3.579   2.692  0.00  0.00    -0.082 Cl
BRANCH  16  20
ATOM     20  N   UNL     1      -0.014   0.961   0.045  0.00  0.00    -0.358 N 
ATOM     21  H   UNL     1       0.561   0.860   0.977  0.00  0.00    +0.142 HD
ATOM     22  H   UNL     1       0.371   0.522  -0.888  0.00  0.00    +0.142 HD
ENDBRANCH  16  20
ENDBRANCH   1  13
TORSDOF 4
