REMARK  Name = ZINC17444980
REMARK  10 active torsions:
REMARK  status: ('A' for Active; 'I' for Inactive)
REMARK    1  A    between atoms: C_1  and  C_2
REMARK    2  A    between atoms: C_6  and  C_35
REMARK    3  A    between atoms: C_7  and  C_13
REMARK    4  A    between atoms: C_13  and  C_14
REMARK    5  A    between atoms: C_14  and  C_15
REMARK    6  A    between atoms: N_17  and  N_18
REMARK    7  A    between atoms: C_19  and  C_21
REMARK    8  A    between atoms: C_23  and  C_34
REMARK    9  A    between atoms: N_24  and  C_27
REMARK   10  A    between atoms: C_25  and  C_26
REMARK                            x       y       z     vdW  Elec       q    Type
REMARK                         _______ _______ _______ _____ _____    ______ ____
ROOT
ATOM      1  C   UNL     1      -0.742   1.585  -1.213  0.00  0.00    +0.229 C 
ATOM      2  O   UNL     1      -1.736   2.268  -1.088  0.00  0.00    -0.274 OA
ATOM      3  N   UNL     1      -0.288   1.272  -2.443  0.00  0.00    -0.234 N 
ATOM      4  H   UNL     1       0.507   0.726  -2.543  0.00  0.00    +0.173 HD
ENDROOT
BRANCH   3   5
ATOM      5  N   UNL     1      -0.966   1.736  -3.578  0.00  0.00    -0.230 N 
ATOM      6  C   UNL     1      -0.513   1.424  -4.808  0.00  0.00    +0.262 C 
ATOM      7  O   UNL     1       0.484   0.739  -4.933  0.00  0.00    -0.269 OA
ATOM      8  H   UNL     1      -1.761   2.283  -3.479  0.00  0.00    +0.173 HD
BRANCH   6   9
ATOM      9  C   UNL     1      -1.225   1.911  -6.001  0.00  0.00    +0.059 A 
ATOM     10  C   UNL     1      -2.434   2.742  -6.027  0.00  0.00    +0.036 A 
ATOM     11  C   UNL     1      -2.728   2.943  -7.324  0.00  0.00    +0.022 A 
ATOM     12  N   UNL     1      -1.797   2.302  -8.092  0.00  0.00    -0.317 N 
ATOM     13  C   UNL     1      -0.889   1.686  -7.308  0.00  0.00    +0.033 A 
ATOM     14  C   UNL     1       0.291   0.883  -7.789  0.00  0.00    +0.064 C 
ATOM     15  C   UNL     1      -3.894   3.744  -7.845  0.00  0.00    +0.064 C 
BRANCH  12  16
ATOM     16  C   UNL     1      -1.784   2.292  -9.495  0.00  0.00    +0.047 A 
ATOM     17  C   UNL     1      -1.971   1.100 -10.182  0.00  0.00    +0.029 A 
ATOM     18  C   UNL     1      -1.963   1.092 -11.563  0.00  0.00    +0.040 A 
ATOM     19  C   UNL     1      -1.759   2.270 -12.262  0.00  0.00    +0.124 A 
ATOM     20  C   UNL     1      -1.567   3.459 -11.578  0.00  0.00    +0.040 A 
ATOM     21  C   UNL     1      -1.579   3.471 -10.197  0.00  0.00    +0.029 A 
ATOM     22  F   UNL     1      -1.746   2.260 -13.613  0.00  0.00    -0.205 F 
ENDBRANCH  12  16
ENDBRANCH   6   9
ENDBRANCH   3   5
BRANCH   1  23
ATOM     23  C   UNL     1      -0.013   1.086   0.008  0.00  0.00    +0.102 C 
BRANCH  23  24
ATOM     24  C   UNL     1      -0.729   1.579   1.267  0.00  0.00    +0.052 C 
BRANCH  24  31
ATOM     25  C   UNL     1       3.624  -0.284   7.681  0.00  0.00    +0.044 C 
ATOM     26  C   UNL     1       2.932   0.268   6.462  0.00  0.00    -0.047 A 
ATOM     27  C   UNL     1       3.323   1.495   5.946  0.00  0.00    +0.004 A 
ATOM     28  C   UNL     1       2.707   2.011   4.841  0.00  0.00    +0.012 A 
ATOM     29  C   UNL     1       1.675   1.296   4.225  0.00  0.00    +0.021 A 
ATOM     30  C   UNL     1       0.994   1.822   3.038  0.00  0.00    -0.030 A 
ATOM     31  C   UNL     1       0.000   1.080   2.488  0.00  0.00    +0.041 A 
ATOM     32  C   UNL     1      -0.353  -0.159   3.066  0.00  0.00    +0.341 A 
ATOM     33  O   UNL     1      -1.250  -0.813   2.566  0.00  0.00    -0.245 OA
ATOM     34  O   UNL     1       0.279  -0.636   4.149  0.00  0.00    -0.422 OA
ATOM     35  C   UNL     1       1.276   0.053   4.745  0.00  0.00    +0.140 A 
ATOM     36  C   UNL     1       1.916  -0.453   5.869  0.00  0.00    +0.050 A 
ATOM     37  C   UNL     1       1.387   3.151   2.445  0.00  0.00    +0.045 C 
ENDBRANCH  24  31
ENDBRANCH  23  24
ENDBRANCH   1  23
TORSDOF 6
