REMARK  Name = ZINC63091802
REMARK  7 active torsions:
REMARK  status: ('A' for Active; 'I' for Inactive)
REMARK    1  A    between atoms: C_1  and  C_2
REMARK    2  A    between atoms: C_2  and  C_4
REMARK    3  A    between atoms: C_2  and  N_9
REMARK    4  A    between atoms: C_4  and  C_5
REMARK    5  A    between atoms: N_6  and  O_7
REMARK    6  A    between atoms: N_9  and  C_10
REMARK    7  A    between atoms: N_13  and  C_14
REMARK                            x       y       z     vdW  Elec       q    Type
REMARK                         _______ _______ _______ _____ _____    ______ ____
ROOT
ATOM      1  N   UNL     1       0.697  -0.463  -1.204  0.00  0.00    -0.285 N 
ATOM      2  C   UNL     1       0.185  -0.101  -2.528  0.00  0.00    +0.134 C 
ATOM      3  C   UNL     1       1.797  -1.233  -1.095  0.00  0.00    +0.306 C 
ATOM      4  O   UNL     1       2.223  -1.533   0.004  0.00  0.00    -0.252 OA
ATOM      5  N   UNL     1       2.426  -1.672  -2.203  0.00  0.00    -0.268 N 
ATOM      6  H   UNL     1       2.042  -1.502  -3.078  0.00  0.00    +0.156 HD
ENDROOT
BRANCH   5   7
ATOM      7  C   UNL     1       3.633  -2.372  -2.093  0.00  0.00    +0.055 A 
ATOM      8  C   UNL     1       4.442  -2.192  -0.979  0.00  0.00    +0.044 A 
ATOM      9  C   UNL     1       5.634  -2.885  -0.873  0.00  0.00    +0.043 A 
ATOM     10  C   UNL     1       6.020  -3.758  -1.876  0.00  0.00    +0.021 A 
ATOM     11  C   UNL     1       5.216  -3.940  -2.985  0.00  0.00    +0.023 A 
ATOM     12  C   UNL     1       4.020  -3.254  -3.094  0.00  0.00    +0.062 A 
ATOM     13 CL   UNL     1       3.008  -3.488  -4.485  0.00  0.00    -0.082 Cl
ATOM     14 CL   UNL     1       6.647  -2.661   0.519  0.00  0.00    -0.083 Cl
ENDBRANCH   5   7
BRANCH   1  16
ATOM     15  C   UNL     1       0.007   1.544   0.013  0.00  0.00    +0.028 C 
ATOM     16  C   UNL     1       0.014   0.014   0.001  0.00  0.00    +0.081 C 
BRANCH  16  17
ATOM     17  C   UNL     1      -1.427  -0.503   0.009  0.00  0.00    +0.096 C 
BRANCH  17  18
ATOM     18  C   UNL     1      -1.421  -2.005   0.121  0.00  0.00    +0.133 C 
ATOM     19  N   UNL     1      -0.300  -2.643   0.193  0.00  0.00    -0.077 NA
ATOM     20  N   UNL     1      -2.610  -2.699   0.147  0.00  0.00    -0.344 N 
ATOM     21  H   UNL     1      -3.452  -2.220   0.093  0.00  0.00    +0.144 HD
ATOM     22  H   UNL     1      -2.607  -3.666   0.220  0.00  0.00    +0.144 HD
BRANCH  19  23
ATOM     23  O   UNL     1      -0.294  -4.055   0.299  0.00  0.00    -0.408 OA
ATOM     24  H   UNL     1       0.591  -4.443   0.348  0.00  0.00    +0.328 HD
ENDBRANCH  19  23
ENDBRANCH  17  18
ENDBRANCH  16  17
ENDBRANCH   1  16
TORSDOF 5
