REMARK  Name = ZINC36207082
REMARK  16 active torsions:
REMARK  status: ('A' for Active; 'I' for Inactive)
REMARK    1  A    between atoms: C_1  and  C_2
REMARK    2  A    between atoms: C_5  and  C_34
REMARK    3  A    between atoms: C_6  and  C_8
REMARK    4  A    between atoms: C_17  and  C_19
REMARK    5  A    between atoms: C_19  and  N_20
REMARK    6  A    between atoms: N_20  and  C_21
REMARK    7  A    between atoms: N_20  and  C_25
REMARK    8  A    between atoms: C_21  and  C_22
REMARK    9  A    between atoms: C_22  and  O_23
REMARK   10  A    between atoms: O_23  and  C_24
REMARK   11  A    between atoms: C_25  and  C_26
REMARK   12  A    between atoms: C_26  and  C_28
REMARK   13  A    between atoms: C_26  and  O_33
REMARK   14  A    between atoms: C_28  and  O_29
REMARK   15  A    between atoms: O_29  and  C_30
REMARK   16  A    between atoms: C_30  and  C_31
REMARK                            x       y       z     vdW  Elec       q    Type
REMARK                         _______ _______ _______ _____ _____    ______ ____
ROOT
ATOM      1  C   UNL     1      -1.540  -3.567   3.408  0.00  0.00    +0.004 A 
ATOM      2  C   UNL     1      -2.526  -3.993   4.233  0.00  0.00    +0.056 A 
ATOM      3  S   UNL     1      -1.656  -4.968   5.446  0.00  0.00    -0.076 S 
ATOM      4  C   UNL     1      -0.005  -4.783   4.823  0.00  0.00    +0.116 A 
ATOM      5  C   UNL     1      -0.168  -3.974   3.686  0.00  0.00    +0.080 A 
ATOM      6  C   UNL     1       1.032  -3.663   2.970  0.00  0.00    +0.260 A 
ATOM      7  O   UNL     1       0.994  -2.963   1.973  0.00  0.00    -0.267 OA
ATOM      8  N   UNL     1       2.204  -4.154   3.416  0.00  0.00    -0.312 N 
ATOM      9  H   UNL     1       3.020  -3.946   2.935  0.00  0.00    +0.170 HD
ATOM     10  C   UNL     1       2.265  -4.934   4.525  0.00  0.00    +0.094 A 
ATOM     11  N   UNL     1       1.189  -5.228   5.205  0.00  0.00    -0.229 NA
ENDROOT
BRANCH   1  17
ATOM     12  C   UNL     1      -3.186   0.763   1.547  0.00  0.00    +0.044 C 
ATOM     13  C   UNL     1      -2.642  -0.627   1.342  0.00  0.00    -0.050 A 
ATOM     14  C   UNL     1      -2.433  -1.104   0.060  0.00  0.00    +0.003 A 
ATOM     15  C   UNL     1      -1.934  -2.379  -0.136  0.00  0.00    +0.004 A 
ATOM     16  C   UNL     1      -1.642  -3.183   0.947  0.00  0.00    -0.043 A 
ATOM     17  C   UNL     1      -1.851  -2.708   2.241  0.00  0.00    -0.013 A 
ATOM     18  C   UNL     1      -2.348  -1.419   2.432  0.00  0.00    +0.012 A 
ATOM     19  C   UNL     1      -1.100  -4.572   0.731  0.00  0.00    +0.044 C 
ENDBRANCH   1  17
BRANCH  10  20
ATOM     20  C   UNL     1       3.599  -5.462   4.986  0.00  0.00    -0.003 C 
BRANCH  20  21
ATOM     21  N   UNL     1       3.398  -6.381   6.115  0.00  0.00    +0.388 N 
ATOM     22  H   UNL     1       2.852  -5.923   6.829  0.00  0.00    -0.081 HD
BRANCH  21  23
ATOM     23  C   UNL     1       4.703  -6.768   6.669  0.00  0.00    -0.050 C 
BRANCH  23  24
ATOM     24  C   UNL     1       5.422  -5.525   7.195  0.00  0.00    +0.141 C 
BRANCH  24  25
ATOM     25  O   UNL     1       4.666  -4.953   8.264  0.00  0.00    -0.385 OA
ATOM     26  C   UNL     1       5.195  -3.720   8.757  0.00  0.00    +0.193 C 
ENDBRANCH  24  25
ENDBRANCH  23  24
ENDBRANCH  21  23
BRANCH  21  27
ATOM     27  C   UNL     1       2.689  -7.580   5.650  0.00  0.00    -0.044 C 
BRANCH  27  28
ATOM     28  C   UNL     1       2.296  -8.439   6.853  0.00  0.00    +0.124 C 
BRANCH  28  29
ATOM     29  O   UNL     1       3.473  -8.974   7.461  0.00  0.00    -0.391 OA
ATOM     30  H   UNL     1       4.001  -9.531   6.873  0.00  0.00    +0.210 HD
ENDBRANCH  28  29
BRANCH  28  31
ATOM     31  C   UNL     1       1.396  -9.586   6.389  0.00  0.00    +0.190 C 
BRANCH  31  32
ATOM     32  O   UNL     1       0.934 -10.319   7.526  0.00  0.00    -0.365 OA
BRANCH  32  33
ATOM     33  C   UNL     1       0.081 -11.419   7.201  0.00  0.00    +0.248 C 
BRANCH  33  34
ATOM     34  C   UNL     1      -0.333 -12.100   8.438  0.00  0.00    -0.077 C 
ATOM     35  C   UNL     1      -0.664 -12.644   9.425  0.00  0.00    +0.006 C 
ENDBRANCH  33  34
ENDBRANCH  32  33
ENDBRANCH  31  32
ENDBRANCH  28  31
ENDBRANCH  27  28
ENDBRANCH  21  27
ENDBRANCH  20  21
ENDBRANCH  10  20
TORSDOF 13
