REMARK  Name = ZINC59016986
REMARK  8 active torsions:
REMARK  status: ('A' for Active; 'I' for Inactive)
REMARK    1  A    between atoms: C_3  and  N_28
REMARK    2  A    between atoms: C_6  and  N_7
REMARK    3  A    between atoms: C_8  and  C_10
REMARK    4  A    between atoms: C_10  and  S_11
REMARK    5  A    between atoms: S_11  and  C_12
REMARK    6  A    between atoms: N_17  and  N_18
REMARK    7  A    between atoms: C_19  and  C_20
REMARK    8  A    between atoms: C_25  and  O_26
REMARK                            x       y       z     vdW  Elec       q    Type
REMARK                         _______ _______ _______ _____ _____    ______ ____
ROOT
ATOM      1  C   UNL     1      -3.717  -5.347  -0.450  0.00  0.00    +0.211 A 
ATOM      2  N   UNL     1      -3.956  -6.658  -0.559  0.00  0.00    -0.186 NA
ATOM      3  C   UNL     1      -5.254  -6.869  -0.621  0.00  0.00    +0.232 A 
ATOM      4  N   UNL     1      -5.874  -5.671  -0.549  0.00  0.00    -0.245 N 
ATOM      5  N   UNL     1      -4.861  -4.705  -0.435  0.00  0.00    -0.144 NA
ATOM      6  N   UNL     1      -5.874  -8.099  -0.737  0.00  0.00    -0.205 N 
ATOM      7  H   UNL     1      -6.842  -8.153  -0.775  0.00  0.00    +0.177 HD
ATOM      8  H   UNL     1      -6.830  -5.510  -0.571  0.00  0.00    +0.192 HD
ENDROOT
BRANCH   6   9
ATOM      9  N   UNL     1      -5.104  -9.268  -0.801  0.00  0.00    -0.187 NA
ATOM     10  C   UNL     1      -5.686 -10.423  -0.911  0.00  0.00    +0.142 C 
BRANCH  10  11
ATOM     11  C   UNL     1      -4.876 -11.653  -0.978  0.00  0.00    +0.037 A 
ATOM     12  C   UNL     1      -5.498 -12.897  -1.101  0.00  0.00    +0.028 A 
ATOM     13  C   UNL     1      -4.734 -14.045  -1.164  0.00  0.00    +0.019 A 
ATOM     14  C   UNL     1      -3.352 -13.967  -1.105  0.00  0.00    +0.019 A 
ATOM     15  C   UNL     1      -2.726 -12.741  -0.982  0.00  0.00    +0.047 A 
ATOM     16  C   UNL     1      -3.478 -11.579  -0.923  0.00  0.00    +0.126 A 
ATOM     17 BR   UNL     1      -5.576 -15.729  -1.331  0.00  0.00    -0.050 Br
BRANCH  16  18
ATOM     18  O   UNL     1      -2.862 -10.374  -0.808  0.00  0.00    -0.506 OA
ATOM     19  H   UNL     1      -2.715 -10.093   0.106  0.00  0.00    +0.292 HD
ENDBRANCH  16  18
ENDBRANCH  10  11
ENDBRANCH   6   9
BRANCH   1  20
ATOM     20  S   UNL     1      -2.124  -4.603  -0.337  0.00  0.00    -0.075 S 
BRANCH  20  21
ATOM     21  C   UNL     1      -2.478  -2.828  -0.204  0.00  0.00    +0.173 C 
BRANCH  21  23
ATOM     22  N   UNL     1      -1.199  -0.722   0.010  0.00  0.00    -0.285 N 
ATOM     23  C   UNL     1      -1.183  -2.065  -0.099  0.00  0.00    +0.227 C 
ATOM     24  O   UNL     1      -0.125  -2.659  -0.113  0.00  0.00    -0.275 OA
ATOM     25  H   UNL     1      -2.044  -0.253   0.098  0.00  0.00    +0.155 HD
BRANCH  22  31
ATOM     26  C   UNL     1       1.072  -0.453  -0.766  0.00  0.00    +0.025 A 
ATOM     27  C   UNL     1       2.256   0.259  -0.778  0.00  0.00    +0.034 A 
ATOM     28  C   UNL     1       2.376   1.417  -0.032  0.00  0.00    +0.126 A 
ATOM     29  C   UNL     1       1.312   1.866   0.729  0.00  0.00    +0.034 A 
ATOM     30  C   UNL     1       0.126   1.159   0.745  0.00  0.00    +0.025 A 
ATOM     31  C   UNL     1       0.002  -0.004  -0.004  0.00  0.00    +0.034 A 
BRANCH  28  32
ATOM     32  N   UNL     1       3.646   2.176  -0.047  0.00  0.00    +0.056 N 
ATOM     33  O   UNL     1       4.577   1.784  -0.711  0.00  0.00    -0.126 OA
ATOM     34  O   UNL     1       3.753   3.189   0.605  0.00  0.00    -0.126 OA
ENDBRANCH  28  32
ENDBRANCH  22  31
ENDBRANCH  21  23
ENDBRANCH  20  21
ENDBRANCH   1  20
TORSDOF 8
