REMARK  Name = ZINC57530934
REMARK  10 active torsions:
REMARK  status: ('A' for Active; 'I' for Inactive)
REMARK    1  A    between atoms: C_1  and  C_2
REMARK    2  A    between atoms: C_4  and  C_40
REMARK    3  A    between atoms: C_7  and  C_14
REMARK    4  A    between atoms: C_14  and  C_16
REMARK    5  A    between atoms: C_14  and  N_26
REMARK    6  A    between atoms: N_20  and  C_21
REMARK    7  A    between atoms: N_26  and  C_27
REMARK    8  A    between atoms: N_26  and  C_34
REMARK    9  A    between atoms: C_27  and  C_28
REMARK   10  A    between atoms: C_34  and  C_35
REMARK                            x       y       z     vdW  Elec       q    Type
REMARK                         _______ _______ _______ _____ _____    ______ ____
ROOT
ATOM      1  C   UNL     1      -0.429  -6.822   0.609  0.00  0.00    +0.163 C 
ENDROOT
BRANCH   1   8
ATOM      2  C   UNL     1       0.916   0.756  -1.487  0.00  0.00    +0.044 C 
ATOM      3  C   UNL     1       0.893  -0.688  -1.055  0.00  0.00    -0.048 A 
ATOM      4  C   UNL     1       2.077  -1.317  -0.695  0.00  0.00    +0.007 A 
ATOM      5  C   UNL     1       2.078  -2.624  -0.300  0.00  0.00    -0.041 A 
ATOM      6  C   UNL     1       0.874  -3.336  -0.258  0.00  0.00    +0.002 A 
ATOM      7  C   UNL     1       0.839  -4.739   0.162  0.00  0.00    +0.021 A 
ATOM      8  C   UNL     1      -0.357  -5.378   0.183  0.00  0.00    +0.042 A 
ATOM      9  C   UNL     1      -1.535  -4.696  -0.192  0.00  0.00    +0.254 A 
ATOM     10  O   UNL     1      -2.599  -5.290  -0.165  0.00  0.00    -0.268 OA
ATOM     11  N   UNL     1      -1.512  -3.409  -0.578  0.00  0.00    -0.322 N 
ATOM     12  H   UNL     1      -2.340  -2.970  -0.829  0.00  0.00    +0.169 HD
ATOM     13  C   UNL     1      -0.328  -2.702  -0.622  0.00  0.00    +0.050 A 
ATOM     14  C   UNL     1      -0.305  -1.368  -1.016  0.00  0.00    +0.029 A 
ATOM     15  C   UNL     1       3.369  -3.297   0.088  0.00  0.00    +0.044 C 
ENDBRANCH   1   8
BRANCH   1  16
ATOM     16  C   UNL     1       0.963  -7.340   0.866  0.00  0.00    +0.173 A 
ATOM     17  N   UNL     1       1.694  -7.123   1.932  0.00  0.00    -0.111 NA
ATOM     18  N   UNL     1       2.818  -7.733   1.774  0.00  0.00    -0.023 NA
ATOM     19  N   UNL     1       2.822  -8.333   0.635  0.00  0.00    -0.044 NA
ATOM     20  N   UNL     1       1.694  -8.119   0.047  0.00  0.00    -0.224 N 
BRANCH  20  21
ATOM     21  C   UNL     1       1.287  -8.625  -1.266  0.00  0.00    +0.111 C 
ATOM     22  C   UNL     1       1.365 -10.166  -1.285  0.00  0.00    +0.027 C 
ATOM     23  C   UNL     1       1.866 -10.502  -2.712  0.00  0.00    +0.002 C 
ATOM     24  C   UNL     1       2.891  -9.374  -2.989  0.00  0.00    +0.002 C 
ATOM     25  C   UNL     1       2.257  -8.122  -2.349  0.00  0.00    +0.027 C 
ENDBRANCH  20  21
ENDBRANCH   1  16
BRANCH   1  26
ATOM     26  N   UNL     1      -1.226  -6.931   1.838  0.00  0.00    -0.277 NA
BRANCH  26  27
ATOM     27  C   UNL     1      -1.313  -8.327   2.287  0.00  0.00    +0.121 C 
BRANCH  27  28
ATOM     28  C   UNL     1      -2.435  -8.465   3.284  0.00  0.00    -0.033 A 
ATOM     29  C   UNL     1      -2.167  -8.411   4.638  0.00  0.00    +0.005 A 
ATOM     30  C   UNL     1      -3.196  -8.538   5.553  0.00  0.00    +0.000 A 
ATOM     31  C   UNL     1      -4.494  -8.718   5.112  0.00  0.00    +0.000 A 
ATOM     32  C   UNL     1      -4.762  -8.771   3.756  0.00  0.00    +0.000 A 
ATOM     33  C   UNL     1      -3.733  -8.640   2.842  0.00  0.00    +0.005 A 
ENDBRANCH  27  28
ENDBRANCH  26  27
BRANCH  26  34
ATOM     34  C   UNL     1      -0.683  -6.070   2.897  0.00  0.00    +0.160 C 
BRANCH  34  35
ATOM     35  C   UNL     1      -1.269  -4.687   2.771  0.00  0.00    +0.119 A 
ATOM     36  C   UNL     1      -2.457  -4.289   3.261  0.00  0.00    +0.046 A 
ATOM     37  C   UNL     1      -2.606  -2.926   2.915  0.00  0.00    +0.041 A 
ATOM     38  C   UNL     1      -1.501  -2.573   2.234  0.00  0.00    +0.195 A 
ATOM     39  O   UNL     1      -0.692  -3.643   2.155  0.00  0.00    -0.467 OA
ENDBRANCH  34  35
ENDBRANCH  26  34
ENDBRANCH   1  26
TORSDOF 8
