REMARK  Name = ZINC31159293
REMARK  17 active torsions:
REMARK  status: ('A' for Active; 'I' for Inactive)
REMARK    1  A    between atoms: C_1  and  C_2
REMARK    2  A    between atoms: C_2  and  C_3
REMARK    3  A    between atoms: C_2  and  C_4
REMARK    4  A    between atoms: C_4  and  C_5
REMARK    5  A    between atoms: C_5  and  C_7
REMARK    6  A    between atoms: C_5  and  C_21
REMARK    7  A    between atoms: C_8  and  O_20
REMARK    8  A    between atoms: C_10  and  O_19
REMARK    9  A    between atoms: C_11  and  C_14
REMARK   10  A    between atoms: C_12  and  O_13
REMARK   11  A    between atoms: C_14  and  C_16
REMARK   12  A    between atoms: C_16  and  C_17
REMARK   13  A    between atoms: C_16  and  C_18
REMARK   14  A    between atoms: C_23  and  C_31
REMARK   15  A    between atoms: C_23  and  C_32
REMARK   16  A    between atoms: C_26  and  C_29
REMARK   17  A    between atoms: C_26  and  C_30
REMARK                            x       y       z     vdW  Elec       q    Type
REMARK                         _______ _______ _______ _____ _____    ______ ____
ROOT
ATOM      1  C   UNL     1       2.900   6.496   0.175  0.00  0.00    +0.044 C 
ENDROOT
BRANCH   1   2
ATOM      2  C   UNL     1       2.949   6.881   1.631  0.00  0.00    +0.131 C 
ATOM      3  C   UNL     1       1.798   7.200   2.242  0.00  0.00    +0.157 C 
ATOM      4  C   UNL     1       1.754   7.614   3.689  0.00  0.00    +0.083 C 
ATOM      5  C   UNL     1       2.980   7.062   4.387  0.00  0.00    +0.159 C 
ATOM      6  O   UNL     1       2.893   6.461   5.431  0.00  0.00    -0.295 OA
ATOM      7  C   UNL     1       4.319   7.295   3.719  0.00  0.00    +0.083 C 
ATOM      8  C   UNL     1       4.194   6.893   2.270  0.00  0.00    +0.157 C 
ATOM      9  O   UNL     1       5.188   6.575   1.649  0.00  0.00    -0.296 OA
ATOM     10  C   UNL     1       5.393   6.444   4.401  0.00  0.00    +0.027 C 
ATOM     11  C   UNL     1       4.696   8.775   3.814  0.00  0.00    +0.027 C 
ATOM     12  C   UNL     1       0.492   7.055   4.349  0.00  0.00    +0.027 C 
ATOM     13  C   UNL     1       1.752   9.141   3.787  0.00  0.00    +0.027 C 
ATOM     14  O   UNL     1       0.649   7.143   1.542  0.00  0.00    -0.296 OA
ENDBRANCH   1   2
BRANCH   1  15
ATOM     15  C   UNL     1       2.532   5.040   0.053  0.00  0.00    +0.040 A 
ATOM     16  C   UNL     1       3.314   4.073   0.674  0.00  0.00    +0.127 A 
ATOM     17  C   UNL     1       2.985   2.728   0.569  0.00  0.00    +0.092 A 
ATOM     18  C   UNL     1       1.874   2.337  -0.154  0.00  0.00    +0.134 A 
ATOM     19  C   UNL     1       1.079   3.308  -0.792  0.00  0.00    +0.101 A 
ATOM     20  C   UNL     1       1.418   4.670  -0.675  0.00  0.00    +0.138 A 
BRANCH  20  21
ATOM     21  O   UNL     1       0.656   5.614  -1.281  0.00  0.00    -0.506 OA
ATOM     22  H   UNL     1      -0.231   5.318  -1.860  0.00  0.00    +0.292 HD
ENDBRANCH  20  21
BRANCH  19  23
ATOM     23  C   UNL     1      -0.094   2.906  -1.565  0.00  0.00    +0.173 C 
ATOM     24  O   UNL     1      -1.158   2.730  -1.007  0.00  0.00    -0.292 OA
BRANCH  23  25
ATOM     25  C   UNL     1       0.017   2.708  -3.055  0.00  0.00    +0.054 C 
ATOM     26  C   UNL     1       0.568   1.310  -3.344  0.00  0.00    +0.015 C 
ATOM     27  C   UNL     1      -1.366   2.853  -3.693  0.00  0.00    +0.015 C 
ENDBRANCH  23  25
ENDBRANCH  19  23
BRANCH  18  28
ATOM     28  O   UNL     1       1.555   1.023  -0.255  0.00  0.00    -0.506 OA
ATOM     29  H   UNL     1       0.670   0.715  -0.832  0.00  0.00    +0.292 HD
ENDBRANCH  18  28
BRANCH  16  30
ATOM     30  O   UNL     1       4.407   4.446   1.386  0.00  0.00    -0.506 OA
ATOM     31  H   UNL     1       5.029   3.684   1.879  0.00  0.00    +0.292 HD
ENDBRANCH  16  30
ENDBRANCH   1  15
BRANCH   1  32
ATOM     32  C   UNL     1       4.272   6.730  -0.462  0.00  0.00    +0.012 C 
BRANCH  32  34
ATOM     33  C   UNL     1       3.290   7.687  -2.550  0.00  0.00    +0.007 C 
ATOM     34  C   UNL     1       4.164   6.569  -1.979  0.00  0.00    -0.017 C 
ATOM     35  C   UNL     1       5.560   6.644  -2.600  0.00  0.00    +0.007 C 
ENDBRANCH  32  34
ENDBRANCH   1  32
TORSDOF 9
