REMARK  Name = ZINC62038743
REMARK  11 active torsions:
REMARK  status: ('A' for Active; 'I' for Inactive)
REMARK    1  A    between atoms: C_1  and  C_2
REMARK    2  A    between atoms: C_2  and  C_4
REMARK    3  A    between atoms: C_2  and  S_16
REMARK    4  A    between atoms: N_6  and  C_7
REMARK    5  A    between atoms: C_9  and  C_14
REMARK    6  A    between atoms: C_12  and  O_13
REMARK    7  A    between atoms: S_16  and  C_17
REMARK    8  A    between atoms: C_28  and  C_32
REMARK    9  A    between atoms: C_32  and  C_33
REMARK   10  A    between atoms: C_32  and  C_34
REMARK   11  A    between atoms: C_32  and  C_35
REMARK                            x       y       z     vdW  Elec       q    Type
REMARK                         _______ _______ _______ _____ _____    ______ ____
ROOT
ATOM      1  C   UNL     1       2.516  -0.066  -1.280  0.00  0.00    +0.171 A 
ATOM      2  N   UNL     1       2.842   0.605  -0.195  0.00  0.00    -0.185 NA
ATOM      3  C   UNL     1       4.083   1.049   0.026  0.00  0.00    +0.282 A 
ATOM      4  O   UNL     1       4.344   1.668   1.046  0.00  0.00    -0.265 OA
ATOM      5  C   UNL     1       5.139   0.782  -0.980  0.00  0.00    +0.075 A 
ATOM      6  C   UNL     1       6.550   1.167  -0.947  0.00  0.00    -0.023 A 
ATOM      7  C   UNL     1       7.309   0.797  -2.000  0.00  0.00    -0.004 A 
ATOM      8  S   UNL     1       6.201  -0.071  -3.077  0.00  0.00    -0.075 S 
ATOM      9  C   UNL     1       4.725   0.068  -2.104  0.00  0.00    +0.092 A 
ATOM     10  N   UNL     1       3.437  -0.351  -2.244  0.00  0.00    -0.328 N 
ATOM     11  C   UNL     1       8.768   1.065  -2.206  0.00  0.00    +0.046 C 
ATOM     12  C   UNL     1       9.374   1.506  -0.866  0.00  0.00    -0.000 C 
ATOM     13  C   UNL     1       8.472   2.579  -0.249  0.00  0.00    +0.009 C 
ATOM     14  C   UNL     1       7.157   1.951   0.213  0.00  0.00    +0.037 C 
ATOM     15  H   UNL     1       3.173  -0.850  -3.033  0.00  0.00    +0.168 HD
ENDROOT
BRANCH  12  16
ATOM     16  C   UNL     1      10.773   2.078  -1.098  0.00  0.00    -0.035 C 
ATOM     17  C   UNL     1      10.682   3.284  -2.036  0.00  0.00    +0.011 C 
ATOM     18  C   UNL     1      11.374   2.517   0.239  0.00  0.00    +0.011 C 
ATOM     19  C   UNL     1      11.664   1.007  -1.730  0.00  0.00    +0.011 C 
ENDBRANCH  12  16
BRANCH   1  20
ATOM     20  S   UNL     1       0.854  -0.614  -1.487  0.00  0.00    -0.075 S 
BRANCH  20  22
ATOM     21  C   UNL     1      -0.001   1.509   0.012  0.00  0.00    +0.029 C 
ATOM     22  C   UNL     1       0.008  -0.021   0.004  0.00  0.00    +0.137 C 
BRANCH  22  23
ATOM     23  C   UNL     1      -1.410  -0.532   0.013  0.00  0.00    +0.230 C 
ATOM     24  O   UNL     1      -1.927  -0.904  -1.018  0.00  0.00    -0.274 OA
ATOM     25  N   UNL     1      -2.103  -0.575   1.169  0.00  0.00    -0.282 N 
ATOM     26  H   UNL     1      -1.669  -0.339   2.004  0.00  0.00    +0.155 HD
BRANCH  25  27
ATOM     27  C   UNL     1      -3.450  -0.961   1.163  0.00  0.00    +0.076 A 
ATOM     28  C   UNL     1      -3.891  -1.920   0.272  0.00  0.00    +0.038 A 
ATOM     29  C   UNL     1      -5.238  -2.302   0.270  0.00  0.00    +0.016 A 
ATOM     30  C   UNL     1      -6.131  -1.710   1.171  0.00  0.00    +0.015 A 
ATOM     31  C   UNL     1      -5.684  -0.755   2.057  0.00  0.00    +0.048 A 
ATOM     32  C   UNL     1      -4.347  -0.379   2.063  0.00  0.00    +0.138 A 
BRANCH  32  33
ATOM     33  O   UNL     1      -3.911   0.559   2.941  0.00  0.00    -0.505 OA
ATOM     34  H   UNL     1      -3.964   1.465   2.608  0.00  0.00    +0.292 HD
ENDBRANCH  32  33
BRANCH  29  35
ATOM     35  C   UNL     1      -5.713  -3.321  -0.675  0.00  0.00    +0.258 C 
ATOM     36  O   UNL     1      -6.881  -3.650  -0.675  0.00  0.00    -0.296 OA
ENDBRANCH  29  35
ENDBRANCH  25  27
ENDBRANCH  22  23
ENDBRANCH  20  22
ENDBRANCH   1  20
TORSDOF 7
