REMARK  Name = ZINC38792796
REMARK  7 active torsions:
REMARK  status: ('A' for Active; 'I' for Inactive)
REMARK    1  A    between atoms: C_1  and  C_2
REMARK    2  A    between atoms: C_4  and  C_15
REMARK    3  A    between atoms: C_5  and  C_14
REMARK    4  A    between atoms: N_7  and  C_8
REMARK    5  A    between atoms: C_15  and  N_16
REMARK    6  A    between atoms: C_17  and  C_19
REMARK    7  A    between atoms: N_25  and  C_26
REMARK                            x       y       z     vdW  Elec       q    Type
REMARK                         _______ _______ _______ _____ _____    ______ ____
ROOT
ATOM      1  N   UNL     1      -2.351   2.001  -1.480  0.00  0.00    -0.306 N 
ATOM      2  C   UNL     1      -3.573   2.088  -2.042  0.00  0.00    +0.263 C 
ATOM      3  O   UNL     1      -3.825   1.455  -3.050  0.00  0.00    -0.269 OA
ATOM      4  H   UNL     1      -2.150   2.506  -0.676  0.00  0.00    +0.149 HD
ENDROOT
BRANCH   2   5
ATOM      5  C   UNL     1      -4.598   2.944  -1.438  0.00  0.00    +0.127 A 
ATOM      6  H   UNL     1      -5.869   4.866   0.688  0.00  0.00    +0.167 HD
ATOM      7  C   UNL     1      -4.493   3.622  -0.273  0.00  0.00    +0.116 A 
ATOM      8  N   UNL     1      -5.667   4.297  -0.072  0.00  0.00    -0.339 N 
ATOM      9  C   UNL     1      -6.495   4.042  -1.102  0.00  0.00    +0.163 A 
ATOM     10  S   UNL     1      -8.078   4.665  -1.291  0.00  0.00    -0.013 S 
ATOM     11  N   UNL     1      -5.866   3.217  -1.963  0.00  0.00    -0.284 N 
BRANCH  11  12
ATOM     12  C   UNL     1      -6.388   2.721  -3.163  0.00  0.00    +0.049 A 
ATOM     13  C   UNL     1      -7.109   1.533  -3.171  0.00  0.00    +0.026 A 
ATOM     14  C   UNL     1      -7.623   1.047  -4.356  0.00  0.00    +0.002 A 
ATOM     15  C   UNL     1      -7.421   1.740  -5.535  0.00  0.00    +0.000 A 
ATOM     16  C   UNL     1      -6.704   2.923  -5.532  0.00  0.00    +0.002 A 
ATOM     17  C   UNL     1      -6.192   3.418  -4.348  0.00  0.00    +0.026 A 
ENDBRANCH  11  12
ENDBRANCH   2   5
BRANCH   1  18
ATOM     18  C   UNL     1      -1.326   1.145  -2.083  0.00  0.00    +0.139 C 
BRANCH  18  21
ATOM     19  C   UNL     1       0.455   3.665  -1.103  0.00  0.00    +0.035 C 
ATOM     20  C   UNL     1       1.021   2.275  -1.399  0.00  0.00    +0.120 C 
ATOM     21  C   UNL     1      -0.061   1.226  -1.269  0.00  0.00    -0.013 C 
ATOM     22  C   UNL     1       0.304   0.397  -0.314  0.00  0.00    +0.022 C 
ATOM     23  N   UNL     1       1.521   0.749   0.237  0.00  0.00    -0.268 N 
ATOM     24  N   UNL     1       2.024   1.902  -0.387  0.00  0.00    -0.246 N 
ATOM     25  C   UNL     1      -0.508  -0.794   0.125  0.00  0.00    +0.062 C 
ATOM     26  H   UNL     1       1.964   0.268   0.954  0.00  0.00    +0.170 HD
BRANCH  24  27
ATOM     27  C   UNL     1       3.225   2.559  -0.107  0.00  0.00    +0.048 A 
ATOM     28  C   UNL     1       3.576   3.700  -0.819  0.00  0.00    +0.025 A 
ATOM     29  C   UNL     1       4.763   4.347  -0.540  0.00  0.00    +0.002 A 
ATOM     30  C   UNL     1       5.603   3.861   0.446  0.00  0.00    +0.000 A 
ATOM     31  C   UNL     1       5.256   2.726   1.155  0.00  0.00    +0.002 A 
ATOM     32  C   UNL     1       4.067   2.077   0.886  0.00  0.00    +0.025 A 
ENDBRANCH  24  27
ENDBRANCH  18  21
ENDBRANCH   1  18
TORSDOF 5
