REMARK  Name = ZINC39674520
REMARK  11 active torsions:
REMARK  status: ('A' for Active; 'I' for Inactive)
REMARK    1  A    between atoms: C_1  and  C_2
REMARK    2  A    between atoms: C_2  and  C_3
REMARK    3  A    between atoms: C_3  and  C_5
REMARK    4  A    between atoms: C_3  and  C_6
REMARK    5  A    between atoms: C_6  and  C_7
REMARK    6  A    between atoms: C_11  and  C_20
REMARK    7  A    between atoms: N_22  and  C_23
REMARK    8  A    between atoms: C_23  and  C_25
REMARK    9  A    between atoms: C_23  and  C_26
REMARK   10  A    between atoms: C_27  and  C_33
REMARK   11  A    between atoms: C_30  and  C_32
REMARK                            x       y       z     vdW  Elec       q    Type
REMARK                         _______ _______ _______ _____ _____    ______ ____
ROOT
ATOM      1  C   UNL     1      -3.729  -2.874  -0.226  0.00  0.00    +0.216 C 
ATOM      2  O   UNL     1      -4.750  -2.231  -0.339  0.00  0.00    -0.276 OA
ATOM      3  N   UNL     1      -3.789  -4.210  -0.052  0.00  0.00    -0.300 N 
ATOM      4  C   UNL     1      -2.661  -5.156   0.111  0.00  0.00    +0.121 C 
ATOM      5  C   UNL     1      -3.144  -6.159   1.183  0.00  0.00    +0.100 C 
ATOM      6  C   UNL     1      -4.679  -6.094   1.117  0.00  0.00    -0.004 C 
ATOM      7  C   UNL     1      -5.000  -5.062   0.026  0.00  0.00    +0.115 C 
ATOM      8  C   UNL     1      -5.250  -7.458   0.739  0.00  0.00    -0.010 C 
ATOM      9  C   UNL     1      -6.779  -7.383   0.737  0.00  0.00    -0.082 C 
ATOM     10  N   UNL     1      -7.254  -6.983   2.067  0.00  0.00    +0.379 N 
ATOM     11  C   UNL     1      -6.776  -5.632   2.384  0.00  0.00    -0.082 C 
ATOM     12  C   UNL     1      -5.247  -5.632   2.456  0.00  0.00    -0.010 C 
ATOM     13  H   UNL     1      -8.263  -6.994   2.080  0.00  0.00    -0.086 HD
ATOM     14  H   UNL     1      -6.904  -7.632   2.756  0.00  0.00    -0.086 HD
ENDROOT
BRANCH   5  15
ATOM     15  C   UNL     1      -2.661  -7.549   0.858  0.00  0.00    +0.219 C 
ATOM     16  O   UNL     1      -2.503  -7.881  -0.298  0.00  0.00    -0.275 OA
ATOM     17  N   UNL     1      -2.403  -8.422   1.851  0.00  0.00    -0.309 N 
ATOM     18  H   UNL     1      -2.529  -8.156   2.775  0.00  0.00    +0.149 HD
BRANCH  17  19
ATOM     19  C   UNL     1      -1.933  -9.773   1.535  0.00  0.00    +0.100 C 
ATOM     20  C   UNL     1      -0.419  -9.748   1.317  0.00  0.00    +0.033 C 
BRANCH  19  21
ATOM     21  C   UNL     1      -2.261 -10.699   2.678  0.00  0.00    -0.001 C 
ATOM     22  C   UNL     1      -3.010 -11.804   2.652  0.00  0.00    +0.063 C 
ATOM     23  N   UNL     1      -3.073 -12.369   3.878  0.00  0.00    -0.159 NA
ATOM     24  N   UNL     1      -2.443 -11.768   4.752  0.00  0.00    -0.180 NA
ATOM     25  C   UNL     1      -1.810 -10.597   4.124  0.00  0.00    +0.154 C 
ATOM     26  C   UNL     1      -2.321  -9.302   4.760  0.00  0.00    +0.039 C 
ATOM     27  C   UNL     1      -3.692 -12.347   1.423  0.00  0.00    +0.067 C 
ENDBRANCH  19  21
ENDBRANCH  17  19
ENDBRANCH   5  15
BRANCH   1  28
ATOM     28  C   UNL     1      -2.392  -2.182  -0.280  0.00  0.00    +0.099 C 
BRANCH  28  29
ATOM     29  C   UNL     1      -2.603  -0.680  -0.483  0.00  0.00    -0.006 C 
ATOM     30  C   UNL     1      -3.241  -0.436  -1.852  0.00  0.00    +0.008 C 
BRANCH  29  32
ATOM     31  C   UNL     1      -1.478   1.551  -0.491  0.00  0.00    +0.004 C 
ATOM     32  C   UNL     1      -1.255   0.039  -0.413  0.00  0.00    +0.000 C 
ENDBRANCH  29  32
ENDBRANCH  28  29
ENDBRANCH   1  28
TORSDOF 6
