REMARK  Name = ZINC36352675
REMARK  5 active torsions:
REMARK  status: ('A' for Active; 'I' for Inactive)
REMARK    1  A    between atoms: C_1  and  O_2
REMARK    2  A    between atoms: O_2  and  C_3
REMARK    3  A    between atoms: C_5  and  C_10
REMARK    4  A    between atoms: C_8  and  O_9
REMARK    5  A    between atoms: N_20  and  C_21
REMARK                            x       y       z     vdW  Elec       q    Type
REMARK                         _______ _______ _______ _____ _____    ______ ____
ROOT
ATOM      1  C   UNL     1       2.403   0.379  -4.230  0.00  0.00    +0.080 C 
ATOM      2  C   UNL     1       1.736   0.049  -5.569  0.00  0.00    +0.110 C 
ATOM      3  C   UNL     1       2.218  -1.264  -6.114  0.00  0.00    +0.219 C 
ATOM      4  O   UNL     1       1.435  -1.978  -6.704  0.00  0.00    -0.275 OA
ATOM      5  N   UNL     1       3.497  -1.676  -5.967  0.00  0.00    -0.270 N 
ATOM      6  C   UNL     1       4.346  -0.906  -5.170  0.00  0.00    +0.133 A 
ATOM      7  C   UNL     1       3.874   0.067  -4.340  0.00  0.00    +0.089 A 
ATOM      8  N   UNL     1       4.912   0.618  -3.715  0.00  0.00    -0.238 NA
ATOM      9  C   UNL     1       6.015   0.039  -4.114  0.00  0.00    +0.205 A 
ATOM     10  N   UNL     1       5.698  -0.925  -5.033  0.00  0.00    -0.287 N 
ATOM     11  H   UNL     1       3.815  -2.483  -6.402  0.00  0.00    +0.156 HD
ENDROOT
BRANCH  10  12
ATOM     12  C   UNL     1       6.595  -1.770  -5.702  0.00  0.00    +0.051 A 
ATOM     13  C   UNL     1       6.369  -3.140  -5.732  0.00  0.00    +0.026 A 
ATOM     14  C   UNL     1       7.254  -3.970  -6.391  0.00  0.00    +0.003 A 
ATOM     15  C   UNL     1       8.364  -3.440  -7.021  0.00  0.00    +0.020 A 
ATOM     16  C   UNL     1       8.593  -2.075  -6.994  0.00  0.00    +0.043 A 
ATOM     17  C   UNL     1       7.707  -1.239  -6.340  0.00  0.00    +0.046 A 
ATOM     18 CL   UNL     1       9.988  -1.413  -7.785  0.00  0.00    -0.083 Cl
ENDBRANCH  10  12
BRANCH   1  21
ATOM     19  C   UNL     1       0.606  -0.608  -1.056  0.00  0.00    +0.162 A 
ATOM     20  C   UNL     1       1.173   0.159  -2.062  0.00  0.00    +0.053 A 
ATOM     21  C   UNL     1       1.787  -0.456  -3.137  0.00  0.00    -0.034 A 
ATOM     22  C   UNL     1       1.837  -1.836  -3.212  0.00  0.00    +0.008 A 
ATOM     23  C   UNL     1       1.273  -2.606  -2.212  0.00  0.00    +0.049 A 
ATOM     24  C   UNL     1       0.662  -1.996  -1.129  0.00  0.00    +0.158 A 
BRANCH  19  26
ATOM     25  C   UNL     1      -0.017   1.425   0.010  0.00  0.00    +0.277 C 
ATOM     26  O   UNL     1       0.002  -0.004   0.002  0.00  0.00    -0.491 OA
ENDBRANCH  19  26
BRANCH  24  27
ATOM     27  O   UNL     1       0.112  -2.753  -0.142  0.00  0.00    -0.503 OA
ATOM     28  H   UNL     1      -0.816  -2.979  -0.291  0.00  0.00    +0.292 HD
ENDBRANCH  24  27
ENDBRANCH   1  21
TORSDOF 4
