REMARK  Name = ZINC13637911
REMARK  8 active torsions:
REMARK  status: ('A' for Active; 'I' for Inactive)
REMARK    1  A    between atoms: C_1  and  C_2
REMARK    2  A    between atoms: C_2  and  O_3
REMARK    3  A    between atoms: O_3  and  C_4
REMARK    4  A    between atoms: C_4  and  C_5
REMARK    5  A    between atoms: C_5  and  O_6
REMARK    6  A    between atoms: O_6  and  C_7
REMARK    7  A    between atoms: C_14  and  C_23
REMARK    8  A    between atoms: C_26  and  O_29
REMARK                            x       y       z     vdW  Elec       q    Type
REMARK                         _______ _______ _______ _____ _____    ______ ____
ROOT
ATOM      1  C   UNL     1      -2.713   4.806  -1.983  0.00  0.00    +0.142 A 
ATOM      2  C   UNL     1      -3.863   5.572  -2.027  0.00  0.00    +0.047 A 
ATOM      3  C   UNL     1      -4.731   5.568  -0.951  0.00  0.00    +0.004 A 
ATOM      4  C   UNL     1      -4.448   4.804   0.163  0.00  0.00    +0.006 A 
ATOM      5  C   UNL     1      -3.294   4.032   0.220  0.00  0.00    -0.016 A 
ATOM      6  C   UNL     1      -2.425   4.032  -0.855  0.00  0.00    +0.074 A 
ATOM      7  N   UNL     1      -1.248   3.278  -0.861  0.00  0.00    -0.334 N 
ATOM      8  C   UNL     1      -1.333   2.113   0.020  0.00  0.00    +0.105 C 
ATOM      9  C   UNL     1      -1.649   2.574   1.444  0.00  0.00    +0.029 C 
ATOM     10  C   UNL     1      -3.049   3.224   1.460  0.00  0.00    +0.049 C 
ATOM     11  C   UNL     1      -3.999   2.051   1.531  0.00  0.00    -0.023 C 
ATOM     12  C   UNL     1      -3.385   0.991   1.992  0.00  0.00    -0.030 C 
ATOM     13  C   UNL     1      -1.935   1.309   2.301  0.00  0.00    +0.033 C 
ATOM     14  H   UNL     1      -0.998   3.005  -1.800  0.00  0.00    +0.147 HD
ENDROOT
BRANCH   8  15
ATOM     15  C   UNL     1      -0.017   1.378   0.010  0.00  0.00    -0.027 A 
ATOM     16  C   UNL     1       1.170   2.088   0.002  0.00  0.00    +0.009 A 
ATOM     17  C   UNL     1       2.377   1.417  -0.013  0.00  0.00    +0.046 A 
ATOM     18  C   UNL     1       2.399   0.030  -0.020  0.00  0.00    +0.117 A 
ATOM     19  C   UNL     1       1.207  -0.680  -0.013  0.00  0.00    +0.046 A 
ATOM     20  C   UNL     1       0.002  -0.004   0.002  0.00  0.00    +0.009 A 
BRANCH  18  21
ATOM     21  O   UNL     1       3.586  -0.632  -0.035  0.00  0.00    -0.507 OA
ATOM     22  H   UNL     1       3.921  -0.819  -0.923  0.00  0.00    +0.292 HD
ENDBRANCH  18  21
ENDBRANCH   8  15
BRANCH   1  23
ATOM     23  O   UNL     1      -1.858   4.807  -3.040  0.00  0.00    -0.488 OA
BRANCH  23  24
ATOM     24  C   UNL     1      -2.212   5.620  -4.161  0.00  0.00    +0.257 C 
BRANCH  24  25
ATOM     25  C   UNL     1      -1.138   5.493  -5.243  0.00  0.00    +0.200 C 
BRANCH  25  26
ATOM     26  O   UNL     1      -1.120   4.153  -5.740  0.00  0.00    -0.377 OA
BRANCH  26  28
ATOM     27  C   UNL     1      -0.216   2.466  -7.216  0.00  0.00    +0.034 C 
ATOM     28  C   UNL     1      -0.147   3.925  -6.761  0.00  0.00    +0.156 C 
ENDBRANCH  26  28
ENDBRANCH  25  26
ENDBRANCH  24  25
ENDBRANCH  23  24
ENDBRANCH   1  23
TORSDOF 7
