REMARK  Name = ZINC04737406
REMARK  6 active torsions:
REMARK  status: ('A' for Active; 'I' for Inactive)
REMARK    1  A    between atoms: C_1  and  C_2
REMARK    2  A    between atoms: C_5  and  C_8
REMARK    3  A    between atoms: C_17  and  N_20
REMARK    4  A    between atoms: N_23  and  N_24
REMARK    5  A    between atoms: C_25  and  C_26
REMARK    6  A    between atoms: C_31  and  O_32
REMARK                            x       y       z     vdW  Elec       q    Type
REMARK                         _______ _______ _______ _____ _____    ______ ____
ROOT
ATOM      1  C   UNL     1       6.833   4.274  -1.290  0.00  0.00    -0.002 C 
ATOM      2  C   UNL     1       7.652   3.909  -0.050  0.00  0.00    +0.015 C 
ATOM      3  C   UNL     1       6.857   4.261   1.209  0.00  0.00    -0.008 C 
ATOM      4  C   UNL     1       6.557   5.761   1.220  0.00  0.00    +0.007 C 
ATOM      5  C   UNL     1       5.738   6.126  -0.020  0.00  0.00    -0.008 C 
ATOM      6  C   UNL     1       6.533   5.774  -1.279  0.00  0.00    +0.015 C 
ATOM      7  C   UNL     1       4.423   5.343  -0.011  0.00  0.00    +0.029 C 
ATOM      8  C   UNL     1       4.723   3.843  -0.022  0.00  0.00    +0.037 C 
ATOM      9  C   UNL     1       5.542   3.478   1.217  0.00  0.00    +0.029 C 
ATOM     10  C   UNL     1       5.518   3.491  -1.281  0.00  0.00    +0.037 C 
ENDROOT
BRANCH   1  15
ATOM     11  C   UNL     1       9.837   2.943  -6.043  0.00  0.00    +0.044 C 
ATOM     12  C   UNL     1       9.054   3.291  -4.804  0.00  0.00    -0.050 A 
ATOM     13  C   UNL     1       9.565   4.197  -3.894  0.00  0.00    +0.003 A 
ATOM     14  C   UNL     1       8.846   4.516  -2.757  0.00  0.00    +0.004 A 
ATOM     15  C   UNL     1       7.616   3.927  -2.529  0.00  0.00    -0.041 A 
ATOM     16  C   UNL     1       7.107   3.017  -3.437  0.00  0.00    +0.004 A 
ATOM     17  C   UNL     1       7.823   2.703  -4.576  0.00  0.00    +0.003 A 
ENDBRANCH   1  15
BRANCH   8  18
ATOM     18  N   UNL     1       3.465   3.093  -0.014  0.00  0.00    -0.292 N 
ATOM     19  C   UNL     1       3.483   1.746  -0.022  0.00  0.00    +0.320 C 
ATOM     20  O   UNL     1       4.544   1.152  -0.035  0.00  0.00    -0.251 OA
ATOM     21  N   UNL     1       2.325   1.056  -0.015  0.00  0.00    -0.191 N 
ATOM     22  H   UNL     1       2.618   3.567  -0.004  0.00  0.00    +0.151 HD
ATOM     23  H   UNL     1       2.338   0.086  -0.020  0.00  0.00    +0.179 HD
BRANCH  21  24
ATOM     24  N   UNL     1       1.102   1.740   0.001  0.00  0.00    -0.186 NA
ATOM     25  C   UNL     1      -0.013   1.076   0.008  0.00  0.00    +0.142 C 
BRANCH  25  26
ATOM     26  C   UNL     1      -1.299   1.795   0.018  0.00  0.00    +0.036 A 
ATOM     27  C   UNL     1      -2.501   1.085   0.014  0.00  0.00    +0.013 A 
ATOM     28  C   UNL     1      -3.701   1.764   0.029  0.00  0.00    +0.001 A 
ATOM     29  C   UNL     1      -3.720   3.148   0.036  0.00  0.00    +0.004 A 
ATOM     30  C   UNL     1      -2.537   3.863   0.035  0.00  0.00    +0.046 A 
ATOM     31  C   UNL     1      -1.323   3.197   0.026  0.00  0.00    +0.125 A 
BRANCH  31  32
ATOM     32  O   UNL     1      -0.160   3.898   0.024  0.00  0.00    -0.506 OA
ATOM     33  H   UNL     1       0.173   4.106  -0.859  0.00  0.00    +0.292 HD
ENDBRANCH  31  32
ENDBRANCH  25  26
ENDBRANCH  21  24
ENDBRANCH   8  18
TORSDOF 5
