REMARK  Name = ZINC21233679
REMARK  11 active torsions:
REMARK  status: ('A' for Active; 'I' for Inactive)
REMARK    1  A    between atoms: C_1  and  C_2
REMARK    2  A    between atoms: C_2  and  N_3
REMARK    3  A    between atoms: N_3  and  C_4
REMARK    4  A    between atoms: N_3  and  C_6
REMARK    5  A    between atoms: C_4  and  C_5
REMARK    6  A    between atoms: C_9  and  C_12
REMARK    7  A    between atoms: C_17  and  C_22
REMARK    8  A    between atoms: C_25  and  O_30
REMARK    9  A    between atoms: C_26  and  O_28
REMARK   10  A    between atoms: O_28  and  C_29
REMARK   11  A    between atoms: O_30  and  C_31
REMARK                            x       y       z     vdW  Elec       q    Type
REMARK                         _______ _______ _______ _____ _____    ______ ____
ROOT
ATOM      1  C   UNL     1      -1.333   2.113   0.020  0.00  0.00    +0.136 C 
ATOM      2  C   UNL     1      -1.635   2.574  -1.386  0.00  0.00    +0.036 C 
ATOM      3  C   UNL     1      -1.612   3.844  -1.821  0.00  0.00    +0.017 C 
ATOM      4  C   UNL     1      -1.901   4.162  -3.279  0.00  0.00    +0.059 C 
ATOM      5  C   UNL     1      -2.921   3.170  -3.835  0.00  0.00    +0.032 C 
ATOM      6  C   UNL     1      -2.321   1.764  -3.709  0.00  0.00    +0.088 C 
ATOM      7  C   UNL     1      -1.968   1.522  -2.272  0.00  0.00    +0.163 C 
ATOM      8  O   UNL     1      -1.969   0.382  -1.853  0.00  0.00    -0.292 OA
ATOM      9  N   UNL     1      -1.329   4.925  -1.050  0.00  0.00    -0.316 N 
ATOM     10  C   UNL     1      -0.257   5.010  -0.168  0.00  0.00    +0.052 A 
ATOM     11  C   UNL     1       0.748   5.950  -0.317  0.00  0.00    +0.025 A 
ATOM     12  C   UNL     1       1.728   6.053   0.656  0.00  0.00    +0.002 A 
ATOM     13  C   UNL     1       1.704   5.225   1.763  0.00  0.00    +0.002 A 
ATOM     14  C   UNL     1       0.710   4.271   1.902  0.00  0.00    +0.025 A 
ATOM     15  C   UNL     1      -0.263   4.153   0.922  0.00  0.00    +0.049 A 
ATOM     16  N   UNL     1      -1.256   3.179   0.996  0.00  0.00    -0.331 N 
ATOM     17  H   UNL     1      -1.969   5.818  -1.099  0.00  0.00    +0.152 HD
ATOM     18  H   UNL     1      -1.990   3.229   1.814  0.00  0.00    +0.147 HD
ENDROOT
BRANCH   1  22
ATOM     19  C   UNL     1       2.398   0.029  -0.020  0.00  0.00    +0.030 A 
ATOM     20  C   UNL     1       1.225  -0.651   0.280  0.00  0.00    +0.023 A 
ATOM     21  C   UNL     1       0.021   0.026   0.295  0.00  0.00    +0.007 A 
ATOM     22  C   UNL     1      -0.017   1.379   0.010  0.00  0.00    -0.023 A 
ATOM     23  C   UNL     1       1.150   2.058  -0.290  0.00  0.00    +0.007 A 
ATOM     24  C   UNL     1       2.357   1.387  -0.306  0.00  0.00    +0.023 A 
BRANCH  19  25
ATOM     25  N   UNL     1       3.618  -0.653  -0.035  0.00  0.00    -0.330 N 
BRANCH  25  27
ATOM     26  C   UNL     1       5.470   0.616   0.935  0.00  0.00    +0.024 C 
ATOM     27  C   UNL     1       4.854   0.065  -0.353  0.00  0.00    +0.102 C 
ENDBRANCH  25  27
BRANCH  25  28
ATOM     28  C   UNL     1       3.660  -2.086   0.267  0.00  0.00    +0.102 C 
ATOM     29  C   UNL     1       3.490  -2.885  -1.027  0.00  0.00    +0.024 C 
ENDBRANCH  25  28
ENDBRANCH  19  25
ENDBRANCH   1  22
BRANCH   5  30
ATOM     30  C   UNL     1      -3.196   3.479  -5.284  0.00  0.00    -0.040 A 
ATOM     31  C   UNL     1      -2.166   3.444  -6.205  0.00  0.00    +0.008 A 
ATOM     32  C   UNL     1      -2.413   3.727  -7.535  0.00  0.00    +0.049 A 
ATOM     33  C   UNL     1      -3.696   4.046  -7.949  0.00  0.00    +0.161 A 
ATOM     34  C   UNL     1      -4.734   4.080  -7.022  0.00  0.00    +0.162 A 
ATOM     35  C   UNL     1      -4.480   3.791  -5.691  0.00  0.00    +0.053 A 
BRANCH  34  36
ATOM     36  O   UNL     1      -5.995   4.393  -7.423  0.00  0.00    -0.491 OA
ATOM     37  C   UNL     1      -7.011   4.409  -6.417  0.00  0.00    +0.277 C 
ENDBRANCH  34  36
BRANCH  33  38
ATOM     38  O   UNL     1      -3.942   4.324  -9.257  0.00  0.00    -0.491 OA
ATOM     39  C   UNL     1      -2.829   4.268 -10.152  0.00  0.00    +0.277 C 
ENDBRANCH  33  38
ENDBRANCH   5  30
TORSDOF 7
