REMARK  Name = ZINC02974762
REMARK  5 active torsions:
REMARK  status: ('A' for Active; 'I' for Inactive)
REMARK    1  A    between atoms: C_1  and  C_2
REMARK    2  A    between atoms: C_2  and  C_3
REMARK    3  A    between atoms: C_2  and  N_4
REMARK    4  A    between atoms: C_7  and  C_21
REMARK    5  A    between atoms: N_9  and  C_14
REMARK                            x       y       z     vdW  Elec       q    Type
REMARK                         _______ _______ _______ _____ _____    ______ ____
ROOT
ATOM      1  N   UNL     1       2.107   3.581  -2.371  0.00  0.00    -0.326 N 
ATOM      2  C   UNL     1       3.383   3.937  -1.974  0.00  0.00    +0.132 A 
ATOM      3  C   UNL     1       4.020   3.267  -0.921  0.00  0.00    +0.067 A 
ATOM      4  C   UNL     1       3.659   2.163  -0.021  0.00  0.00    +0.013 A 
ATOM      5  C   UNL     1       4.719   1.975   0.804  0.00  0.00    +0.102 A 
ATOM      6  N   UNL     1       5.712   2.863   0.487  0.00  0.00    -0.300 N 
ATOM      7  C   UNL     1       5.318   3.663  -0.553  0.00  0.00    +0.151 A 
ATOM      8  N   UNL     1       5.891   4.663  -1.223  0.00  0.00    -0.217 NA
ATOM      9  C   UNL     1       5.255   5.265  -2.205  0.00  0.00    +0.225 A 
ATOM     10  N   UNL     1       4.036   4.923  -2.582  0.00  0.00    -0.220 NA
ATOM     11  H   UNL     1       1.641   2.860  -1.920  0.00  0.00    +0.148 HD
ENDROOT
BRANCH   6  12
ATOM     12  C   UNL     1       6.950   2.946   1.138  0.00  0.00    +0.048 A 
ATOM     13  C   UNL     1       8.125   2.960   0.398  0.00  0.00    +0.029 A 
ATOM     14  C   UNL     1       9.344   3.047   1.040  0.00  0.00    +0.040 A 
ATOM     15  C   UNL     1       9.396   3.108   2.423  0.00  0.00    +0.124 A 
ATOM     16  C   UNL     1       8.226   3.090   3.163  0.00  0.00    +0.040 A 
ATOM     17  C   UNL     1       7.005   3.008   2.524  0.00  0.00    +0.029 A 
ATOM     18  F   UNL     1      10.590   3.188   3.050  0.00  0.00    -0.205 F 
ENDBRANCH   6  12
BRANCH   4  19
ATOM     19  C   UNL     1       2.384   1.407  -0.013  0.00  0.00    -0.016 A 
ATOM     20  C   UNL     1       1.167   2.088   0.002  0.00  0.00    +0.008 A 
ATOM     21  C   UNL     1      -0.017   1.379   0.010  0.00  0.00    +0.001 A 
ATOM     22  C   UNL     1       0.002  -0.004   0.002  0.00  0.00    +0.000 A 
ATOM     23  C   UNL     1       1.206  -0.685  -0.013  0.00  0.00    +0.001 A 
ATOM     24  C   UNL     1       2.397   0.013  -0.021  0.00  0.00    +0.008 A 
ENDBRANCH   4  19
BRANCH   1  26
ATOM     25  C   UNL     1       0.408   3.388  -4.120  0.00  0.00    +0.027 C 
ATOM     26  C   UNL     1       1.458   4.295  -3.474  0.00  0.00    +0.066 C 
ATOM     27  C   UNL     1       0.780   5.557  -2.937  0.00  0.00    +0.027 C 
ENDBRANCH   1  26
TORSDOF 3
