REMARK  Name = ZINC59843917
REMARK  6 active torsions:
REMARK  status: ('A' for Active; 'I' for Inactive)
REMARK    1  A    between atoms: C_4  and  N_25
REMARK    2  A    between atoms: C_5  and  C_7
REMARK    3  A    between atoms: N_8  and  N_9
REMARK    4  A    between atoms: C_12  and  S_15
REMARK    5  A    between atoms: S_15  and  C_16
REMARK    6  A    between atoms: C_16  and  C_17
REMARK                            x       y       z     vdW  Elec       q    Type
REMARK                         _______ _______ _______ _____ _____    ______ ____
ROOT
ATOM      1  N   UNL     1       1.886  -4.284   0.172  0.00  0.00    -0.205 N 
ATOM      2  C   UNL     1       3.015  -5.075   0.281  0.00  0.00    +0.232 A 
ATOM      3  N   UNL     1       4.256  -4.644   0.374  0.00  0.00    -0.186 NA
ATOM      4  C   UNL     1       5.089  -5.686   0.464  0.00  0.00    +0.210 A 
ATOM      5  N   UNL     1       4.388  -6.795   0.429  0.00  0.00    -0.144 NA
ATOM      6  N   UNL     1       3.039  -6.424   0.316  0.00  0.00    -0.245 N 
ATOM      7  H   UNL     1       1.010  -4.696   0.113  0.00  0.00    +0.177 HD
ATOM      8  H   UNL     1       2.275  -7.020   0.269  0.00  0.00    +0.192 HD
ENDROOT
BRANCH   1  10
ATOM      9  C   UNL     1       0.948  -2.146   0.045  0.00  0.00    +0.140 C 
ATOM     10  N   UNL     1       2.008  -2.889   0.147  0.00  0.00    -0.187 NA
BRANCH   9  15
ATOM     11  C   UNL     1       2.452   1.291  -0.043  0.00  0.00    +0.001 A 
ATOM     12  C   UNL     1       1.316   2.081  -0.028  0.00  0.00    +0.002 A 
ATOM     13  C   UNL     1       0.061   1.500   0.009  0.00  0.00    +0.033 A 
ATOM     14  C   UNL     1      -0.066   0.127   0.033  0.00  0.00    +0.135 A 
ATOM     15  C   UNL     1       1.076  -0.677   0.019  0.00  0.00    +0.025 A 
ATOM     16  C   UNL     1       2.340  -0.084  -0.019  0.00  0.00    +0.012 A 
BRANCH  14  17
ATOM     17  N   UNL     1      -1.410  -0.493   0.074  0.00  0.00    +0.057 N 
ATOM     18  O   UNL     1      -2.392   0.200   0.202  0.00  0.00    -0.126 OA
ATOM     19  O   UNL     1      -1.526  -1.693  -0.019  0.00  0.00    -0.126 OA
ENDBRANCH  14  17
ENDBRANCH   9  15
ENDBRANCH   1  10
BRANCH   4  20
ATOM     20  S   UNL     1       6.842  -5.587   0.606  0.00  0.00    -0.080 S 
BRANCH  20  21
ATOM     21  C   UNL     1       7.375  -7.319   0.686  0.00  0.00    +0.112 C 
BRANCH  21  22
ATOM     22  C   UNL     1       8.876  -7.377   0.811  0.00  0.00    -0.036 A 
ATOM     23  C   UNL     1       9.662  -7.423  -0.326  0.00  0.00    +0.006 A 
ATOM     24  C   UNL     1      11.039  -7.477  -0.213  0.00  0.00    +0.022 A 
ATOM     25  C   UNL     1      11.630  -7.485   1.038  0.00  0.00    +0.059 A 
ATOM     26  C   UNL     1      10.843  -7.439   2.176  0.00  0.00    +0.060 A 
ATOM     27  C   UNL     1       9.465  -7.380   2.061  0.00  0.00    +0.026 A 
ATOM     28 CL   UNL     1      11.583  -7.449   3.746  0.00  0.00    -0.082 Cl
ATOM     29 CL   UNL     1      13.359  -7.554   1.181  0.00  0.00    -0.082 Cl
ENDBRANCH  21  22
ENDBRANCH  20  21
ENDBRANCH   4  20
TORSDOF 6
