REMARK  Name = ZINC36692495
REMARK  8 active torsions:
REMARK  status: ('A' for Active; 'I' for Inactive)
REMARK    1  A    between atoms: C_1  and  C_2
REMARK    2  A    between atoms: C_7  and  C_9
REMARK    3  A    between atoms: C_7  and  C_10
REMARK    4  A    between atoms: N_13  and  C_17
REMARK    5  A    between atoms: C_17  and  C_18
REMARK    6  A    between atoms: N_20  and  C_21
REMARK    7  A    between atoms: C_26  and  C_27
REMARK    8  A    between atoms: C_27  and  C_28
REMARK                            x       y       z     vdW  Elec       q    Type
REMARK                         _______ _______ _______ _____ _____    ______ ____
ROOT
ATOM      1  C   UNL     1      -0.247  -3.357  -4.500  0.00  0.00    +0.214 C 
ENDROOT
BRANCH   1  13
ATOM      2  C   UNL     1       0.333   1.619   0.514  0.00  0.00    +0.007 C 
ATOM      3  C   UNL     1       0.077   0.120   0.348  0.00  0.00    -0.011 C 
ATOM      4  C   UNL     1       0.602  -0.340  -1.015  0.00  0.00    +0.038 C 
ATOM      5  C   UNL     1       0.366  -1.838  -1.173  0.00  0.00    +0.113 C 
ATOM      6  C   UNL     1       1.065  -2.614  -0.062  0.00  0.00    +0.041 C 
ATOM      7  C   UNL     1       0.539  -2.146   1.298  0.00  0.00    -0.032 C 
ATOM      8  C   UNL     1       0.801  -0.647   1.456  0.00  0.00    +0.009 C 
ATOM      9  C   UNL     1      -0.965  -2.413   1.382  0.00  0.00    +0.011 C 
ATOM     10  C   UNL     1       1.256  -2.910   2.412  0.00  0.00    +0.011 C 
ATOM     11  C   UNL     1       0.846  -2.308  -2.527  0.00  0.00    +0.247 C 
ATOM     12  O   UNL     1       1.976  -2.260  -2.963  0.00  0.00    -0.273 OA
ATOM     13  N   UNL     1      -0.250  -2.792  -3.149  0.00  0.00    -0.215 N 
ATOM     14  C   UNL     1      -1.339  -2.691  -2.378  0.00  0.00    +0.310 C 
ATOM     15  O   UNL     1      -2.446  -3.060  -2.719  0.00  0.00    -0.252 OA
ATOM     16  N   UNL     1      -1.072  -2.134  -1.181  0.00  0.00    -0.285 N 
ATOM     17  H   UNL     1      -1.704  -1.963  -0.466  0.00  0.00    +0.151 HD
ENDBRANCH   1  13
BRANCH   1  18
ATOM     18  C   UNL     1       0.017  -4.839  -4.424  0.00  0.00    +0.235 C 
ATOM     19  O   UNL     1       0.186  -5.370  -3.347  0.00  0.00    -0.274 OA
ATOM     20  N   UNL     1       0.065  -5.574  -5.553  0.00  0.00    -0.284 N 
ATOM     21  H   UNL     1       0.006  -5.138  -6.418  0.00  0.00    +0.155 HD
BRANCH  20  22
ATOM     22  C   UNL     1       0.201  -6.964  -5.478  0.00  0.00    +0.037 A 
ATOM     23  C   UNL     1      -0.367  -7.662  -4.420  0.00  0.00    +0.023 A 
ATOM     24  C   UNL     1      -0.232  -9.035  -4.348  0.00  0.00    +0.002 A 
ATOM     25  C   UNL     1       0.470  -9.714  -5.328  0.00  0.00    +0.000 A 
ATOM     26  C   UNL     1       1.037  -9.022  -6.382  0.00  0.00    +0.006 A 
ATOM     27  C   UNL     1       0.899  -7.649  -6.463  0.00  0.00    -0.022 A 
BRANCH  27  28
ATOM     28  C   UNL     1       1.512  -6.897  -7.616  0.00  0.00    +0.072 C 
BRANCH  28  29
ATOM     29  C   UNL     1       2.870  -6.382  -7.215  0.00  0.00    -0.043 A 
ATOM     30  C   UNL     1       2.991  -5.135  -6.630  0.00  0.00    +0.004 A 
ATOM     31  C   UNL     1       4.237  -4.663  -6.262  0.00  0.00    +0.000 A 
ATOM     32  C   UNL     1       5.362  -5.437  -6.478  0.00  0.00    +0.000 A 
ATOM     33  C   UNL     1       5.240  -6.684  -7.062  0.00  0.00    +0.000 A 
ATOM     34  C   UNL     1       3.994  -7.159  -7.426  0.00  0.00    +0.004 A 
ENDBRANCH  28  29
ENDBRANCH  27  28
ENDBRANCH  20  22
ENDBRANCH   1  18
TORSDOF 5
