REMARK  Name = ZINC61706967
REMARK  5 active torsions:
REMARK  status: ('A' for Active; 'I' for Inactive)
REMARK    1  A    between atoms: C_1  and  C_2
REMARK    2  A    between atoms: C_5  and  C_19
REMARK    3  A    between atoms: C_6  and  S_9
REMARK    4  A    between atoms: S_9  and  N_12
REMARK    5  A    between atoms: C_15  and  O_18
REMARK                            x       y       z     vdW  Elec       q    Type
REMARK                         _______ _______ _______ _____ _____    ______ ____
ROOT
ATOM      1  C   UNL     1       0.049  -2.723  -2.569  0.00  0.00    +0.045 C 
ATOM      2  C   UNL     1       0.035  -2.027  -1.233  0.00  0.00    -0.029 A 
ATOM      3  C   UNL     1       0.212  -0.658  -1.165  0.00  0.00    +0.025 A 
ATOM      4  C   UNL     1       0.199  -0.019   0.062  0.00  0.00    +0.046 A 
ATOM      5  C   UNL     1       0.009  -0.750   1.221  0.00  0.00    -0.004 A 
ATOM      6  C   UNL     1      -0.168  -2.119   1.153  0.00  0.00    +0.128 A 
ATOM      7  C   UNL     1      -0.161  -2.757  -0.075  0.00  0.00    +0.071 A 
ATOM      8 CL   UNL     1      -0.391  -4.476  -0.161  0.00  0.00    -0.081 Cl
ATOM      9  C   UNL     1      -0.005  -0.054   2.558  0.00  0.00    +0.047 C 
ATOM     10 CL   UNL     1       0.422   1.701   0.148  0.00  0.00    -0.083 Cl
ENDROOT
BRANCH   6  11
ATOM     11  S   UNL     1      -0.410  -3.051   2.629  0.00  0.00    +0.063 S 
ATOM     12  O   UNL     1      -0.994  -2.167   3.576  0.00  0.00    -0.153 OA
ATOM     13  O   UNL     1      -1.029  -4.270   2.243  0.00  0.00    -0.153 OA
BRANCH  11  14
ATOM     14  N   UNL     1       1.090  -3.445   3.211  0.00  0.00    -0.174 NA
ATOM     15  C   UNL     1       1.853  -4.658   2.866  0.00  0.00    +0.112 C 
ATOM     16  C   UNL     1       3.334  -4.281   3.123  0.00  0.00    +0.050 C 
ATOM     17  C   UNL     1       3.212  -3.387   4.386  0.00  0.00    +0.131 C 
ATOM     18  C   UNL     1       1.883  -2.640   4.151  0.00  0.00    +0.140 C 
BRANCH  17  19
ATOM     19  O   UNL     1       4.303  -2.467   4.460  0.00  0.00    -0.390 OA
ATOM     20  H   UNL     1       5.170  -2.890   4.529  0.00  0.00    +0.210 HD
ENDBRANCH  17  19
ENDBRANCH  11  14
ENDBRANCH   6  11
TORSDOF 3
