REMARK  Name = ZINC34676865
REMARK  6 active torsions:
REMARK  status: ('A' for Active; 'I' for Inactive)
REMARK    1  A    between atoms: C_1  and  N_2
REMARK    2  A    between atoms: N_2  and  C_3
REMARK    3  A    between atoms: N_13  and  C_16
REMARK    4  A    between atoms: N_25  and  S_27
REMARK    5  A    between atoms: S_27  and  C_30
REMARK    6  A    between atoms: C_35  and  C_36
REMARK                            x       y       z     vdW  Elec       q    Type
REMARK                         _______ _______ _______ _____ _____    ______ ____
ROOT
ATOM      1  C   UNL     1       0.655   0.372   1.228  0.00  0.00    +0.130 C 
ATOM      2  N   UNL     1       0.003  -0.005  -0.028  0.00  0.00    -0.321 N 
ATOM      3  C   UNL     1       0.549   0.459  -1.305  0.00  0.00    +0.130 C 
ATOM      4  C   UNL     1      -1.131  -0.801  -0.008  0.00  0.00    +0.130 A 
ATOM      5  C   UNL     1      -2.405  -0.221  -0.037  0.00  0.00    +0.027 A 
ATOM      6  C   UNL     1      -3.505  -1.043  -0.022  0.00  0.00    +0.028 A 
ATOM      7  N   UNL     1      -3.321  -2.361   0.033  0.00  0.00    -0.331 N 
ATOM      8  C   UNL     1      -2.107  -2.884   0.062  0.00  0.00    +0.198 A 
ATOM      9  N   UNL     1      -1.022  -2.124   0.033  0.00  0.00    -0.201 NA
ATOM     10  N   UNL     1      -1.966  -4.260   0.118  0.00  0.00    -0.298 N 
ATOM     11  C   UNL     1      -3.140  -5.137   0.013  0.00  0.00    +0.127 C 
ATOM     12  C   UNL     1      -2.910  -6.128  -1.135  0.00  0.00    +0.124 C 
ATOM     13  N   UNL     1      -1.583  -6.738  -0.970  0.00  0.00    -0.325 N 
ATOM     14  C   UNL     1      -0.409  -5.861  -0.865  0.00  0.00    +0.124 C 
ATOM     15  C   UNL     1      -0.638  -4.870   0.277  0.00  0.00    +0.127 C 
ATOM     16  C   UNL     1      -4.915  -0.523  -0.081  0.00  0.00    +0.071 C 
ATOM     17  C   UNL     1      -4.969   0.946   0.339  0.00  0.00    +0.116 C 
ATOM     18  N   UNL     1      -3.899   1.664  -0.374  0.00  0.00    -0.172 NA
ATOM     19  C   UNL     1      -2.514   1.280  -0.076  0.00  0.00    +0.149 C 
ATOM     20  H   UNL     1      -4.093  -2.948   0.053  0.00  0.00    +0.168 HD
ENDROOT
BRANCH  13  21
ATOM     21  C   UNL     1      -1.441  -8.128  -0.914  0.00  0.00    +0.065 A 
ATOM     22  C   UNL     1      -1.232  -8.854  -2.079  0.00  0.00    +0.026 A 
ATOM     23  C   UNL     1      -1.091 -10.227  -2.021  0.00  0.00    +0.002 A 
ATOM     24  C   UNL     1      -1.158 -10.880  -0.803  0.00  0.00    +0.003 A 
ATOM     25  C   UNL     1      -1.367 -10.161   0.360  0.00  0.00    +0.040 A 
ATOM     26  C   UNL     1      -1.503  -8.786   0.309  0.00  0.00    +0.144 A 
ATOM     27  F   UNL     1      -1.700  -8.084   1.446  0.00  0.00    -0.204 F 
ENDBRANCH  13  21
BRANCH  18  28
ATOM     28  S   UNL     1      -4.245   2.856  -1.470  0.00  0.00    +0.062 S 
ATOM     29  O   UNL     1      -3.129   2.938  -2.346  0.00  0.00    -0.153 OA
ATOM     30  O   UNL     1      -5.564   2.608  -1.937  0.00  0.00    -0.153 OA
BRANCH  28  31
ATOM     31  C   UNL     1      -4.302   4.378  -0.583  0.00  0.00    +0.123 A 
ATOM     32  C   UNL     1      -3.375   5.366  -0.845  0.00  0.00    +0.030 A 
ATOM     33  C   UNL     1      -3.419   6.561  -0.150  0.00  0.00    +0.002 A 
ATOM     34  C   UNL     1      -4.390   6.774   0.812  0.00  0.00    +0.001 A 
ATOM     35  C   UNL     1      -5.322   5.795   1.085  0.00  0.00    +0.021 A 
ATOM     36  C   UNL     1      -5.288   4.588   0.382  0.00  0.00    +0.078 A 
BRANCH  36  37
ATOM     37  C   UNL     1      -6.257   3.570   0.655  0.00  0.00    +0.101 C 
ATOM     38  N   UNL     1      -7.026   2.761   0.871  0.00  0.00    -0.191 NA
ENDBRANCH  36  37
ENDBRANCH  28  31
ENDBRANCH  18  28
TORSDOF 4
