REMARK  Name = ZINC32325468
REMARK  6 active torsions:
REMARK  status: ('A' for Active; 'I' for Inactive)
REMARK    1  A    between atoms: C_1  and  C_2
REMARK    2  A    between atoms: C_3  and  C_7
REMARK    3  A    between atoms: C_10  and  S_13
REMARK    4  A    between atoms: N_11  and  N_12
REMARK    5  A    between atoms: S_13  and  C_14
REMARK    6  A    between atoms: C_14  and  C_15
REMARK                            x       y       z     vdW  Elec       q    Type
REMARK                         _______ _______ _______ _____ _____    ______ ____
ROOT
ATOM      1  C   UNL     1       1.331  -0.356  -0.013  0.00  0.00    +0.185 A 
ATOM      2  N   UNL     1       2.025   0.758  -0.013  0.00  0.00    -0.127 NA
ATOM      3  N   UNL     1       1.232   1.769  -0.000  0.00  0.00    -0.121 NA
ATOM      4  C   UNL     1      -0.017   1.363   0.009  0.00  0.00    +0.209 A 
ATOM      5  N   UNL     1       0.002  -0.004   0.002  0.00  0.00    -0.224 N 
ENDROOT
BRANCH   1   8
ATOM      6  C   UNL     1       4.363  -1.153  -0.059  0.00  0.00    +0.087 C 
ATOM      7  C   UNL     1       3.187  -2.095  -0.046  0.00  0.00    +0.112 A 
ATOM      8  C   UNL     1       1.876  -1.732  -0.026  0.00  0.00    +0.061 A 
ATOM      9  C   UNL     1       1.115  -2.987  -0.027  0.00  0.00    +0.053 A 
ATOM     10  C   UNL     1       2.026  -3.974  -0.042  0.00  0.00    +0.196 A 
ATOM     11  O   UNL     1       3.255  -3.435  -0.050  0.00  0.00    -0.467 OA
ENDBRANCH   1   8
BRANCH   5  12
ATOM     12  N   UNL     1      -1.075  -0.844   0.007  0.00  0.00    -0.295 N 
ATOM     13  H   UNL     1      -2.095  -0.432   0.019  0.00  0.00    +0.163 HD
ATOM     14  H   UNL     1      -0.923  -1.934  -0.000  0.00  0.00    +0.163 HD
ENDBRANCH   5  12
BRANCH   4  15
ATOM     15  S   UNL     1      -1.449   2.389   0.022  0.00  0.00    -0.080 S 
BRANCH  15  16
ATOM     16  C   UNL     1      -0.666   4.021   0.027  0.00  0.00    +0.115 C 
BRANCH  16  17
ATOM     17  C   UNL     1      -1.730   5.088   0.038  0.00  0.00    -0.001 A 
ATOM     18  C   UNL     1      -2.221   5.589  -1.154  0.00  0.00    +0.046 A 
ATOM     19  C   UNL     1      -3.201   6.566  -1.144  0.00  0.00    +0.020 A 
ATOM     20  C   UNL     1      -3.683   7.048   0.059  0.00  0.00    +0.003 A 
ATOM     21  C   UNL     1      -3.190   6.552   1.251  0.00  0.00    +0.020 A 
ATOM     22  C   UNL     1      -2.213   5.572   1.241  0.00  0.00    +0.046 A 
ATOM     23 CL   UNL     1      -1.593   4.949   2.739  0.00  0.00    -0.083 Cl
ATOM     24 CL   UNL     1      -1.611   4.988  -2.664  0.00  0.00    -0.083 Cl
ENDBRANCH  16  17
ENDBRANCH  15  16
ENDBRANCH   4  15
TORSDOF 5
