REMARK  Name = ZINC33592267
REMARK  11 active torsions:
REMARK  status: ('A' for Active; 'I' for Inactive)
REMARK    1  A    between atoms: C_1  and  C_2
REMARK    2  A    between atoms: C_2  and  N_3
REMARK    3  A    between atoms: N_6  and  C_9
REMARK    4  A    between atoms: C_9  and  C_11
REMARK    5  A    between atoms: C_9  and  C_17
REMARK    6  A    between atoms: C_19  and  C_32
REMARK    7  A    between atoms: C_20  and  C_31
REMARK    8  A    between atoms: C_29  and  O_30
REMARK    9  A    between atoms: C_32  and  O_34
REMARK   10  A    between atoms: O_34  and  C_35
REMARK   11  A    between atoms: C_35  and  C_36
REMARK                            x       y       z     vdW  Elec       q    Type
REMARK                         _______ _______ _______ _____ _____    ______ ____
ROOT
ATOM      1  C   UNL     1      -1.595  -2.627  -2.437  0.00  0.00    +0.029 A 
ATOM      2  C   UNL     1      -1.550  -2.773  -1.042  0.00  0.00    +0.044 A 
ATOM      3  C   UNL     1      -1.583  -1.818   0.084  0.00  0.00    +0.108 A 
ATOM      4  C   UNL     1      -1.501  -2.576   1.213  0.00  0.00    +0.117 A 
ATOM      5  O   UNL     1      -1.432  -3.869   0.880  0.00  0.00    -0.458 OA
ATOM      6  C   UNL     1      -1.455  -4.034  -0.457  0.00  0.00    +0.144 A 
ATOM      7  C   UNL     1      -1.403  -5.173  -1.289  0.00  0.00    +0.029 A 
ATOM      8  C   UNL     1      -1.307  -6.464  -0.745  0.00  0.00    +0.012 A 
ATOM      9  C   UNL     1      -1.260  -7.544  -1.574  0.00  0.00    +0.001 A 
ATOM     10  C   UNL     1      -1.305  -7.386  -2.957  0.00  0.00    +0.001 A 
ATOM     11  C   UNL     1      -1.398  -6.148  -3.517  0.00  0.00    +0.012 A 
ATOM     12  C   UNL     1      -1.449  -5.013  -2.694  0.00  0.00    +0.027 A 
ATOM     13  C   UNL     1      -1.546  -3.717  -3.251  0.00  0.00    +0.130 A 
ATOM     14  C   UNL     1      -1.492  -2.039   2.621  0.00  0.00    +0.087 C 
ENDROOT
BRANCH  13  15
ATOM     15  O   UNL     1      -1.590  -3.559  -4.600  0.00  0.00    -0.506 OA
ATOM     16  H   UNL     1      -1.551  -4.439  -5.258  0.00  0.00    +0.292 HD
ENDBRANCH  13  15
BRANCH   3  17
ATOM     17  C   UNL     1      -1.679  -0.354   0.003  0.00  0.00    +0.343 C 
ATOM     18  O   UNL     1      -2.768   0.185  -0.004  0.00  0.00    -0.245 OA
BRANCH  17  19
ATOM     19  O   UNL     1      -0.558   0.392  -0.063  0.00  0.00    -0.461 OA
BRANCH  19  20
ATOM     20  C   UNL     1      -0.728   1.832  -0.141  0.00  0.00    +0.229 C 
ATOM     21  C   UNL     1       0.645   2.505  -0.208  0.00  0.00    +0.048 C 
ENDBRANCH  19  20
ENDBRANCH  17  19
ENDBRANCH   3  17
BRANCH   1  22
ATOM     22  C   UNL     1      -1.698  -1.250  -3.039  0.00  0.00    +0.140 C 
BRANCH  22  26
ATOM     23  N   UNL     1      -5.214  -0.422  -5.230  0.00  0.00    +0.381 N 
ATOM     24  C   UNL     1      -5.075  -1.756  -4.630  0.00  0.00    -0.063 C 
ATOM     25  C   UNL     1      -4.029  -1.704  -3.513  0.00  0.00    +0.067 C 
ATOM     26  N   UNL     1      -2.748  -1.242  -4.066  0.00  0.00    -0.294 NA
ATOM     27  C   UNL     1      -2.888   0.092  -4.667  0.00  0.00    +0.067 C 
ATOM     28  C   UNL     1      -3.933   0.039  -5.784  0.00  0.00    -0.063 C 
ATOM     29  H   UNL     1      -5.513   0.278  -4.437  0.00  0.00    -0.082 HD
BRANCH  23  31
ATOM     30  C   UNL     1      -6.214   0.906  -7.029  0.00  0.00    -0.017 C 
ATOM     31  C   UNL     1      -6.264  -0.414  -6.257  0.00  0.00    -0.082 C 
ENDBRANCH  23  31
ENDBRANCH  22  26
BRANCH  22  32
ATOM     32  C   UNL     1      -0.380  -0.876  -3.666  0.00  0.00    +0.063 A 
ATOM     33  C   UNL     1       0.618  -0.327  -2.883  0.00  0.00    +0.025 A 
ATOM     34  C   UNL     1       1.827   0.013  -3.470  0.00  0.00    +0.003 A 
ATOM     35  C   UNL     1       1.989  -0.213  -4.828  0.00  0.00    +0.020 A 
ATOM     36  C   UNL     1       0.946  -0.766  -5.547  0.00  0.00    +0.111 A 
ATOM     37  N   UNL     1      -0.189  -1.082  -4.955  0.00  0.00    -0.258 NA
ENDBRANCH  22  32
ENDBRANCH   1  22
TORSDOF 8
