REMARK  Name = ZINC06194704
REMARK  9 active torsions:
REMARK  status: ('A' for Active; 'I' for Inactive)
REMARK    1  A    between atoms: C_1  and  C_2
REMARK    2  A    between atoms: C_2  and  O_3
REMARK    3  A    between atoms: O_3  and  C_4
REMARK    4  A    between atoms: C_4  and  C_6
REMARK    5  A    between atoms: C_11  and  C_13
REMARK    6  A    between atoms: C_11  and  C_26
REMARK    7  A    between atoms: C_11  and  N_66
REMARK    8  A    between atoms: C_19  and  C_25
REMARK    9  A    between atoms: N_30  and  C_31
REMARK                            x       y       z     vdW  Elec       q    Type
REMARK                         _______ _______ _______ _____ _____    ______ ____
ROOT
ATOM      1  C   UNL     1       0.088  -2.864   4.922  0.00  0.00    +0.039 C 
ENDROOT
BRANCH   1   2
ATOM      2  C   UNL     1      -0.031  -2.252   3.550  0.00  0.00    +0.011 A 
ATOM      3  C   UNL     1      -0.102  -3.051   2.457  0.00  0.00    +0.017 A 
ATOM      4  C   UNL     1      -0.217  -2.425   1.139  0.00  0.00    -0.001 A 
ATOM      5  C   UNL     1      -0.294  -3.197  -0.025  0.00  0.00    +0.010 A 
ATOM      6  C   UNL     1      -0.400  -2.582  -1.240  0.00  0.00    +0.001 A 
ATOM      7  C   UNL     1      -0.438  -1.197  -1.330  0.00  0.00    +0.005 A 
ATOM      8  C   UNL     1      -0.358  -0.416  -0.197  0.00  0.00    -0.026 A 
ATOM      9  C   UNL     1      -0.249  -1.020   1.052  0.00  0.00    +0.052 A 
ATOM     10  N   UNL     1      -0.172  -0.264   2.201  0.00  0.00    -0.322 N 
ATOM     11  H   UNL     1      -0.195   0.734   2.137  0.00  0.00    +0.169 HD
ATOM     12  C   UNL     1      -0.067  -0.848   3.408  0.00  0.00    +0.251 A 
ATOM     13  O   UNL     1      -0.001  -0.148   4.403  0.00  0.00    -0.268 OA
ATOM     14  C   UNL     1      -0.395   1.086  -0.310  0.00  0.00    +0.046 C 
ENDBRANCH   1   2
BRANCH   1  20
ATOM     15  C   UNL     1      -3.280  -2.437   7.522  0.00  0.00    +0.094 C 
ATOM     16  C   UNL     1      -3.370  -1.927   6.081  0.00  0.00    -0.004 C 
ATOM     17  C   UNL     1      -2.300  -2.618   5.233  0.00  0.00    -0.077 C 
ATOM     18  C   UNL     1      -0.845  -2.855   7.156  0.00  0.00    -0.077 C 
ATOM     19  C   UNL     1      -1.872  -2.171   8.062  0.00  0.00    -0.004 C 
ATOM     20  N   UNL     1      -0.968  -2.303   5.790  0.00  0.00    +0.389 N 
ATOM     21  H   UNL     1      -0.858  -1.283   5.832  0.00  0.00    -0.080 HD
BRANCH  15  22
ATOM     22  C   UNL     1      -4.292  -1.717   8.376  0.00  0.00    +0.310 C 
ATOM     23  O   UNL     1      -5.013  -0.882   7.883  0.00  0.00    -0.251 OA
BRANCH  22  24
ATOM     24  O   UNL     1      -4.393  -2.004   9.683  0.00  0.00    -0.465 OA
BRANCH  24  26
ATOM     25  C   UNL     1      -5.357  -1.732  11.902  0.00  0.00    +0.048 C 
ATOM     26  C   UNL     1      -5.390  -1.272  10.444  0.00  0.00    +0.229 C 
ENDBRANCH  24  26
ENDBRANCH  22  24
ENDBRANCH  15  22
ENDBRANCH   1  20
BRANCH   1  27
ATOM     27  C   UNL     1       1.434  -2.526   5.509  0.00  0.00    +0.143 A 
ATOM     28  N   UNL     1       1.805  -1.368   5.999  0.00  0.00    -0.115 NA
ATOM     29  N   UNL     1       3.024  -1.479   6.401  0.00  0.00    -0.023 NA
ATOM     30  N   UNL     1       3.440  -2.678   6.181  0.00  0.00    -0.044 NA
ATOM     31  N   UNL     1       2.486  -3.355   5.636  0.00  0.00    -0.227 N 
BRANCH  31  32
ATOM     32  C   UNL     1       2.540  -4.761   5.230  0.00  0.00    +0.111 C 
ATOM     33  C   UNL     1       2.887  -5.649   6.443  0.00  0.00    +0.027 C 
ATOM     34  C   UNL     1       3.804  -6.752   5.856  0.00  0.00    +0.002 C 
ATOM     35  C   UNL     1       4.652  -5.975   4.819  0.00  0.00    +0.002 C 
ATOM     36  C   UNL     1       3.662  -4.969   4.197  0.00  0.00    +0.027 C 
ENDBRANCH  31  32
ENDBRANCH   1  27
TORSDOF 7
