REMARK  Name = ZINC01095743
REMARK  7 active torsions:
REMARK  status: ('A' for Active; 'I' for Inactive)
REMARK    1  A    between atoms: C_1  and  C_2
REMARK    2  A    between atoms: C_2  and  C_4
REMARK    3  A    between atoms: C_2  and  N_17
REMARK    4  A    between atoms: N_6  and  N_7
REMARK    5  A    between atoms: C_8  and  C_9
REMARK    6  A    between atoms: C_14  and  O_15
REMARK    7  A    between atoms: N_17  and  C_18
REMARK                            x       y       z     vdW  Elec       q    Type
REMARK                         _______ _______ _______ _____ _____    ______ ____
ROOT
ATOM      1  C   UNL     1       2.332   0.870  -0.616  0.00  0.00    +0.252 C 
ATOM      2  O   UNL     1       2.079  -0.250  -1.009  0.00  0.00    -0.272 OA
ATOM      3  N   UNL     1       3.584   1.356  -0.730  0.00  0.00    -0.205 N 
ATOM      4  H   UNL     1       3.787   2.251  -0.415  0.00  0.00    +0.177 HD
ENDROOT
BRANCH   1   6
ATOM      5  C   UNL     1       1.635   2.077   1.435  0.00  0.00    +0.038 C 
ATOM      6  C   UNL     1       1.248   1.716  -0.001  0.00  0.00    +0.155 C 
BRANCH   6   7
ATOM      7  N   UNL     1      -0.011   0.966   0.007  0.00  0.00    -0.333 N 
ATOM      8  H   UNL     1       0.002  -0.004   0.002  0.00  0.00    +0.147 HD
BRANCH   7   9
ATOM      9  C   UNL     1      -1.230   1.647   0.017  0.00  0.00    +0.028 A 
ATOM     10  C   UNL     1      -1.240   3.048   0.025  0.00  0.00    +0.023 A 
ATOM     11  C   UNL     1      -2.412   3.737   0.033  0.00  0.00    +0.010 A 
ATOM     12  C   UNL     1      -3.634   3.042   0.035  0.00  0.00    -0.018 A 
ATOM     13  C   UNL     1      -4.860   3.729   0.043  0.00  0.00    +0.008 A 
ATOM     14  C   UNL     1      -6.026   3.026   0.044  0.00  0.00    +0.001 A 
ATOM     15  C   UNL     1      -6.025   1.633   0.036  0.00  0.00    +0.001 A 
ATOM     16  C   UNL     1      -4.857   0.934   0.028  0.00  0.00    +0.008 A 
ATOM     17  C   UNL     1      -3.632   1.625   0.027  0.00  0.00    -0.016 A 
ATOM     18  C   UNL     1      -2.409   0.936   0.013  0.00  0.00    +0.031 A 
ENDBRANCH   7   9
ENDBRANCH   6   7
ENDBRANCH   1   6
BRANCH   3  19
ATOM     19  N   UNL     1       4.592   0.570  -1.302  0.00  0.00    -0.188 NA
ATOM     20  C   UNL     1       5.798   1.039  -1.411  0.00  0.00    +0.142 C 
BRANCH  20  21
ATOM     21  C   UNL     1       6.859   0.211  -2.013  0.00  0.00    +0.037 A 
ATOM     22  C   UNL     1       8.156   0.714  -2.137  0.00  0.00    +0.028 A 
ATOM     23  C   UNL     1       9.145  -0.068  -2.696  0.00  0.00    +0.019 A 
ATOM     24  C   UNL     1       8.855  -1.345  -3.146  0.00  0.00    +0.019 A 
ATOM     25  C   UNL     1       7.574  -1.852  -3.032  0.00  0.00    +0.047 A 
ATOM     26  C   UNL     1       6.570  -1.082  -2.468  0.00  0.00    +0.126 A 
ATOM     27 BR   UNL     1      10.903   0.611  -2.858  0.00  0.00    -0.050 Br
BRANCH  26  28
ATOM     28  O   UNL     1       5.311  -1.579  -2.357  0.00  0.00    -0.506 OA
ATOM     29  H   UNL     1       4.748  -1.398  -3.123  0.00  0.00    +0.292 HD
ENDBRANCH  26  28
ENDBRANCH  20  21
ENDBRANCH   3  19
TORSDOF 6
