REMARK  Name = ZINC57244795
REMARK  7 active torsions:
REMARK  status: ('A' for Active; 'I' for Inactive)
REMARK    1  A    between atoms: C_1  and  C_2
REMARK    2  A    between atoms: C_2  and  C_3
REMARK    3  A    between atoms: C_3  and  C_5
REMARK    4  A    between atoms: C_3  and  N_10
REMARK    5  A    between atoms: N_13  and  N_14
REMARK    6  A    between atoms: C_15  and  C_17
REMARK    7  A    between atoms: C_17  and  C_18
REMARK                            x       y       z     vdW  Elec       q    Type
REMARK                         _______ _______ _______ _____ _____    ______ ____
ROOT
ATOM      1  N   UNL     1      -3.343   0.527  -3.559  0.00  0.00    -0.233 N 
ATOM      2  C   UNL     1      -3.962   0.881  -4.703  0.00  0.00    +0.234 C 
ATOM      3  O   UNL     1      -4.488   1.970  -4.796  0.00  0.00    -0.274 OA
ATOM      4  H   UNL     1      -2.923  -0.344  -3.485  0.00  0.00    +0.173 HD
ENDROOT
BRANCH   1   8
ATOM      5  N   UNL     1      -2.105  -0.148  -1.230  0.00  0.00    -0.291 N 
ATOM      6  C   UNL     1      -2.690   1.062  -1.334  0.00  0.00    +0.316 C 
ATOM      7  O   UNL     1      -2.659   1.834  -0.395  0.00  0.00    -0.251 OA
ATOM      8  N   UNL     1      -3.308   1.416  -2.478  0.00  0.00    -0.218 N 
ATOM      9  H   UNL     1      -2.130  -0.764  -1.980  0.00  0.00    +0.151 HD
ATOM     10  H   UNL     1      -3.729   2.287  -2.552  0.00  0.00    +0.174 HD
BRANCH   5  11
ATOM     11  C   UNL     1      -1.433  -0.534   0.013  0.00  0.00    +0.111 C 
BRANCH  11  12
ATOM     12  C   UNL     1      -1.414  -2.036   0.129  0.00  0.00    +0.010 A 
ATOM     13  C   UNL     1      -1.612  -2.811   1.223  0.00  0.00    +0.013 A 
ATOM     14  C   UNL     1      -1.547  -4.185   1.092  0.00  0.00    +0.008 A 
ATOM     15  C   UNL     1      -1.287  -4.718  -0.127  0.00  0.00    +0.045 A 
ATOM     16  S   UNL     1      -1.131  -3.258  -1.142  0.00  0.00    -0.100 S 
ENDBRANCH  11  12
BRANCH  11  18
ATOM     17  C   UNL     1      -0.019   1.526   0.010  0.00  0.00    +0.006 C 
ATOM     18  C   UNL     1       0.002  -0.004   0.002  0.00  0.00    +0.024 C 
ENDBRANCH  11  18
ENDBRANCH   5  11
ENDBRANCH   1   8
BRANCH   2  19
ATOM     19  C   UNL     1      -4.000  -0.075  -5.867  0.00  0.00    +0.134 C 
BRANCH  19  20
ATOM     20  C   UNL     1      -4.744   0.558  -7.014  0.00  0.00    -0.014 A 
ATOM     21  C   UNL     1      -6.047   0.408  -7.300  0.00  0.00    +0.087 A 
ATOM     22  N   UNL     1      -6.367   1.135  -8.415  0.00  0.00    -0.360 N 
ATOM     23  H   UNL     1      -7.250   1.183  -8.814  0.00  0.00    +0.165 HD
ATOM     24  C   UNL     1      -5.249   1.787  -8.884  0.00  0.00    +0.047 A 
ATOM     25  C   UNL     1      -4.185   1.460  -8.024  0.00  0.00    +0.003 A 
ATOM     26  C   UNL     1      -2.914   1.989  -8.255  0.00  0.00    +0.010 A 
ATOM     27  C   UNL     1      -2.711   2.826  -9.316  0.00  0.00    +0.001 A 
ATOM     28  C   UNL     1      -3.758   3.156 -10.165  0.00  0.00    +0.002 A 
ATOM     29  C   UNL     1      -5.018   2.637  -9.961  0.00  0.00    +0.026 A 
ENDBRANCH  19  20
ENDBRANCH   2  19
TORSDOF 6
