REMARK  Name = ZINC08992366
REMARK  9 active torsions:
REMARK  status: ('A' for Active; 'I' for Inactive)
REMARK    1  A    between atoms: C_1  and  C_2
REMARK    2  A    between atoms: C_4  and  O_33
REMARK    3  A    between atoms: C_7  and  N_8
REMARK    4  A    between atoms: N_8  and  C_9
REMARK    5  A    between atoms: C_11  and  C_32
REMARK    6  A    between atoms: C_12  and  C_30
REMARK    7  A    between atoms: N_15  and  C_18
REMARK    8  A    between atoms: C_18  and  C_19
REMARK    9  A    between atoms: C_19  and  C_20
REMARK                            x       y       z     vdW  Elec       q    Type
REMARK                         _______ _______ _______ _____ _____    ______ ____
ROOT
ATOM      1  C   UNL     1       3.613   2.103  -0.021  0.00  0.00    +0.085 C 
ATOM      2  C   UNL     1       2.409   1.437  -0.231  0.00  0.00    +0.055 C 
ATOM      3  C   UNL     1       1.181   2.124  -0.112  0.00  0.00    -0.015 C 
ATOM      4  C   UNL     1       0.001   1.425  -0.329  0.00  0.00    +0.118 C 
ATOM      5  C   UNL     1       0.057   0.004  -0.673  0.00  0.00    +0.264 C 
ATOM      6  O   UNL     1      -0.978  -0.610  -0.863  0.00  0.00    -0.269 OA
ATOM      7  N   UNL     1       1.236  -0.633  -0.781  0.00  0.00    -0.233 N 
ATOM      8  C   UNL     1       2.400   0.010  -0.579  0.00  0.00    +0.255 C 
ATOM      9  O   UNL     1       3.451  -0.594  -0.684  0.00  0.00    -0.269 OA
ATOM     10  C   UNL     1       1.152   3.588   0.243  0.00  0.00    +0.046 C 
ENDROOT
BRANCH   1  11
ATOM     11  N   UNL     1       4.761   1.407   0.067  0.00  0.00    -0.320 N 
ATOM     12  H   UNL     1       4.741   0.437   0.062  0.00  0.00    +0.152 HD
BRANCH  11  19
ATOM     13  C   UNL     1       7.137  -0.143   0.259  0.00  0.00    +0.046 C 
ATOM     14  C   UNL     1       7.167   1.363   0.260  0.00  0.00    -0.026 A 
ATOM     15  C   UNL     1       8.372   2.030   0.350  0.00  0.00    +0.050 A 
ATOM     16  C   UNL     1       8.399   3.417   0.357  0.00  0.00    +0.117 A 
ATOM     17  C   UNL     1       7.215   4.136   0.268  0.00  0.00    +0.047 A 
ATOM     18  C   UNL     1       6.010   3.471   0.171  0.00  0.00    +0.027 A 
ATOM     19  C   UNL     1       5.982   2.082   0.164  0.00  0.00    +0.034 A 
BRANCH  16  20
ATOM     20  O   UNL     1       9.586   4.073   0.452  0.00  0.00    -0.507 OA
ATOM     21  H   UNL     1       9.861   4.260   1.361  0.00  0.00    +0.292 HD
ENDBRANCH  16  20
ENDBRANCH  11  19
ENDBRANCH   1  11
BRANCH   4  22
ATOM     22  C   UNL     1      -1.261   2.093  -0.223  0.00  0.00    +0.105 C 
ATOM     23  N   UNL     1      -2.263   2.622  -0.138  0.00  0.00    -0.191 NA
ENDBRANCH   4  22
BRANCH   7  24
ATOM     24  C   UNL     1       1.253  -2.057  -1.128  0.00  0.00    +0.122 C 
BRANCH  24  25
ATOM     25  C   UNL     1       1.314  -2.211  -2.648  0.00  0.00    +0.056 C 
BRANCH  25  26
ATOM     26  C   UNL     1       1.332  -3.675  -3.005  0.00  0.00    -0.021 A 
ATOM     27  C   UNL     1       2.419  -4.425  -3.247  0.00  0.00    +0.087 A 
ATOM     28  N   UNL     1       2.045  -5.709  -3.534  0.00  0.00    -0.360 N 
ATOM     29  H   UNL     1       2.656  -6.434  -3.741  0.00  0.00    +0.165 HD
ATOM     30  C   UNL     1       0.673  -5.818  -3.491  0.00  0.00    +0.047 A 
ATOM     31  C   UNL     1       0.166  -4.549  -3.158  0.00  0.00    +0.003 A 
ATOM     32  C   UNL     1      -1.212  -4.357  -3.042  0.00  0.00    +0.010 A 
ATOM     33  C   UNL     1      -2.062  -5.406  -3.254  0.00  0.00    +0.001 A 
ATOM     34  C   UNL     1      -1.567  -6.660  -3.583  0.00  0.00    +0.002 A 
ATOM     35  C   UNL     1      -0.211  -6.871  -3.702  0.00  0.00    +0.026 A 
ENDBRANCH  25  26
ENDBRANCH  24  25
ENDBRANCH   7  24
TORSDOF 7
