REMARK  Name = ZINC22023415
REMARK  4 active torsions:
REMARK  status: ('A' for Active; 'I' for Inactive)
REMARK    1  A    between atoms: C_6  and  S_7
REMARK    2  A    between atoms: S_7  and  N_10
REMARK    3  A    between atoms: N_13  and  S_14
REMARK    4  A    between atoms: S_14  and  C_17
REMARK                            x       y       z     vdW  Elec       q    Type
REMARK                         _______ _______ _______ _____ _____    ______ ____
ROOT
ATOM      1  C   UNL     1       4.734   1.745  -0.683  0.00  0.00    +0.030 A 
ATOM      2  C   UNL     1       3.974   0.610  -0.496  0.00  0.00    +0.027 A 
ATOM      3  C   UNL     1       2.604   0.713  -0.247  0.00  0.00    +0.055 A 
ATOM      4  C   UNL     1       2.023   1.970  -0.191  0.00  0.00    -0.021 A 
ATOM      5  C   UNL     1       2.789   3.104  -0.379  0.00  0.00    +0.034 A 
ATOM      6  C   UNL     1       4.145   2.994  -0.626  0.00  0.00    +0.105 A 
ATOM      7  C   UNL     1       0.547   1.805   0.089  0.00  0.00    +0.058 C 
ATOM      8  C   UNL     1       0.340   0.285   0.190  0.00  0.00    +0.136 C 
ATOM      9  N   UNL     1       1.666  -0.298  -0.032  0.00  0.00    -0.202 N 
ENDROOT
BRANCH   6  10
ATOM     10  S   UNL     1       5.120   4.442  -0.865  0.00  0.00    +0.056 S 
ATOM     11  O   UNL     1       4.432   5.506  -0.221  0.00  0.00    -0.153 OA
ATOM     12  O   UNL     1       6.457   4.090  -0.537  0.00  0.00    -0.153 OA
BRANCH  10  13
ATOM     13  N   UNL     1       5.104   4.781  -2.486  0.00  0.00    -0.204 NA
ATOM     14  H   UNL     1       5.704   5.683  -2.678  0.00  0.00    +0.144 HD
ATOM     15  H   UNL     1       4.068   4.953  -2.814  0.00  0.00    +0.144 HD
ENDBRANCH  10  13
ENDBRANCH   6  10
BRANCH   9  16
ATOM     16  S   UNL     1       2.002  -1.919  -0.026  0.00  0.00    +0.076 S 
ATOM     17  O   UNL     1       3.328  -2.058   0.466  0.00  0.00    -0.150 OA
ATOM     18  O   UNL     1       0.892  -2.563   0.584  0.00  0.00    -0.150 OA
BRANCH  16  19
ATOM     19  C   UNL     1       2.031  -2.451  -1.706  0.00  0.00    +0.124 A 
ATOM     20  C   UNL     1       3.226  -2.827  -2.291  0.00  0.00    +0.045 A 
ATOM     21  C   UNL     1       3.248  -3.244  -3.610  0.00  0.00    +0.020 A 
ATOM     22  C   UNL     1       2.076  -3.285  -4.343  0.00  0.00    +0.016 A 
ATOM     23  C   UNL     1       0.882  -2.909  -3.758  0.00  0.00    +0.018 A 
ATOM     24  C   UNL     1       0.858  -2.497  -2.438  0.00  0.00    +0.045 A 
ATOM     25 BR   UNL     1      -0.777  -1.990  -1.634  0.00  0.00    -0.048 Br
ATOM     26 BR   UNL     1       4.883  -3.759  -4.410  0.00  0.00    -0.050 Br
ENDBRANCH  16  19
ENDBRANCH   9  16
TORSDOF 4
