REMARK  Name = ZINC12753528
REMARK  7 active torsions:
REMARK  status: ('A' for Active; 'I' for Inactive)
REMARK    1  A    between atoms: C_1  and  C_2
REMARK    2  A    between atoms: C_2  and  C_3
REMARK    3  A    between atoms: C_3  and  C_5
REMARK    4  A    between atoms: C_3  and  C_6
REMARK    5  A    between atoms: C_11  and  N_12
REMARK    6  A    between atoms: C_14  and  C_19
REMARK    7  A    between atoms: N_21  and  N_22
REMARK                            x       y       z     vdW  Elec       q    Type
REMARK                         _______ _______ _______ _____ _____    ______ ____
ROOT
ATOM      1  C   UNL     1       1.005  -5.398   1.478  0.00  0.00    +0.235 C 
ATOM      2  O   UNL     1       0.198  -5.107   2.335  0.00  0.00    -0.274 OA
ATOM      3  N   UNL     1       1.265  -6.693   1.208  0.00  0.00    -0.223 N 
ATOM      4  H   UNL     1       1.910  -6.926   0.522  0.00  0.00    +0.174 HD
ENDROOT
BRANCH   3   5
ATOM      5  N   UNL     1       0.604  -7.703   1.920  0.00  0.00    -0.137 N 
ATOM      6  C   UNL     1       1.177  -8.448   2.888  0.00  0.00    +0.263 C 
ATOM      7  O   UNL     1       2.317  -8.375   3.292  0.00  0.00    -0.271 OA
ATOM      8  C   UNL     1       0.096  -9.392   3.362  0.00  0.00    +0.114 C 
ATOM      9  C   UNL     1       0.515 -10.838   3.123  0.00  0.00    +0.035 C 
ATOM     10  C   UNL     1      -0.606 -11.777   3.576  0.00  0.00    +0.003 C 
ATOM     11  C   UNL     1      -0.891 -11.550   5.062  0.00  0.00    +0.000 C 
ATOM     12  C   UNL     1      -1.331 -10.101   5.283  0.00  0.00    +0.003 C 
ATOM     13  C   UNL     1      -0.212  -9.156   4.837  0.00  0.00    +0.035 C 
ATOM     14  N   UNL     1      -1.067  -9.050   2.533  0.00  0.00    -0.284 N 
ATOM     15  C   UNL     1      -0.673  -8.051   1.720  0.00  0.00    +0.326 C 
ATOM     16  O   UNL     1      -1.397  -7.525   0.897  0.00  0.00    -0.251 OA
ATOM     17  H   UNL     1      -1.944  -9.462   2.564  0.00  0.00    +0.151 HD
ENDBRANCH   3   5
BRANCH   1  20
ATOM     18  N   UNL     1       1.237  -2.079  -0.021  0.00  0.00    -0.270 N 
ATOM     19  C   UNL     1       1.262  -2.913   1.187  0.00  0.00    +0.127 C 
ATOM     20  C   UNL     1       1.716  -4.312   0.712  0.00  0.00    +0.103 C 
ATOM     21  C   UNL     1       1.276  -4.300  -0.770  0.00  0.00    +0.110 C 
ATOM     22  C   UNL     1       1.233  -2.832  -1.134  0.00  0.00    +0.221 C 
ATOM     23  O   UNL     1       1.201  -2.398  -2.266  0.00  0.00    -0.275 OA
BRANCH  18  29
ATOM     24  C   UNL     1       0.002  -0.004   0.002  0.00  0.00    -0.023 A 
ATOM     25  C   UNL     1      -0.017   1.377   0.010  0.00  0.00    +0.006 A 
ATOM     26  C   UNL     1       1.170   2.086   0.002  0.00  0.00    +0.000 A 
ATOM     27  C   UNL     1       2.380   1.415  -0.013  0.00  0.00    +0.002 A 
ATOM     28  C   UNL     1       2.405   0.035  -0.021  0.00  0.00    +0.024 A 
ATOM     29  C   UNL     1       1.215  -0.680  -0.013  0.00  0.00    +0.040 A 
BRANCH  24  30
ATOM     30  C   UNL     1      -1.292  -0.776   0.010  0.00  0.00    +0.017 C 
ATOM     31  C   UNL     1      -2.111  -0.411  -1.230  0.00  0.00    +0.012 C 
BRANCH  30  33
ATOM     32  C   UNL     1      -3.342  -1.299   1.340  0.00  0.00    +0.004 C 
ATOM     33  C   UNL     1      -2.088  -0.425   1.268  0.00  0.00    +0.004 C 
ENDBRANCH  30  33
ENDBRANCH  24  30
ENDBRANCH  18  29
ENDBRANCH   1  20
TORSDOF 5
