REMARK  Name = ZINC12870317
REMARK  7 active torsions:
REMARK  status: ('A' for Active; 'I' for Inactive)
REMARK    1  A    between atoms: C_1  and  N_2
REMARK    2  A    between atoms: N_2  and  C_3
REMARK    3  A    between atoms: C_3  and  C_4
REMARK    4  A    between atoms: N_6  and  C_7
REMARK    5  A    between atoms: C_14  and  C_16
REMARK    6  A    between atoms: C_16  and  C_17
REMARK    7  A    between atoms: C_17  and  N_18
REMARK                            x       y       z     vdW  Elec       q    Type
REMARK                         _______ _______ _______ _____ _____    ______ ____
ROOT
ATOM      1  C   UNL     1       2.443   1.481  -0.003  0.00  0.00    +0.132 C 
ATOM      2  N   UNL     1       1.162   2.192   0.004  0.00  0.00    -0.296 N 
ATOM      3  C   UNL     1       0.006   1.499   0.004  0.00  0.00    +0.217 C 
ATOM      4  O   UNL     1      -1.054   2.087   0.004  0.00  0.00    -0.276 OA
ENDROOT
BRANCH   2   5
ATOM      5  C   UNL     1       1.137   3.657   0.012  0.00  0.00    +0.203 C 
BRANCH   5   6
ATOM      6  C   UNL     1       1.133   4.152   1.435  0.00  0.00    +0.235 C 
ATOM      7  O   UNL     1       1.148   3.359   2.353  0.00  0.00    -0.274 OA
ATOM      8  N   UNL     1       1.111   5.476   1.688  0.00  0.00    -0.283 N 
ATOM      9  H   UNL     1       1.164   6.110   0.956  0.00  0.00    +0.155 HD
BRANCH   8  10
ATOM     10  C   UNL     1       1.011   5.934   3.007  0.00  0.00    +0.047 A 
ATOM     11  C   UNL     1       1.622   5.231   4.036  0.00  0.00    +0.024 A 
ATOM     12  C   UNL     1       1.525   5.688   5.336  0.00  0.00    +0.002 A 
ATOM     13  C   UNL     1       0.814   6.841   5.614  0.00  0.00    +0.001 A 
ATOM     14  C   UNL     1       0.200   7.542   4.592  0.00  0.00    +0.017 A 
ATOM     15  C   UNL     1       0.297   7.092   3.289  0.00  0.00    +0.039 A 
ATOM     16 BR   UNL     1      -0.543   8.050   1.892  0.00  0.00    -0.048 Br
ENDBRANCH   8  10
ENDBRANCH   5   6
ENDBRANCH   2   5
BRANCH   3  17
ATOM     17  C   UNL     1       0.032  -0.008  -0.004  0.00  0.00    +0.117 C 
BRANCH  17  18
ATOM     18  C   UNL     1      -1.402  -0.542  -0.003  0.00  0.00    +0.138 C 
BRANCH  18  19
ATOM     19  N   UNL     1      -1.377  -2.007  -0.011  0.00  0.00    -0.274 N 
ATOM     20  C   UNL     1      -1.361  -2.837   1.109  0.00  0.00    +0.090 A 
ATOM     21  C   UNL     1      -1.361  -2.595   2.474  0.00  0.00    +0.030 A 
ATOM     22  C   UNL     1      -1.340  -3.654   3.360  0.00  0.00    +0.002 A 
ATOM     23  C   UNL     1      -1.320  -4.955   2.889  0.00  0.00    +0.004 A 
ATOM     24  C   UNL     1      -1.320  -5.205   1.531  0.00  0.00    +0.048 A 
ATOM     25  C   UNL     1      -1.340  -4.148   0.634  0.00  0.00    +0.157 A 
ATOM     26  O   UNL     1      -1.345  -4.085  -0.720  0.00  0.00    -0.407 OA
ATOM     27  C   UNL     1      -1.373  -2.799  -1.102  0.00  0.00    +0.421 A 
ATOM     28  O   UNL     1      -1.388  -2.408  -2.253  0.00  0.00    -0.223 OA
ENDBRANCH  18  19
ENDBRANCH  17  18
ENDBRANCH   3  17
TORSDOF 6
