REMARK  Name = ZINC63072935
REMARK  9 active torsions:
REMARK  status: ('A' for Active; 'I' for Inactive)
REMARK    1  A    between atoms: C_1  and  O_2
REMARK    2  A    between atoms: O_2  and  C_3
REMARK    3  A    between atoms: C_3  and  C_5
REMARK    4  A    between atoms: C_5  and  C_7
REMARK    5  A    between atoms: C_5  and  N_17
REMARK    6  A    between atoms: C_7  and  C_8
REMARK    7  A    between atoms: C_18  and  C_20
REMARK    8  A    between atoms: C_20  and  C_21
REMARK    9  A    between atoms: C_21  and  N_22
REMARK                            x       y       z     vdW  Elec       q    Type
REMARK                         _______ _______ _______ _____ _____    ______ ____
ROOT
ATOM      1  N   UNL     1       1.354  -2.503  -2.345  0.00  0.00    -0.302 N 
ATOM      2  C   UNL     1       0.675  -2.599  -3.505  0.00  0.00    +0.215 C 
ATOM      3  O   UNL     1      -0.513  -2.355  -3.535  0.00  0.00    -0.276 OA
ATOM      4  H   UNL     1       2.304  -2.698  -2.322  0.00  0.00    +0.150 HD
ENDROOT
BRANCH   1   5
ATOM      5  C   UNL     1       0.657  -2.104  -1.120  0.00  0.00    +0.186 C 
BRANCH   5   6
ATOM      6  C   UNL     1       0.598  -0.600  -1.043  0.00  0.00    +0.328 C 
ATOM      7  O   UNL     1       1.088   0.070  -1.921  0.00  0.00    -0.249 OA
BRANCH   6   9
ATOM      8  C   UNL     1      -0.017   1.425   0.010  0.00  0.00    +0.280 C 
ATOM      9  O   UNL     1       0.002  -0.004   0.002  0.00  0.00    -0.467 OA
ENDBRANCH   6   9
ENDBRANCH   5   6
BRANCH   5  10
ATOM     10  C   UNL     1       1.412  -2.647   0.096  0.00  0.00    +0.067 C 
BRANCH  10  11
ATOM     11  C   UNL     1       1.365  -4.153   0.083  0.00  0.00    -0.039 C 
ATOM     12  C   UNL     1       2.303  -4.992  -0.414  0.00  0.00    -0.001 A 
ATOM     13  C   UNL     1       3.596  -4.761  -1.068  0.00  0.00    +0.010 A 
ATOM     14  C   UNL     1       4.329  -5.826  -1.467  0.00  0.00    +0.001 A 
ATOM     15  C   UNL     1       3.884  -7.141  -1.272  0.00  0.00    +0.002 A 
ATOM     16  C   UNL     1       2.707  -7.433  -0.679  0.00  0.00    +0.026 A 
ATOM     17  C   UNL     1       1.856  -6.390  -0.220  0.00  0.00    +0.043 A 
ATOM     18  N   UNL     1       0.688  -6.415   0.375  0.00  0.00    -0.380 N 
ATOM     19  C   UNL     1       0.264  -5.034   0.630  0.00  0.00    +0.144 C 
ATOM     20  H   UNL     1       0.189  -7.213   0.610  0.00  0.00    +0.160 HD
ENDBRANCH  10  11
ENDBRANCH   5  10
ENDBRANCH   1   5
BRANCH   2  21
ATOM     21  C   UNL     1       1.391  -3.010  -4.766  0.00  0.00    +0.117 C 
BRANCH  21  22
ATOM     22  C   UNL     1       0.398  -3.041  -5.930  0.00  0.00    +0.136 C 
BRANCH  22  23
ATOM     23  N   UNL     1       1.095  -3.440  -7.155  0.00  0.00    -0.288 N 
ATOM     24  C   UNL     1       1.652  -2.492  -7.939  0.00  0.00    +0.262 A 
ATOM     25  O   UNL     1       1.582  -1.315  -7.640  0.00  0.00    -0.267 OA
ATOM     26  C   UNL     1       2.346  -2.921  -9.167  0.00  0.00    +0.063 A 
ATOM     27  C   UNL     1       2.947  -2.004 -10.027  0.00  0.00    +0.015 A 
ATOM     28  C   UNL     1       3.585  -2.456 -11.163  0.00  0.00    +0.001 A 
ATOM     29  C   UNL     1       3.631  -3.812 -11.450  0.00  0.00    +0.002 A 
ATOM     30  C   UNL     1       3.040  -4.731 -10.606  0.00  0.00    +0.026 A 
ATOM     31  C   UNL     1       2.394  -4.295  -9.459  0.00  0.00    +0.053 A 
ATOM     32  N   UNL     1       1.788  -5.184  -8.584  0.00  0.00    -0.335 N 
ATOM     33  H   UNL     1       1.813  -6.136  -8.772  0.00  0.00    +0.168 HD
ATOM     34  C   UNL     1       1.171  -4.742  -7.474  0.00  0.00    +0.161 A 
ATOM     35  S   UNL     1       0.447  -5.886  -6.428  0.00  0.00    -0.013 S 
ENDBRANCH  22  23
ENDBRANCH  21  22
ENDBRANCH   2  21
TORSDOF 8
