REMARK  Name = ZINC17082687
REMARK  4 active torsions:
REMARK  status: ('A' for Active; 'I' for Inactive)
REMARK    1  A    between atoms: C_1  and  O_2
REMARK    2  A    between atoms: O_2  and  C_3
REMARK    3  A    between atoms: C_8  and  C_9
REMARK    4  A    between atoms: C_14  and  C_24
REMARK                            x       y       z     vdW  Elec       q    Type
REMARK                         _______ _______ _______ _____ _____    ______ ____
ROOT
ATOM      1  C   UNL     1       0.052  -2.828   0.005  0.00  0.00    +0.035 C 
ATOM      2  C   UNL     1      -1.011  -3.750   0.598  0.00  0.00    +0.060 C 
ATOM      3  C   UNL     1      -1.623  -4.617  -0.490  0.00  0.00    +0.017 C 
ATOM      4  C   UNL     1      -0.924  -4.960  -1.581  0.00  0.00    +0.033 C 
ATOM      5  C   UNL     1      -1.390  -5.721  -2.801  0.00  0.00    +0.152 C 
ATOM      6  S   UNL     1      -3.177  -5.912  -2.918  0.00  0.00    -0.107 S 
ATOM      7  C   UNL     1      -3.614  -6.874  -1.509  0.00  0.00    +0.030 A 
ATOM      8  C   UNL     1      -4.205  -8.120  -1.640  0.00  0.00    +0.016 A 
ATOM      9  C   UNL     1      -4.501  -8.845  -0.498  0.00  0.00    +0.001 A 
ATOM     10  C   UNL     1      -4.204  -8.334   0.753  0.00  0.00    +0.002 A 
ATOM     11  C   UNL     1      -3.623  -7.083   0.881  0.00  0.00    +0.024 A 
ATOM     12  C   UNL     1      -3.347  -6.349  -0.261  0.00  0.00    +0.045 A 
ATOM     13  N   UNL     1      -2.871  -5.051  -0.222  0.00  0.00    -0.317 N 
ATOM     14  C   UNL     1       0.437  -4.566  -1.688  0.00  0.00    +0.163 C 
ATOM     15  O   UNL     1       1.077  -4.929  -2.656  0.00  0.00    -0.292 OA
ATOM     16  C   UNL     1       1.113  -3.719  -0.655  0.00  0.00    +0.088 C 
ATOM     17  H   UNL     1      -3.514  -4.370   0.028  0.00  0.00    +0.152 HD
ENDROOT
BRANCH   1  23
ATOM     18  C   UNL     1       0.626  -0.618   1.042  0.00  0.00    +0.124 A 
ATOM     19  C   UNL     1       1.202   0.139   2.051  0.00  0.00    +0.046 A 
ATOM     20  C   UNL     1       1.835  -0.488   3.107  0.00  0.00    +0.004 A 
ATOM     21  C   UNL     1       1.895  -1.869   3.158  0.00  0.00    +0.001 A 
ATOM     22  C   UNL     1       1.321  -2.625   2.153  0.00  0.00    +0.007 A 
ATOM     23  C   UNL     1       0.682  -2.003   1.097  0.00  0.00    -0.002 A 
BRANCH  18  25
ATOM     24  C   UNL     1      -0.017   1.425   0.010  0.00  0.00    +0.277 C 
ATOM     25  O   UNL     1       0.002  -0.004   0.002  0.00  0.00    -0.495 OA
ENDBRANCH  18  25
ENDBRANCH   1  23
BRANCH   5  26
ATOM     26  C   UNL     1      -0.766  -7.093  -2.776  0.00  0.00    +0.123 A 
ATOM     27  C   UNL     1       0.051  -7.602  -3.715  0.00  0.00    +0.046 A 
ATOM     28  C   UNL     1       0.398  -8.906  -3.292  0.00  0.00    +0.041 A 
ATOM     29  C   UNL     1      -0.228  -9.115  -2.120  0.00  0.00    +0.195 A 
ATOM     30  O   UNL     1      -0.927  -8.011  -1.810  0.00  0.00    -0.466 OA
ENDBRANCH   5  26
TORSDOF 3
