REMARK  Name = ZINC10395766
REMARK  5 active torsions:
REMARK  status: ('A' for Active; 'I' for Inactive)
REMARK    1  A    between atoms: C_3  and  N_25
REMARK    2  A    between atoms: C_5  and  C_6
REMARK    3  A    between atoms: C_6  and  O_8
REMARK    4  A    between atoms: O_8  and  C_9
REMARK    5  A    between atoms: C_9  and  C_10
REMARK                            x       y       z     vdW  Elec       q    Type
REMARK                         _______ _______ _______ _____ _____    ______ ____
ROOT
ATOM      1  C   UNL     1       1.113   2.306   4.949  0.00  0.00    +0.170 A 
ATOM      2  N   UNL     1       1.886   1.892   3.961  0.00  0.00    -0.214 NA
ATOM      3  C   UNL     1       1.396   1.533   2.785  0.00  0.00    +0.128 A 
ATOM      4  C   UNL     1      -0.010   1.594   2.575  0.00  0.00    +0.051 A 
ATOM      5  C   UNL     1      -0.771   1.244   1.367  0.00  0.00    -0.025 A 
ATOM      6  C   UNL     1      -2.105   1.407   1.426  0.00  0.00    -0.004 A 
ATOM      7  S   UNL     1      -2.433   1.997   3.067  0.00  0.00    -0.073 S 
ATOM      8  C   UNL     1      -0.768   2.045   3.672  0.00  0.00    +0.114 A 
ATOM      9  N   UNL     1      -0.197   2.383   4.812  0.00  0.00    -0.221 NA
ATOM     10  C   UNL     1      -3.107   1.150   0.343  0.00  0.00    +0.043 C 
ATOM     11  C   UNL     1      -2.857  -0.237  -0.263  0.00  0.00    +0.005 C 
ATOM     12  C   UNL     1      -1.872  -0.085  -1.417  0.00  0.00    +0.001 C 
ATOM     13  C   UNL     1      -0.888   1.045  -1.120  0.00  0.00    +0.005 C 
ATOM     14  C   UNL     1      -0.064   0.721   0.120  0.00  0.00    +0.037 C 
ATOM     15  N   UNL     1       2.239   1.105   1.775  0.00  0.00    -0.343 N 
ATOM     16  H   UNL     1       1.911   0.493   1.098  0.00  0.00    +0.144 HD
ATOM     17  H   UNL     1       3.157   1.416   1.745  0.00  0.00    +0.144 HD
ENDROOT
BRANCH   1  18
ATOM     18  C   UNL     1       1.741   2.699   6.261  0.00  0.00    +0.308 C 
BRANCH  18  19
ATOM     19  O   UNL     1       1.820   1.536   7.127  0.00  0.00    -0.453 OA
BRANCH  19  20
ATOM     20  C   UNL     1       2.362   1.718   8.349  0.00  0.00    +0.346 C 
ATOM     21  O   UNL     1       2.757   2.819   8.681  0.00  0.00    -0.244 OA
BRANCH  20  26
ATOM     22  C   UNL     1       2.993   0.563  10.562  0.00  0.00    +0.025 A 
ATOM     23  C   UNL     1       2.976  -0.642  11.217  0.00  0.00    +0.041 A 
ATOM     24  C   UNL     1       2.463  -1.732  10.588  0.00  0.00    +0.164 A 
ATOM     25  S   UNL     1       1.972  -1.107   9.047  0.00  0.00    -0.058 S 
ATOM     26  C   UNL     1       2.474   0.590   9.275  0.00  0.00    +0.098 A 
BRANCH  24  27
ATOM     27  N   UNL     1       2.345  -3.117  11.098  0.00  0.00    +0.063 N 
ATOM     28  O   UNL     1       2.738  -3.389  12.218  0.00  0.00    -0.126 OA
ATOM     29  O   UNL     1       1.854  -3.984  10.398  0.00  0.00    -0.126 OA
ENDBRANCH  24  27
ENDBRANCH  20  26
ENDBRANCH  19  20
ENDBRANCH  18  19
ENDBRANCH   1  18
TORSDOF 5
