REMARK  Name = ZINC05562992
REMARK  9 active torsions:
REMARK  status: ('A' for Active; 'I' for Inactive)
REMARK    1  A    between atoms: C_1  and  C_2
REMARK    2  A    between atoms: C_2  and  C_3
REMARK    3  A    between atoms: C_2  and  C_4
REMARK    4  A    between atoms: C_2  and  C_5
REMARK    5  A    between atoms: C_8  and  C_22
REMARK    6  A    between atoms: N_13  and  C_16
REMARK    7  A    between atoms: C_22  and  N_54
REMARK    8  A    between atoms: C_23  and  C_24
REMARK    9  A    between atoms: C_23  and  N_54
REMARK                            x       y       z     vdW  Elec       q    Type
REMARK                         _______ _______ _______ _____ _____    ______ ____
ROOT
ATOM      1  C   UNL     1       5.659   2.749  -0.564  0.00  0.00    +0.049 A 
ATOM      2  C   UNL     1       5.204   3.611   0.428  0.00  0.00    +0.041 A 
ATOM      3  C   UNL     1       5.782   4.719   1.092  0.00  0.00    +0.020 A 
ATOM      4  C   UNL     1       5.048   5.361   2.038  0.00  0.00    +0.003 A 
ATOM      5  C   UNL     1       3.742   4.912   2.332  0.00  0.00    +0.273 A 
ATOM      6  O   UNL     1       3.085   5.492   3.184  0.00  0.00    -0.266 OA
ATOM      7  N   UNL     1       3.212   3.865   1.696  0.00  0.00    -0.189 NA
ATOM      8  C   UNL     1       3.883   3.213   0.766  0.00  0.00    +0.165 A 
ATOM      9  N   UNL     1       3.583   2.123  -0.021  0.00  0.00    -0.236 N 
ATOM     10  N   UNL     1       4.692   1.859  -0.834  0.00  0.00    -0.294 N 
ATOM     11  H   UNL     1       4.752   1.146  -1.489  0.00  0.00    +0.187 HD
ENDROOT
BRANCH   9  12
ATOM     12  C   UNL     1       2.381   1.409  -0.013  0.00  0.00    +0.066 A 
ATOM     13  C   UNL     1       1.169   2.087   0.002  0.00  0.00    +0.028 A 
ATOM     14  C   UNL     1      -0.017   1.379   0.010  0.00  0.00    +0.002 A 
ATOM     15  C   UNL     1       0.002  -0.004   0.002  0.00  0.00    +0.000 A 
ATOM     16  C   UNL     1       1.207  -0.682  -0.013  0.00  0.00    +0.002 A 
ATOM     17  C   UNL     1       2.396   0.020  -0.021  0.00  0.00    +0.028 A 
ENDBRANCH   9  12
BRANCH   1  19
ATOM     18  C   UNL     1       7.121   1.686  -2.261  0.00  0.00    +0.017 C 
ATOM     19  C   UNL     1       7.012   2.807  -1.225  0.00  0.00    +0.005 C 
ATOM     20  C   UNL     1       7.185   4.160  -1.918  0.00  0.00    +0.017 C 
ATOM     21  C   UNL     1       8.104   2.632  -0.168  0.00  0.00    +0.017 C 
ENDBRANCH   1  19
BRANCH   4  22
ATOM     22  C   UNL     1       5.624   6.546   2.770  0.00  0.00    -0.041 C 
BRANCH  22  23
ATOM     23  N   UNL     1       5.008   7.781   2.251  0.00  0.00    +0.384 N 
ATOM     24  H   UNL     1       3.992   7.741   2.398  0.00  0.00    -0.085 HD
ATOM     25  H   UNL     1       5.205   7.862   1.246  0.00  0.00    -0.085 HD
BRANCH  23  26
ATOM     26  C   UNL     1       5.554   8.959   2.950  0.00  0.00    -0.046 C 
BRANCH  26  27
ATOM     27  C   UNL     1       4.907  10.204   2.400  0.00  0.00    -0.064 A 
ATOM     28  C   UNL     1       5.480  10.865   1.329  0.00  0.00    +0.003 A 
ATOM     29  C   UNL     1       4.885  12.003   0.820  0.00  0.00    +0.020 A 
ATOM     30  C   UNL     1       3.721  12.489   1.390  0.00  0.00    +0.041 A 
ATOM     31  C   UNL     1       3.151  11.830   2.465  0.00  0.00    +0.020 A 
ATOM     32  C   UNL     1       3.745  10.688   2.970  0.00  0.00    +0.003 A 
ATOM     33 CL   UNL     1       2.976  13.922   0.756  0.00  0.00    -0.084 Cl
ENDBRANCH  26  27
ENDBRANCH  23  26
ENDBRANCH  22  23
ENDBRANCH   4  22
TORSDOF 6
