REMARK  Name = ZINC03449190
REMARK  5 active torsions:
REMARK  status: ('A' for Active; 'I' for Inactive)
REMARK    1  A    between atoms: C_5  and  C_13
REMARK    2  A    between atoms: C_13  and  S_14
REMARK    3  A    between atoms: S_14  and  C_15
REMARK    4  A    between atoms: C_18  and  C_21
REMARK    5  A    between atoms: N_19  and  N_20
REMARK                            x       y       z     vdW  Elec       q    Type
REMARK                         _______ _______ _______ _____ _____    ______ ____
ROOT
ATOM      1  S   UNL     1       1.694   3.439   0.004  0.00  0.00    -0.078 S 
ENDROOT
BRANCH   1   2
ATOM      2  C   UNL     1       1.213   1.744  -0.000  0.00  0.00    +0.209 A 
ATOM      3  N   UNL     1      -0.015   1.281   0.009  0.00  0.00    -0.121 NA
ATOM      4  N   UNL     1       0.002  -0.004   0.002  0.00  0.00    -0.132 NA
ATOM      5  C   UNL     1       1.232  -0.435  -0.012  0.00  0.00    +0.154 A 
ATOM      6  N   UNL     1       2.047   0.663  -0.014  0.00  0.00    -0.228 N 
BRANCH   5   7
ATOM      7  C   UNL     1       1.673  -1.875  -0.024  0.00  0.00    +0.059 C 
ATOM      8  C   UNL     1       1.121  -2.567  -1.272  0.00  0.00    +0.011 C 
ATOM      9  C   UNL     1       1.569  -4.030  -1.285  0.00  0.00    +0.001 C 
ATOM     10  C   UNL     1       1.041  -4.736  -0.034  0.00  0.00    +0.000 C 
ATOM     11  C   UNL     1       1.594  -4.044   1.214  0.00  0.00    +0.001 C 
ATOM     12  C   UNL     1       1.145  -2.581   1.226  0.00  0.00    +0.011 C 
ENDBRANCH   5   7
BRANCH   6  13
ATOM     13  N   UNL     1       3.413   0.675  -0.027  0.00  0.00    -0.295 N 
ATOM     14  H   UNL     1       3.766   0.684  -0.973  0.00  0.00    +0.163 HD
ATOM     15  H   UNL     1       3.773   1.457   0.500  0.00  0.00    +0.163 HD
ENDBRANCH   6  13
ENDBRANCH   1   2
BRANCH   1  16
ATOM     16  C   UNL     1       0.066   4.228   0.024  0.00  0.00    +0.133 C 
BRANCH  16  21
ATOM     17  C   UNL     1       1.335   9.637   2.406  0.00  0.00    +0.020 A 
ATOM     18  C   UNL     1       1.174   8.284   2.371  0.00  0.00    +0.048 A 
ATOM     19  C   UNL     1       0.769   7.666   1.173  0.00  0.00    +0.141 A 
ATOM     20  N   UNL     1       0.612   6.344   1.137  0.00  0.00    -0.233 NA
ATOM     21  C   UNL     1       0.233   5.726   0.030  0.00  0.00    +0.059 A 
ATOM     22  C   UNL     1      -0.004   6.451  -1.121  0.00  0.00    +0.094 A 
ATOM     23  C   UNL     1       0.154   7.841  -1.090  0.00  0.00    +0.259 A 
ATOM     24  O   UNL     1      -0.051   8.511  -2.090  0.00  0.00    -0.267 OA
ATOM     25  N   UNL     1       0.543   8.429   0.062  0.00  0.00    -0.267 N 
ATOM     26  C   UNL     1       0.706   9.781   0.107  0.00  0.00    +0.111 A 
ATOM     27  C   UNL     1       1.095  10.392   1.249  0.00  0.00    +0.035 A 
ATOM     28 BR   UNL     1       1.315  12.270   1.286  0.00  0.00    -0.049 Br
ENDBRANCH  16  21
ENDBRANCH   1  16
TORSDOF 5
