REMARK  Name = ZINC40391368
REMARK  16 active torsions:
REMARK  status: ('A' for Active; 'I' for Inactive)
REMARK    1  A    between atoms: C_1  and  C_2
REMARK    2  A    between atoms: C_2  and  C_3
REMARK    3  A    between atoms: N_8  and  C_13
REMARK    4  A    between atoms: C_10  and  C_12
REMARK    5  A    between atoms: C_13  and  C_14
REMARK    6  A    between atoms: C_15  and  C_34
REMARK    7  A    between atoms: C_16  and  C_24
REMARK    8  A    between atoms: N_21  and  C_22
REMARK    9  A    between atoms: C_22  and  C_23
REMARK   10  A    between atoms: C_27  and  O_32
REMARK   11  A    between atoms: C_28  and  O_30
REMARK   12  A    between atoms: O_30  and  C_31
REMARK   13  A    between atoms: O_32  and  C_33
REMARK   14  A    between atoms: C_34  and  O_36
REMARK   15  A    between atoms: O_36  and  C_37
REMARK   16  A    between atoms: C_37  and  C_38
REMARK                            x       y       z     vdW  Elec       q    Type
REMARK                         _______ _______ _______ _____ _____    ______ ____
ROOT
ATOM      1  C   UNL     1      -0.620  -6.785  -2.072  0.00  0.00    +0.041 C 
ATOM      2  C   UNL     1      -1.804  -7.283  -1.655  0.00  0.00    +0.080 C 
ATOM      3  C   UNL     1      -1.778  -8.439  -0.676  0.00  0.00    +0.144 C 
ATOM      4  N   UNL     1      -0.453  -8.928  -0.257  0.00  0.00    -0.288 N 
ATOM      5  C   UNL     1       0.642  -8.326  -0.761  0.00  0.00    +0.307 C 
ATOM      6  O   UNL     1       1.740  -8.722  -0.422  0.00  0.00    -0.252 OA
ATOM      7  N   UNL     1       0.560  -7.310  -1.630  0.00  0.00    -0.258 N 
ATOM      8  H   UNL     1      -0.371  -9.665   0.368  0.00  0.00    +0.151 HD
ENDROOT
BRANCH   3   9
ATOM      9  C   UNL     1      -2.530  -8.018   0.560  0.00  0.00    -0.019 A 
ATOM     10  C   UNL     1      -3.796  -8.519   0.801  0.00  0.00    +0.009 A 
ATOM     11  C   UNL     1      -4.490  -8.136   1.934  0.00  0.00    +0.050 A 
ATOM     12  C   UNL     1      -3.916  -7.249   2.831  0.00  0.00    +0.162 A 
ATOM     13  C   UNL     1      -2.641  -6.746   2.589  0.00  0.00    +0.162 A 
ATOM     14  C   UNL     1      -1.949  -7.138   1.454  0.00  0.00    +0.055 A 
BRANCH  13  15
ATOM     15  O   UNL     1      -2.074  -5.876   3.467  0.00  0.00    -0.491 OA
ATOM     16  C   UNL     1      -0.810  -5.318   3.102  0.00  0.00    +0.277 C 
ENDBRANCH  13  15
BRANCH  12  17
ATOM     17  O   UNL     1      -4.598  -6.871   3.946  0.00  0.00    -0.491 OA
ATOM     18  C   UNL     1      -5.901  -7.427   4.129  0.00  0.00    +0.277 C 
ENDBRANCH  12  17
ENDBRANCH   3   9
BRANCH   7  19
ATOM     19  C   UNL     1       1.807  -6.724  -2.128  0.00  0.00    +0.111 C 
ATOM     20  C   UNL     1       2.243  -5.589  -1.201  0.00  0.00    +0.025 C 
ENDBRANCH   7  19
BRANCH   2  21
ATOM     21  C   UNL     1      -3.028  -6.744  -2.116  0.00  0.00    +0.339 C 
ATOM     22  O   UNL     1      -3.691  -6.029  -1.388  0.00  0.00    -0.245 OA
BRANCH  21  23
ATOM     23  O   UNL     1      -3.460  -7.021  -3.364  0.00  0.00    -0.462 OA
BRANCH  23  24
ATOM     24  C   UNL     1      -4.646  -6.356  -3.803  0.00  0.00    +0.229 C 
ATOM     25  C   UNL     1      -5.047  -6.885  -5.182  0.00  0.00    +0.048 C 
ENDBRANCH  23  24
ENDBRANCH  21  23
ENDBRANCH   2  21
BRANCH   1  26
ATOM     26  C   UNL     1      -0.602  -5.635  -3.046  0.00  0.00    +0.136 C 
BRANCH  26  32
ATOM     27  C   UNL     1      -0.261  -0.514  -1.283  0.00  0.00    +0.216 C 
ATOM     28  O   UNL     1       0.172   0.346  -2.020  0.00  0.00    -0.276 OA
ATOM     29  N   UNL     1       0.084  -1.803  -1.477  0.00  0.00    -0.296 N 
ATOM     30  C   UNL     1      -0.337  -2.847  -0.530  0.00  0.00    +0.123 C 
ATOM     31  C   UNL     1      -0.996  -3.983  -1.319  0.00  0.00    +0.104 C 
ATOM     32  N   UNL     1      -0.081  -4.435  -2.376  0.00  0.00    -0.294 NA
ATOM     33  C   UNL     1       0.183  -3.364  -3.346  0.00  0.00    +0.107 C 
ATOM     34  C   UNL     1       0.885  -2.204  -2.643  0.00  0.00    +0.087 C 
ATOM     35  C   UNL     1       1.014  -1.023  -3.608  0.00  0.00    +0.029 C 
BRANCH  27  37
ATOM     36  C   UNL     1      -1.411   1.370  -0.154  0.00  0.00    +0.013 C 
ATOM     37  C   UNL     1      -1.183  -0.143  -0.151  0.00  0.00    +0.092 C 
ENDBRANCH  27  37
ENDBRANCH  26  32
ENDBRANCH   1  26
TORSDOF 10
