REMARK  Name = ZINC12319796
REMARK  6 active torsions:
REMARK  status: ('A' for Active; 'I' for Inactive)
REMARK    1  A    between atoms: C_1  and  C_2
REMARK    2  A    between atoms: C_4  and  C_30
REMARK    3  A    between atoms: C_5  and  C_13
REMARK    4  A    between atoms: C_6  and  N_8
REMARK    5  A    between atoms: C_13  and  N_55
REMARK    6  A    between atoms: C_14  and  N_55
REMARK                            x       y       z     vdW  Elec       q    Type
REMARK                         _______ _______ _______ _____ _____    ______ ____
ROOT
ATOM      1  N   UNL     1       0.581   4.505  -1.610  0.00  0.00    +0.386 N 
ATOM      2  H   UNL     1      -0.072   5.118  -2.111  0.00  0.00    -0.085 HD
ATOM      3  H   UNL     1       0.527   3.556  -1.998  0.00  0.00    -0.085 HD
ENDROOT
BRANCH   1   4
ATOM      4  C   UNL     1       1.954   5.020  -1.773  0.00  0.00    -0.037 C 
ATOM      5  C   UNL     1       2.050   5.808  -3.085  0.00  0.00    -0.011 C 
ATOM      6  C   UNL     1       3.518   6.119  -3.389  0.00  0.00    +0.005 C 
ATOM      7  C   UNL     1       4.246   4.825  -3.774  0.00  0.00    +0.056 C 
ATOM      8  C   UNL     1       3.943   3.780  -2.731  0.00  0.00    +0.048 A 
ATOM      9  C   UNL     1       2.924   3.866  -1.839  0.00  0.00    -0.020 A 
ATOM     10  C   UNL     1       2.955   2.727  -1.037  0.00  0.00    +0.137 A 
ATOM     11  N   UNL     1       3.956   1.976  -1.429  0.00  0.00    -0.173 NA
ATOM     12  N   UNL     1       4.596   2.619  -2.499  0.00  0.00    -0.218 N 
ATOM     13  C   UNL     1       5.709   2.144  -3.199  0.00  0.00    +0.154 A 
ATOM     14  C   UNL     1       6.587   1.262  -2.581  0.00  0.00    +0.048 A 
ATOM     15  C   UNL     1       7.682   0.795  -3.287  0.00  0.00    +0.005 A 
ATOM     16  C   UNL     1       7.867   1.239  -4.589  0.00  0.00    +0.020 A 
ATOM     17  C   UNL     1       6.958   2.121  -5.139  0.00  0.00    +0.113 A 
ATOM     18  N   UNL     1       5.920   2.544  -4.443  0.00  0.00    -0.236 NA
ENDBRANCH   1   4
BRANCH   1  19
ATOM     19  C   UNL     1       0.214   4.468  -0.182  0.00  0.00    -0.044 C 
BRANCH  19  24
ATOM     20  C   UNL     1      -5.309   2.830   0.317  0.00  0.00    +0.044 C 
ATOM     21  C   UNL     1      -3.871   3.261   0.187  0.00  0.00    -0.048 A 
ATOM     22  C   UNL     1      -2.857   2.328   0.311  0.00  0.00    +0.007 A 
ATOM     23  C   UNL     1      -1.536   2.719   0.191  0.00  0.00    -0.047 A 
ATOM     24  C   UNL     1      -1.226   4.043  -0.052  0.00  0.00    -0.036 A 
ATOM     25  C   UNL     1      -2.241   4.981  -0.177  0.00  0.00    +0.067 A 
ATOM     26  C   UNL     1      -3.566   4.587  -0.051  0.00  0.00    +0.031 A 
ATOM     27  C   UNL     1      -0.435   1.700   0.327  0.00  0.00    +0.044 C 
BRANCH  25  28
ATOM     28  N   UNL     1      -1.929   6.325  -0.424  0.00  0.00    -0.240 N 
ATOM     29  C   UNL     1      -2.806   7.354  -0.451  0.00  0.00    +0.114 A 
ATOM     30  C   UNL     1      -2.108   8.483  -0.716  0.00  0.00    +0.041 A 
ATOM     31  C   UNL     1      -0.761   8.134  -0.855  0.00  0.00    +0.135 A 
ATOM     32  N   UNL     1      -0.652   6.841  -0.680  0.00  0.00    -0.175 NA
ENDBRANCH  25  28
ENDBRANCH  19  24
ENDBRANCH   1  19
TORSDOF 4
