REMARK  Name = ZINC14541814
REMARK  9 active torsions:
REMARK  status: ('A' for Active; 'I' for Inactive)
REMARK    1  A    between atoms: C_1  and  N_2
REMARK    2  A    between atoms: N_2  and  C_3
REMARK    3  A    between atoms: C_4  and  C_6
REMARK    4  A    between atoms: N_9  and  C_11
REMARK    5  A    between atoms: C_11  and  C_12
REMARK    6  A    between atoms: C_20  and  N_63
REMARK    7  A    between atoms: C_23  and  C_24
REMARK    8  A    between atoms: C_23  and  N_63
REMARK    9  A    between atoms: C_24  and  O_30
REMARK                            x       y       z     vdW  Elec       q    Type
REMARK                         _______ _______ _______ _____ _____    ______ ____
ROOT
ATOM      1  C   UNL     1      -2.297   1.738   3.501  0.00  0.00    +0.151 A 
ATOM      2  C   UNL     1      -1.428   2.834   3.635  0.00  0.00    +0.004 A 
ATOM      3  C   UNL     1      -0.697   2.871   2.493  0.00  0.00    +0.043 A 
ATOM      4  N   UNL     1      -1.108   1.849   1.725  0.00  0.00    -0.263 N 
ATOM      5  N   UNL     1      -2.047   1.198   2.321  0.00  0.00    -0.166 NA
ATOM      6  C   UNL     1       0.365   3.901   2.208  0.00  0.00    +0.054 C 
ATOM      7  C   UNL     1       0.173   5.074   3.179  0.00  0.00    -0.009 C 
ATOM      8  C   UNL     1       0.054   4.542   4.610  0.00  0.00    -0.067 C 
ATOM      9  C   UNL     1      -1.282   3.805   4.774  0.00  0.00    +0.023 C 
ENDROOT
BRANCH   1  13
ATOM     10  C   UNL     1      -5.172  -0.138   5.128  0.00  0.00    +0.132 C 
ATOM     11  N   UNL     1      -4.137   0.273   4.176  0.00  0.00    -0.302 N 
ATOM     12  C   UNL     1      -4.012  -0.414   2.889  0.00  0.00    +0.132 C 
ATOM     13  C   UNL     1      -3.299   1.282   4.486  0.00  0.00    +0.267 C 
ATOM     14  O   UNL     1      -3.369   1.818   5.575  0.00  0.00    -0.268 OA
ENDBRANCH   1  13
BRANCH   8  15
ATOM     15  N   UNL     1       0.103   5.670   5.560  0.00  0.00    +0.383 N 
ATOM     16  H   UNL     1      -0.380   5.405   6.426  0.00  0.00    -0.085 HD
ATOM     17  H   UNL     1      -0.364   6.484   5.143  0.00  0.00    -0.085 HD
BRANCH  15  18
ATOM     18  C   UNL     1       1.503   6.018   5.869  0.00  0.00    -0.047 C 
BRANCH  18  19
ATOM     19  C   UNL     1       1.522   7.189   6.854  0.00  0.00    +0.051 C 
ATOM     20  C   UNL     1       0.713   8.353   6.279  0.00  0.00    +0.033 C 
ATOM     21  C   UNL     1       0.732   9.523   7.264  0.00  0.00    +0.003 C 
ATOM     22  C   UNL     1       2.177   9.972   7.495  0.00  0.00    +0.000 C 
ATOM     23  C   UNL     1       2.986   8.808   8.070  0.00  0.00    +0.003 C 
ATOM     24  C   UNL     1       2.967   7.637   7.085  0.00  0.00    +0.033 C 
BRANCH  19  25
ATOM     25  O   UNL     1       0.948   6.776   8.096  0.00  0.00    -0.390 OA
ATOM     26  H   UNL     1       0.030   6.478   8.025  0.00  0.00    +0.210 HD
ENDBRANCH  19  25
ENDBRANCH  18  19
ENDBRANCH  15  18
ENDBRANCH   8  15
BRANCH   4  27
ATOM     27  C   UNL     1      -0.572   1.525   0.400  0.00  0.00    +0.179 C 
BRANCH  27  28
ATOM     28  C   UNL     1       0.585   0.571   0.546  0.00  0.00    -0.026 A 
ATOM     29  C   UNL     1       1.871   1.060   0.686  0.00  0.00    +0.005 A 
ATOM     30  C   UNL     1       2.933   0.185   0.813  0.00  0.00    +0.000 A 
ATOM     31  C   UNL     1       2.710  -1.179   0.801  0.00  0.00    +0.000 A 
ATOM     32  C   UNL     1       1.424  -1.668   0.661  0.00  0.00    +0.000 A 
ATOM     33  C   UNL     1       0.362  -0.793   0.534  0.00  0.00    +0.005 A 
ENDBRANCH  27  28
ENDBRANCH   4  27
TORSDOF 7
