REMARK  Name = ZINC06149205
REMARK  12 active torsions:
REMARK  status: ('A' for Active; 'I' for Inactive)
REMARK    1  A    between atoms: C_1  and  C_2
REMARK    2  A    between atoms: C_2  and  C_3
REMARK    3  A    between atoms: C_3  and  C_4
REMARK    4  A    between atoms: C_3  and  C_5
REMARK    5  A    between atoms: C_3  and  N_6
REMARK    6  A    between atoms: C_7  and  C_11
REMARK    7  A    between atoms: C_11  and  C_13
REMARK    8  A    between atoms: C_11  and  N_71
REMARK    9  A    between atoms: C_17  and  O_25
REMARK   10  A    between atoms: O_25  and  C_26
REMARK   11  A    between atoms: C_26  and  C_27
REMARK   12  A    between atoms: C_30  and  C_33
REMARK                            x       y       z     vdW  Elec       q    Type
REMARK                         _______ _______ _______ _____ _____    ______ ____
ROOT
ATOM      1  C   UNL     1       3.511   0.605  -0.330  0.00  0.00    +0.039 C 
ENDROOT
BRANCH   1   2
ATOM      2  C   UNL     1       3.861   1.039  -1.730  0.00  0.00    +0.011 A 
ATOM      3  C   UNL     1       4.454   0.165  -2.579  0.00  0.00    +0.017 A 
ATOM      4  C   UNL     1       4.777   0.616  -3.934  0.00  0.00    +0.002 A 
ATOM      5  C   UNL     1       5.385  -0.243  -4.856  0.00  0.00    +0.055 A 
ATOM      6  C   UNL     1       5.681   0.216  -6.123  0.00  0.00    +0.121 A 
ATOM      7  C   UNL     1       5.377   1.526  -6.485  0.00  0.00    +0.047 A 
ATOM      8  C   UNL     1       4.779   2.382  -5.587  0.00  0.00    +0.030 A 
ATOM      9  C   UNL     1       4.472   1.939  -4.304  0.00  0.00    +0.049 A 
ATOM     10  N   UNL     1       3.872   2.781  -3.390  0.00  0.00    -0.322 N 
ATOM     11  H   UNL     1       3.655   3.721  -3.653  0.00  0.00    +0.169 HD
ATOM     12  C   UNL     1       3.575   2.356  -2.149  0.00  0.00    +0.251 A 
ATOM     13  O   UNL     1       3.045   3.127  -1.368  0.00  0.00    -0.268 OA
BRANCH   6  14
ATOM     14  O   UNL     1       6.272  -0.615  -7.023  0.00  0.00    -0.492 OA
BRANCH  14  15
ATOM     15  C   UNL     1       6.551  -0.076  -8.317  0.00  0.00    +0.225 C 
ATOM     16  C   UNL     1       7.211  -1.150  -9.184  0.00  0.00    +0.048 C 
ENDBRANCH  14  15
ENDBRANCH   6  14
ENDBRANCH   1   2
BRANCH   1  22
ATOM     17  C   UNL     1       5.596   1.442   0.579  0.00  0.00    -0.072 C 
ATOM     18  C   UNL     1       6.180   2.624   1.357  0.00  0.00    +0.017 C 
ATOM     19  C   UNL     1       5.521   2.718   2.705  0.00  0.00    -0.048 C 
ATOM     20  C   UNL     1       4.393   2.106   2.988  0.00  0.00    -0.041 C 
ATOM     21  C   UNL     1       3.656   1.247   2.000  0.00  0.00    -0.049 C 
ATOM     22  N   UNL     1       4.124   1.547   0.634  0.00  0.00    +0.392 N 
ATOM     23  H   UNL     1       3.846   2.505   0.387  0.00  0.00    -0.080 HD
BRANCH  19  24
ATOM     24  C   UNL     1       6.168   3.533   3.754  0.00  0.00    -0.022 A 
ATOM     25  C   UNL     1       6.296   4.913   3.590  0.00  0.00    +0.011 A 
ATOM     26  C   UNL     1       6.895   5.670   4.575  0.00  0.00    +0.039 A 
ATOM     27  C   UNL     1       7.381   5.060   5.721  0.00  0.00    +0.123 A 
ATOM     28  C   UNL     1       7.262   3.690   5.887  0.00  0.00    +0.039 A 
ATOM     29  C   UNL     1       6.659   2.925   4.910  0.00  0.00    +0.011 A 
ATOM     30  F   UNL     1       7.972   5.805   6.681  0.00  0.00    -0.205 F 
ENDBRANCH  19  24
ENDBRANCH   1  22
BRANCH   1  32
ATOM     31  N   UNL     1       1.207  -0.443  -0.017  0.00  0.00    -0.225 N 
ATOM     32  C   UNL     1       2.014   0.625  -0.157  0.00  0.00    +0.143 A 
ATOM     33  N   UNL     1       1.245   1.685  -0.113  0.00  0.00    -0.115 NA
ATOM     34  N   UNL     1       0.029   1.290   0.045  0.00  0.00    -0.023 NA
ATOM     35  N   UNL     1       0.002   0.004   0.104  0.00  0.00    -0.043 NA
BRANCH  31  36
ATOM     36  C   UNL     1       1.618  -1.849  -0.004  0.00  0.00    +0.061 C 
ATOM     37  C   UNL     1       2.358  -2.176  -1.303  0.00  0.00    +0.036 C 
ATOM     38  C   UNL     1       2.544  -2.099   1.188  0.00  0.00    +0.036 C 
BRANCH  36  40
ATOM     39  C   UNL     1       0.811  -4.210   0.128  0.00  0.00    +0.006 C 
ATOM     40  C   UNL     1       0.381  -2.742   0.115  0.00  0.00    +0.026 C 
ENDBRANCH  36  40
ENDBRANCH  31  36
ENDBRANCH   1  32
TORSDOF 8
