REMARK  Name = ZINC39655814
REMARK  6 active torsions:
REMARK  status: ('A' for Active; 'I' for Inactive)
REMARK    1  A    between atoms: C_1  and  C_2
REMARK    2  A    between atoms: C_8  and  C_11
REMARK    3  A    between atoms: C_11  and  C_12
REMARK    4  A    between atoms: C_12  and  N_13
REMARK    5  A    between atoms: C_14  and  C_16
REMARK    6  A    between atoms: C_27  and  C_29
REMARK                            x       y       z     vdW  Elec       q    Type
REMARK                         _______ _______ _______ _____ _____    ______ ____
ROOT
ATOM      1  C   UNL     1       4.623  -0.116  -7.496  0.00  0.00    +0.100 C 
ATOM      2  C   UNL     1       4.726   0.718  -8.793  0.00  0.00    +0.121 C 
ATOM      3  N   UNL     1       5.636  -0.059  -9.667  0.00  0.00    -0.296 N 
ATOM      4  C   UNL     1       5.252  -1.472  -9.436  0.00  0.00    +0.115 C 
ATOM      5  C   UNL     1       4.968  -1.553  -7.922  0.00  0.00    -0.004 C 
ATOM      6  C   UNL     1       3.787  -2.481  -7.656  0.00  0.00    -0.010 C 
ATOM      7  C   UNL     1       4.175  -3.914  -8.033  0.00  0.00    -0.082 C 
ATOM      8  N   UNL     1       5.339  -4.332  -7.243  0.00  0.00    +0.379 N 
ATOM      9  C   UNL     1       6.496  -3.492  -7.575  0.00  0.00    -0.082 C 
ATOM     10  C   UNL     1       6.207  -2.042  -7.178  0.00  0.00    -0.010 C 
ATOM     11  C   UNL     1       6.596   0.412 -10.487  0.00  0.00    +0.252 C 
ATOM     12  O   UNL     1       7.265  -0.360 -11.146  0.00  0.00    -0.270 OA
ATOM     13  H   UNL     1       5.128  -4.239  -6.261  0.00  0.00    -0.086 HD
ATOM     14  H   UNL     1       5.555  -5.296  -7.449  0.00  0.00    -0.086 HD
ENDROOT
BRANCH  11  15
ATOM     15  C   UNL     1       6.835   1.865 -10.584  0.00  0.00    +0.107 A 
ATOM     16  C   UNL     1       7.757   2.484  -9.734  0.00  0.00    +0.138 A 
ATOM     17  C   UNL     1       7.976   3.846  -9.832  0.00  0.00    +0.039 A 
ATOM     18  C   UNL     1       7.285   4.595 -10.767  0.00  0.00    +0.006 A 
ATOM     19  C   UNL     1       6.371   3.991 -11.611  0.00  0.00    +0.039 A 
ATOM     20  C   UNL     1       6.145   2.629 -11.531  0.00  0.00    +0.138 A 
ATOM     21  F   UNL     1       5.256   2.040 -12.360  0.00  0.00    -0.205 F 
ATOM     22  F   UNL     1       8.432   1.754  -8.819  0.00  0.00    -0.205 F 
ENDBRANCH  11  15
BRANCH   1  24
ATOM     23  N   UNL     1       3.017  -0.185  -5.617  0.00  0.00    -0.315 N 
ATOM     24  C   UNL     1       3.223  -0.055  -6.942  0.00  0.00    +0.218 C 
ATOM     25  O   UNL     1       2.282   0.111  -7.689  0.00  0.00    -0.275 OA
ATOM     26  H   UNL     1       3.769  -0.318  -5.019  0.00  0.00    +0.149 HD
BRANCH  23  27
ATOM     27  C   UNL     1       1.655  -0.126  -5.078  0.00  0.00    +0.109 C 
BRANCH  27  28
ATOM     28  C   UNL     1       1.700  -0.299  -3.559  0.00  0.00    +0.056 C 
BRANCH  28  36
ATOM     29  C   UNL     1      -1.627  -4.959  -3.406  0.00  0.00    +0.044 C 
ATOM     30  C   UNL     1      -1.683  -3.501  -3.031  0.00  0.00    -0.050 A 
ATOM     31  C   UNL     1      -2.836  -2.980  -2.461  0.00  0.00    +0.005 A 
ATOM     32  C   UNL     1      -2.908  -1.649  -2.112  0.00  0.00    +0.026 A 
ATOM     33  C   UNL     1      -1.815  -0.817  -2.331  0.00  0.00    +0.047 A 
ATOM     34  N   UNL     1      -1.579   0.519  -2.098  0.00  0.00    -0.360 N 
ATOM     35  C   UNL     1      -0.315   0.846  -2.506  0.00  0.00    +0.087 A 
ATOM     36  C   UNL     1       0.300  -0.238  -3.005  0.00  0.00    -0.021 A 
ATOM     37  C   UNL     1      -0.648  -1.350  -2.909  0.00  0.00    +0.003 A 
ATOM     38  C   UNL     1      -0.596  -2.703  -3.251  0.00  0.00    +0.013 A 
ATOM     39  H   UNL     1      -2.215   1.137  -1.705  0.00  0.00    +0.165 HD
ENDBRANCH  28  36
ENDBRANCH  27  28
ENDBRANCH  23  27
ENDBRANCH   1  24
TORSDOF 5
