REMARK  Name = ZINC24009154
REMARK  8 active torsions:
REMARK  status: ('A' for Active; 'I' for Inactive)
REMARK    1  A    between atoms: C_1  and  C_2
REMARK    2  A    between atoms: C_2  and  N_3
REMARK    3  A    between atoms: N_3  and  C_4
REMARK    4  A    between atoms: C_5  and  N_20
REMARK    5  A    between atoms: N_6  and  C_13
REMARK    6  A    between atoms: C_13  and  C_14
REMARK    7  A    between atoms: C_21  and  C_23
REMARK    8  A    between atoms: C_23  and  C_24
REMARK                            x       y       z     vdW  Elec       q    Type
REMARK                         _______ _______ _______ _____ _____    ______ ____
ROOT
ATOM      1  C   UNL     1      -4.470   0.478   3.031  0.00  0.00    +0.140 A 
ATOM      2  C   UNL     1      -3.662   0.895   4.070  0.00  0.00    +0.128 A 
ATOM      3  N   UNL     1      -4.017   0.585   5.362  0.00  0.00    -0.276 N 
ATOM      4  C   UNL     1      -5.134  -0.123   5.610  0.00  0.00    +0.331 A 
ATOM      5  O   UNL     1      -5.428  -0.391   6.760  0.00  0.00    -0.246 OA
ATOM      6  N   UNL     1      -5.930  -0.542   4.611  0.00  0.00    -0.273 N 
ATOM      7  H   UNL     1      -6.838  -1.121   4.836  0.00  0.00    +0.173 HD
ATOM      8  C   UNL     1      -5.630  -0.262   3.327  0.00  0.00    +0.277 A 
ATOM      9  O   UNL     1      -6.359  -0.646   2.429  0.00  0.00    -0.266 OA
ENDROOT
BRANCH   1  10
ATOM     10  N   UNL     1      -4.135   0.783   1.695  0.00  0.00    -0.264 N 
ATOM     11  C   UNL     1      -4.090   2.069   1.288  0.00  0.00    +0.224 C 
ATOM     12  O   UNL     1      -4.418   2.958   2.046  0.00  0.00    -0.275 OA
BRANCH  10  14
ATOM     13  C   UNL     1      -2.347  -0.636   0.819  0.00  0.00    +0.025 C 
ATOM     14  C   UNL     1      -3.837  -0.295   0.750  0.00  0.00    +0.110 C 
ENDBRANCH  10  14
BRANCH  11  15
ATOM     15  C   UNL     1      -3.632   2.401  -0.109  0.00  0.00    +0.134 C 
BRANCH  15  16
ATOM     16  C   UNL     1      -3.674   3.894  -0.310  0.00  0.00    -0.002 A 
ATOM     17  C   UNL     1      -4.824   4.497  -0.787  0.00  0.00    +0.046 A 
ATOM     18  C   UNL     1      -4.860   5.867  -0.977  0.00  0.00    +0.020 A 
ATOM     19  C   UNL     1      -3.749   6.634  -0.683  0.00  0.00    +0.003 A 
ATOM     20  C   UNL     1      -2.601   6.034  -0.201  0.00  0.00    +0.020 A 
ATOM     21  C   UNL     1      -2.564   4.664  -0.012  0.00  0.00    +0.046 A 
ATOM     22 CL   UNL     1      -1.122   3.910   0.594  0.00  0.00    -0.083 Cl
ATOM     23 CL   UNL     1      -6.220   3.532  -1.156  0.00  0.00    -0.083 Cl
ENDBRANCH  15  16
ENDBRANCH  11  15
ENDBRANCH   1  10
BRANCH   2  24
ATOM     24  N   UNL     1      -2.519   1.615   3.816  0.00  0.00    -0.343 N 
ATOM     25  H   UNL     1      -1.881   1.944   4.649  0.00  0.00    +0.144 HD
ATOM     26  H   UNL     1      -2.244   1.862   2.780  0.00  0.00    +0.144 HD
ENDBRANCH   2  24
BRANCH   3  27
ATOM     27  C   UNL     1      -3.172   1.026   6.475  0.00  0.00    +0.163 C 
BRANCH  27  28
ATOM     28  C   UNL     1      -2.136  -0.029   6.767  0.00  0.00    -0.028 A 
ATOM     29  C   UNL     1      -2.408  -1.031   7.680  0.00  0.00    +0.005 A 
ATOM     30  C   UNL     1      -1.460  -2.001   7.945  0.00  0.00    +0.000 A 
ATOM     31  C   UNL     1      -0.236  -1.964   7.304  0.00  0.00    +0.000 A 
ATOM     32  C   UNL     1       0.038  -0.960   6.394  0.00  0.00    +0.000 A 
ATOM     33  C   UNL     1      -0.912   0.007   6.126  0.00  0.00    +0.005 A 
ENDBRANCH  27  28
ENDBRANCH   3  27
TORSDOF 7
