REMARK  Name = ZINC06589699
REMARK  7 active torsions:
REMARK  status: ('A' for Active; 'I' for Inactive)
REMARK    1  A    between atoms: C_1  and  C_2
REMARK    2  A    between atoms: C_2  and  N_3
REMARK    3  A    between atoms: C_4  and  N_26
REMARK    4  A    between atoms: C_5  and  C_12
REMARK    5  A    between atoms: N_17  and  C_18
REMARK    6  A    between atoms: C_20  and  C_25
REMARK    7  A    between atoms: C_23  and  C_24
REMARK                            x       y       z     vdW  Elec       q    Type
REMARK                         _______ _______ _______ _____ _____    ______ ____
ROOT
ATOM      1  C   UNL     1      -0.293  -2.072   5.655  0.00  0.00    +0.089 A 
ATOM      2  C   UNL     1       0.149  -2.286   6.930  0.00  0.00    +0.077 A 
ATOM      3  S   UNL     1      -1.002  -3.538   7.477  0.00  0.00    -0.060 S 
ATOM      4  C   UNL     1      -1.928  -3.655   6.013  0.00  0.00    +0.163 A 
ATOM      5  N   UNL     1      -1.337  -2.771   5.233  0.00  0.00    -0.224 NA
ATOM      6  N   UNL     1      -3.016  -4.467   5.737  0.00  0.00    -0.294 N 
ATOM      7  H   UNL     1      -3.503  -4.360   4.905  0.00  0.00    +0.154 HD
ENDROOT
BRANCH   1  10
ATOM      8  N   UNL     1       0.658  -0.057   2.642  0.00  0.00    -0.282 N 
ATOM      9  C   UNL     1       0.019  -0.980   3.433  0.00  0.00    +0.115 A 
ATOM     10  C   UNL     1       0.372  -1.083   4.772  0.00  0.00    +0.103 A 
ATOM     11  C   UNL     1       1.374  -0.223   5.278  0.00  0.00    +0.265 A 
ATOM     12  O   UNL     1       1.703  -0.286   6.449  0.00  0.00    -0.267 OA
ATOM     13  N   UNL     1       1.962   0.665   4.453  0.00  0.00    -0.274 N 
ATOM     14  H   UNL     1       2.672   1.274   4.808  0.00  0.00    +0.173 HD
ATOM     15  C   UNL     1       1.607   0.744   3.159  0.00  0.00    +0.331 A 
ATOM     16  O   UNL     1       2.155   1.557   2.440  0.00  0.00    -0.246 OA
BRANCH   9  17
ATOM     17  N   UNL     1      -0.952  -1.792   2.906  0.00  0.00    -0.344 N 
ATOM     18  H   UNL     1      -0.962  -1.981   1.955  0.00  0.00    +0.144 HD
ATOM     19  H   UNL     1      -1.628  -2.177   3.485  0.00  0.00    +0.144 HD
ENDBRANCH   9  17
BRANCH   8  21
ATOM     20  C   UNL     1       1.183  -0.876   0.399  0.00  0.00    +0.027 C 
ATOM     21  C   UNL     1       0.300   0.059   1.227  0.00  0.00    +0.125 C 
ENDBRANCH   8  21
ENDBRANCH   1  10
BRANCH   6  22
ATOM     22  C   UNL     1      -3.412  -5.442   6.657  0.00  0.00    +0.036 A 
ATOM     23  C   UNL     1      -2.459  -6.113   7.414  0.00  0.00    +0.027 A 
ATOM     24  C   UNL     1      -2.854  -7.076   8.322  0.00  0.00    -0.049 A 
ATOM     25  C   UNL     1      -4.196  -7.372   8.479  0.00  0.00    +0.004 A 
ATOM     26  C   UNL     1      -5.147  -6.705   7.728  0.00  0.00    +0.005 A 
ATOM     27  C   UNL     1      -4.760  -5.737   6.822  0.00  0.00    -0.029 A 
ATOM     28  C   UNL     1      -5.797  -5.007   6.009  0.00  0.00    +0.045 C 
ATOM     29  C   UNL     1      -1.821  -7.804   9.143  0.00  0.00    +0.044 C 
ENDBRANCH   6  22
TORSDOF 4
