REMARK  Name = ZINC56762984
REMARK  7 active torsions:
REMARK  status: ('A' for Active; 'I' for Inactive)
REMARK    1  A    between atoms: C_1  and  C_2
REMARK    2  A    between atoms: C_2  and  C_4
REMARK    3  A    between atoms: C_2  and  N_12
REMARK    4  A    between atoms: C_4  and  C_5
REMARK    5  A    between atoms: C_8  and  O_11
REMARK    6  A    between atoms: N_15  and  N_16
REMARK    7  A    between atoms: C_17  and  C_19
REMARK                            x       y       z     vdW  Elec       q    Type
REMARK                         _______ _______ _______ _____ _____    ______ ____
ROOT
ATOM      1  N   UNL     1      -1.372  -0.511   0.012  0.00  0.00    -0.295 N 
ATOM      2  C   UNL     1      -2.051  -0.643  -1.145  0.00  0.00    +0.316 C 
ATOM      3  O   UNL     1      -1.522  -0.341  -2.197  0.00  0.00    -0.251 OA
ATOM      4  N   UNL     1      -3.315  -1.109  -1.135  0.00  0.00    -0.218 N 
ATOM      5  H   UNL     1      -1.794  -0.752   0.852  0.00  0.00    +0.151 HD
ATOM      6  H   UNL     1      -3.804  -1.204  -1.968  0.00  0.00    +0.174 HD
ENDROOT
BRANCH   4   7
ATOM      7  N   UNL     1      -3.924  -1.457   0.078  0.00  0.00    -0.229 N 
ATOM      8  C   UNL     1      -5.189  -1.924   0.087  0.00  0.00    +0.267 C 
ATOM      9  O   UNL     1      -5.801  -2.043  -0.958  0.00  0.00    -0.268 OA
ATOM     10  H   UNL     1      -3.436  -1.363   0.910  0.00  0.00    +0.173 HD
BRANCH   8  11
ATOM     11  C   UNL     1      -5.826  -2.288   1.356  0.00  0.00    +0.076 A 
ATOM     12  C   UNL     1      -7.094  -2.784   1.583  0.00  0.00    +0.024 A 
ATOM     13  C   UNL     1      -7.444  -3.046   2.905  0.00  0.00    -0.036 A 
ATOM     14  C   UNL     1      -6.497  -2.783   3.845  0.00  0.00    -0.006 A 
ATOM     15  S   UNL     1      -5.164  -2.214   3.009  0.00  0.00    -0.088 S 
ATOM     16  C   UNL     1      -6.604  -2.961   5.331  0.00  0.00    +0.043 C 
ATOM     17  C   UNL     1      -7.588  -4.095   5.640  0.00  0.00    +0.005 C 
ATOM     18  C   UNL     1      -8.989  -3.504   5.757  0.00  0.00    +0.001 C 
ATOM     19  C   UNL     1      -9.404  -2.841   4.446  0.00  0.00    +0.005 C 
ATOM     20  C   UNL     1      -8.820  -3.599   3.258  0.00  0.00    +0.036 C 
ENDBRANCH   8  11
ENDBRANCH   4   7
BRANCH   1  22
ATOM     21  C   UNL     1      -0.019   1.526   0.010  0.00  0.00    +0.028 C 
ATOM     22  C   UNL     1       0.002  -0.004   0.002  0.00  0.00    +0.076 C 
BRANCH  22  23
ATOM     23  C   UNL     1       0.742  -0.511   1.242  0.00  0.00    +0.057 C 
BRANCH  23  24
ATOM     24  C   UNL     1       0.870  -2.011   1.172  0.00  0.00    -0.045 A 
ATOM     25  C   UNL     1      -0.118  -2.814   1.711  0.00  0.00    +0.007 A 
ATOM     26  C   UNL     1      -0.003  -4.189   1.649  0.00  0.00    +0.045 A 
ATOM     27  C   UNL     1       1.105  -4.764   1.044  0.00  0.00    +0.117 A 
ATOM     28  C   UNL     1       2.095  -3.957   0.504  0.00  0.00    +0.045 A 
ATOM     29  C   UNL     1       1.973  -2.582   0.564  0.00  0.00    +0.007 A 
BRANCH  27  30
ATOM     30  O   UNL     1       1.221  -6.117   0.983  0.00  0.00    -0.507 OA
ATOM     31  H   UNL     1       0.831  -6.509   0.189  0.00  0.00    +0.292 HD
ENDBRANCH  27  30
ENDBRANCH  23  24
ENDBRANCH  22  23
ENDBRANCH   1  22
TORSDOF 6
