REMARK  Name = ZINC19770876
REMARK  8 active torsions:
REMARK  status: ('A' for Active; 'I' for Inactive)
REMARK    1  A    between atoms: C_1  and  C_2
REMARK    2  A    between atoms: C_7  and  C_10
REMARK    3  A    between atoms: C_11  and  C_13
REMARK    4  A    between atoms: C_14  and  C_23
REMARK    5  A    between atoms: C_23  and  N_24
REMARK    6  A    between atoms: N_24  and  C_25
REMARK    7  A    between atoms: C_25  and  C_26
REMARK    8  A    between atoms: C_26  and  C_27
REMARK                            x       y       z     vdW  Elec       q    Type
REMARK                         _______ _______ _______ _____ _____    ______ ____
ROOT
ATOM      1  C   UNL     1      -1.721   5.895   0.024  0.00  0.00    +0.149 A 
ATOM      2  C   UNL     1      -2.266   4.643   0.039  0.00  0.00    +0.069 A 
ATOM      3  N   UNL     1      -1.233   3.756  -0.012  0.00  0.00    -0.300 N 
ATOM      4  C   UNL     1      -1.194   2.390  -0.029  0.00  0.00    +0.113 A 
ATOM      5  C   UNL     1      -0.014   1.737  -0.078  0.00  0.00    +0.058 A 
ATOM      6  C   UNL     1       1.194   2.455  -0.126  0.00  0.00    +0.025 A 
ATOM      7  C   UNL     1       1.170   3.814  -0.116  0.00  0.00    +0.048 A 
ATOM      8  C   UNL     1      -0.071   4.485  -0.058  0.00  0.00    +0.139 A 
ATOM      9  N   UNL     1      -0.383   5.770  -0.035  0.00  0.00    -0.223 NA
ATOM     10 CL   UNL     1       0.012   0.001  -0.091  0.00  0.00    -0.082 Cl
ENDROOT
BRANCH   1  19
ATOM     11  C   UNL     1       1.642   9.430   1.267  0.00  0.00    +0.039 C 
ATOM     12  C   UNL     1       0.131   9.207   1.358  0.00  0.00    +0.133 C 
ATOM     13  C   UNL     1      -0.338   8.377   0.163  0.00  0.00    +0.139 C 
ATOM     14  N   UNL     1      -1.809   8.336   0.168  0.00  0.00    -0.291 N 
ATOM     15  C   UNL     1      -2.536   9.609   0.294  0.00  0.00    +0.139 C 
ATOM     16  C   UNL     1      -1.960  10.378   1.488  0.00  0.00    +0.133 C 
ATOM     17  O   UNL     1      -0.540  10.469   1.349  0.00  0.00    -0.371 OA
ATOM     18  C   UNL     1      -2.561  11.785   1.528  0.00  0.00    +0.039 C 
ATOM     19  C   UNL     1      -2.471   7.166   0.066  0.00  0.00    +0.267 C 
ATOM     20  O   UNL     1      -3.685   7.158   0.008  0.00  0.00    -0.268 OA
ENDBRANCH   1  19
BRANCH   2  21
ATOM     21  C   UNL     1      -3.733   4.305   0.100  0.00  0.00    +0.137 C 
BRANCH  21  22
ATOM     22  N   UNL     1      -4.151   4.185   1.504  0.00  0.00    -0.310 NA
ATOM     23  H   UNL     1      -3.570   3.388   1.991  0.00  0.00    +0.122 HD
BRANCH  22  24
ATOM     24  C   UNL     1      -5.579   3.856   1.602  0.00  0.00    +0.089 C 
BRANCH  24  25
ATOM     25  C   UNL     1      -5.975   3.740   3.075  0.00  0.00    +0.089 C 
BRANCH  25  26
ATOM     26  C   UNL     1      -7.440   3.402   3.176  0.00  0.00    +0.106 A 
ATOM     27  C   UNL     1      -7.961   2.162   3.210  0.00  0.00    +0.044 A 
ATOM     28  C   UNL     1      -9.364   2.310   3.308  0.00  0.00    +0.041 A 
ATOM     29  C   UNL     1      -9.616   3.631   3.327  0.00  0.00    +0.195 A 
ATOM     30  O   UNL     1      -8.447   4.288   3.253  0.00  0.00    -0.468 OA
ENDBRANCH  25  26
ENDBRANCH  24  25
ENDBRANCH  22  24
ENDBRANCH  21  22
ENDBRANCH   2  21
TORSDOF 6
