REMARK  Name = ZINC05343701
REMARK  7 active torsions:
REMARK  status: ('A' for Active; 'I' for Inactive)
REMARK    1  A    between atoms: C_4  and  O_29
REMARK    2  A    between atoms: C_5  and  C_7
REMARK    3  A    between atoms: N_15  and  C_25
REMARK    4  A    between atoms: C_16  and  C_18
REMARK    5  A    between atoms: C_25  and  C_26
REMARK    6  A    between atoms: C_26  and  C_27
REMARK    7  A    between atoms: C_27  and  O_28
REMARK                            x       y       z     vdW  Elec       q    Type
REMARK                         _______ _______ _______ _____ _____    ______ ____
ROOT
ATOM      1  C   UNL     1       1.246  -2.162  -0.022  0.00  0.00    +0.075 A 
ATOM      2  C   UNL     1       1.726  -2.971   0.959  0.00  0.00    +0.035 A 
ATOM      3  C   UNL     1       1.537  -4.294   0.499  0.00  0.00    +0.153 A 
ATOM      4  N   UNL     1       0.974  -4.210  -0.690  0.00  0.00    -0.168 NA
ATOM      5  N   UNL     1       0.788  -2.980  -1.015  0.00  0.00    -0.276 N 
ATOM      6  H   UNL     1       0.385  -2.678  -1.843  0.00  0.00    +0.189 HD
ATOM      7  C   UNL     1       2.045  -5.210   1.536  0.00  0.00    +0.268 C 
ATOM      8  O   UNL     1       2.032  -6.423   1.456  0.00  0.00    -0.268 OA
ATOM      9  N   UNL     1       2.524  -4.515   2.583  0.00  0.00    -0.285 N 
ATOM     10  C   UNL     1       2.368  -3.081   2.315  0.00  0.00    +0.141 C 
ENDROOT
BRANCH  10  11
ATOM     11  C   UNL     1       3.716  -2.407   2.305  0.00  0.00    -0.021 A 
ATOM     12  C   UNL     1       4.806  -3.048   1.746  0.00  0.00    +0.006 A 
ATOM     13  C   UNL     1       6.042  -2.431   1.737  0.00  0.00    +0.002 A 
ATOM     14  C   UNL     1       6.190  -1.171   2.287  0.00  0.00    +0.020 A 
ATOM     15  C   UNL     1       5.100  -0.529   2.846  0.00  0.00    +0.041 A 
ATOM     16  C   UNL     1       3.861  -1.145   2.850  0.00  0.00    +0.025 A 
ATOM     17 CL   UNL     1       5.285   1.053   3.537  0.00  0.00    -0.084 Cl
ENDBRANCH  10  11
BRANCH   1  22
ATOM     18  C   UNL     1      -0.017   1.375   0.010  0.00  0.00    +0.001 A 
ATOM     19  C   UNL     1       1.169   2.089   0.002  0.00  0.00    +0.004 A 
ATOM     20  C   UNL     1       2.382   1.427  -0.013  0.00  0.00    +0.046 A 
ATOM     21  C   UNL     1       2.417   0.042  -0.021  0.00  0.00    +0.126 A 
ATOM     22  C   UNL     1       1.220  -0.683  -0.013  0.00  0.00    +0.042 A 
ATOM     23  C   UNL     1       0.002  -0.004   0.002  0.00  0.00    +0.013 A 
BRANCH  21  24
ATOM     24  O   UNL     1       3.609  -0.610  -0.036  0.00  0.00    -0.506 OA
ATOM     25  H   UNL     1       3.962  -0.804   0.843  0.00  0.00    +0.292 HD
ENDBRANCH  21  24
ENDBRANCH   1  22
BRANCH   9  26
ATOM     26  C   UNL     1       3.107  -5.096   3.795  0.00  0.00    +0.111 C 
BRANCH  26  27
ATOM     27  C   UNL     1       4.614  -5.272   3.602  0.00  0.00    +0.047 C 
BRANCH  27  28
ATOM     28  C   UNL     1       5.223  -5.879   4.868  0.00  0.00    +0.157 C 
BRANCH  28  29
ATOM     29  O   UNL     1       6.631  -6.043   4.688  0.00  0.00    -0.395 OA
ATOM     30  H   UNL     1       7.083  -6.424   5.453  0.00  0.00    +0.209 HD
ENDBRANCH  28  29
ENDBRANCH  27  28
ENDBRANCH  26  27
ENDBRANCH   9  26
TORSDOF 7
