REMARK  Name = ZINC41514088
REMARK  12 active torsions:
REMARK  status: ('A' for Active; 'I' for Inactive)
REMARK    1  A    between atoms: C_1  and  C_2
REMARK    2  A    between atoms: C_4  and  O_33
REMARK    3  A    between atoms: C_5  and  C_23
REMARK    4  A    between atoms: C_11  and  C_12
REMARK    5  A    between atoms: C_15  and  C_18
REMARK    6  A    between atoms: C_18  and  C_19
REMARK    7  A    between atoms: C_18  and  C_20
REMARK    8  A    between atoms: C_18  and  C_21
REMARK    9  A    between atoms: C_23  and  N_24
REMARK   10  A    between atoms: N_27  and  C_30
REMARK   11  A    between atoms: C_30  and  C_31
REMARK   12  A    between atoms: C_31  and  O_32
REMARK                            x       y       z     vdW  Elec       q    Type
REMARK                         _______ _______ _______ _____ _____    ______ ____
ROOT
ATOM      1  C   UNL     1      -0.082   1.509   0.016  0.00  0.00    +0.045 C 
ATOM      2  C   UNL     1      -0.072   0.002   0.006  0.00  0.00    -0.033 A 
ATOM      3  C   UNL     1      -0.095  -0.674  -1.181  0.00  0.00    +0.050 A 
ATOM      4  C   UNL     1      -0.086  -2.066  -1.193  0.00  0.00    +0.122 A 
ATOM      5  C   UNL     1      -0.053  -2.781  -0.006  0.00  0.00    +0.020 A 
ATOM      6  C   UNL     1      -0.030  -2.109   1.209  0.00  0.00    +0.145 A 
ATOM      7  C   UNL     1      -0.034  -0.704   1.208  0.00  0.00    +0.071 A 
ATOM      8  C   UNL     1       0.002  -0.288   2.622  0.00  0.00    +0.232 C 
ATOM      9  O   UNL     1       0.006   0.847   3.065  0.00  0.00    -0.283 OA
ATOM     10  C   UNL     1       0.031  -1.551   3.378  0.00  0.00    +0.176 C 
ATOM     11  C   UNL     1       0.069  -1.676   4.727  0.00  0.00    +0.058 C 
ATOM     12  O   UNL     1       0.003  -2.564   2.481  0.00  0.00    -0.451 OA
ENDROOT
BRANCH  11  13
ATOM     13  C   UNL     1      -0.017  -3.007   5.344  0.00  0.00    -0.021 A 
ATOM     14  C   UNL     1      -0.114  -3.133   6.735  0.00  0.00    +0.008 A 
ATOM     15  C   UNL     1      -0.196  -4.386   7.306  0.00  0.00    +0.005 A 
ATOM     16  C   UNL     1      -0.181  -5.516   6.508  0.00  0.00    -0.042 A 
ATOM     17  C   UNL     1      -0.085  -5.401   5.131  0.00  0.00    +0.005 A 
ATOM     18  C   UNL     1      -0.009  -4.155   4.544  0.00  0.00    +0.008 A 
BRANCH  16  19
ATOM     19  C   UNL     1      -0.270  -6.881   7.140  0.00  0.00    -0.013 C 
ATOM     20  C   UNL     1      -1.579  -6.996   7.924  0.00  0.00    +0.015 C 
ATOM     21  C   UNL     1      -0.234  -7.953   6.049  0.00  0.00    +0.015 C 
ATOM     22  C   UNL     1       0.913  -7.081   8.090  0.00  0.00    +0.015 C 
ENDBRANCH  16  19
ENDBRANCH  11  13
BRANCH   4  23
ATOM     23  O   UNL     1      -0.109  -2.729  -2.377  0.00  0.00    -0.506 OA
ATOM     24  H   UNL     1       0.767  -2.915  -2.741  0.00  0.00    +0.292 HD
ENDBRANCH   4  23
BRANCH   5  25
ATOM     25  C   UNL     1      -0.044  -4.288  -0.035  0.00  0.00    -0.035 C 
BRANCH  25  26
ATOM     26  N   UNL     1       1.343  -4.768  -0.076  0.00  0.00    +0.384 N 
ATOM     27  C   UNL     1       1.968  -4.351  -1.338  0.00  0.00    -0.063 C 
ATOM     28  C   UNL     1       3.419  -4.835  -1.373  0.00  0.00    +0.066 C 
ATOM     29  N   UNL     1       3.447  -6.300  -1.254  0.00  0.00    -0.304 NA
ATOM     30  C   UNL     1       2.802  -6.734  -0.007  0.00  0.00    +0.066 C 
ATOM     31  C   UNL     1       1.356  -6.234   0.017  0.00  0.00    -0.063 C 
ATOM     32  H   UNL     1       1.857  -4.378   0.699  0.00  0.00    -0.081 HD
BRANCH  29  33
ATOM     33  C   UNL     1       4.822  -6.809  -1.341  0.00  0.00    +0.112 C 
BRANCH  33  34
ATOM     34  C   UNL     1       4.794  -8.334  -1.464  0.00  0.00    +0.171 C 
BRANCH  34  35
ATOM     35  O   UNL     1       4.176  -8.701  -2.699  0.00  0.00    -0.394 OA
ATOM     36  H   UNL     1       4.123  -9.656  -2.845  0.00  0.00    +0.209 HD
ENDBRANCH  34  35
ENDBRANCH  33  34
ENDBRANCH  29  33
ENDBRANCH  25  26
ENDBRANCH   5  25
TORSDOF 8
