REMARK  Name = ZINC12794415
REMARK  13 active torsions:
REMARK  status: ('A' for Active; 'I' for Inactive)
REMARK    1  A    between atoms: C_1  and  C_2
REMARK    2  A    between atoms: C_2  and  C_3
REMARK    3  A    between atoms: C_6  and  C_9
REMARK    4  A    between atoms: C_9  and  C_11
REMARK    5  A    between atoms: C_9  and  N_63
REMARK    6  A    between atoms: C_11  and  N_12
REMARK    7  A    between atoms: C_13  and  C_15
REMARK    8  A    between atoms: C_15  and  C_17
REMARK    9  A    between atoms: C_15  and  N_24
REMARK   10  A    between atoms: C_17  and  C_18
REMARK   11  A    between atoms: C_25  and  C_27
REMARK   12  A    between atoms: C_32  and  N_63
REMARK   13  A    between atoms: C_33  and  N_63
REMARK                            x       y       z     vdW  Elec       q    Type
REMARK                         _______ _______ _______ _____ _____    ______ ____
ROOT
ATOM      1  N   UNL     1       0.292   0.158   0.664  0.00  0.00    -0.315 N 
ATOM      2  C   UNL     1       0.975  -0.624  -0.196  0.00  0.00    +0.234 C 
ATOM      3  O   UNL     1       1.220  -0.226  -1.315  0.00  0.00    -0.274 OA
ATOM      4  H   UNL     1       0.096  -0.161   1.558  0.00  0.00    +0.149 HD
ENDROOT
BRANCH   1   5
ATOM      5  C   UNL     1      -0.153   1.490   0.246  0.00  0.00    +0.093 C 
BRANCH   5   6
ATOM      6  C   UNL     1      -1.039   2.096   1.337  0.00  0.00    -0.021 C 
BRANCH   6  10
ATOM      7  C   UNL     1      -2.171   6.059   0.210  0.00  0.00    -0.048 A 
ATOM      8  C   UNL     1      -1.199   5.865   1.175  0.00  0.00    +0.004 A 
ATOM      9  C   UNL     1      -0.833   4.583   1.539  0.00  0.00    +0.002 A 
ATOM     10  C   UNL     1      -1.438   3.494   0.940  0.00  0.00    -0.059 A 
ATOM     11  C   UNL     1      -2.405   3.688  -0.029  0.00  0.00    +0.002 A 
ATOM     12  C   UNL     1      -2.775   4.970  -0.390  0.00  0.00    +0.004 A 
BRANCH   7  14
ATOM     13  C   UNL     1      -1.688   7.928  -1.346  0.00  0.00    +0.009 C 
ATOM     14  C   UNL     1      -2.569   7.456  -0.188  0.00  0.00    +0.032 C 
ENDBRANCH   7  14
ENDBRANCH   6  10
BRANCH   6  17
ATOM     15  C   UNL     1      -2.576   0.567   0.260  0.00  0.00    -0.096 C 
ATOM     16  C   UNL     1      -2.083   0.328   2.619  0.00  0.00    -0.096 C 
ATOM     17  N   UNL     1      -2.265   1.290   1.511  0.00  0.00    +0.382 N 
ATOM     18  H   UNL     1      -3.046   1.915   1.738  0.00  0.00    -0.082 HD
ENDBRANCH   6  17
ENDBRANCH   5   6
ENDBRANCH   1   5
BRANCH   2  19
ATOM     19  C   UNL     1       1.433  -1.994   0.234  0.00  0.00    +0.163 C 
BRANCH  19  20
ATOM     20  N   UNL     1       2.146  -2.639  -0.871  0.00  0.00    -0.299 N 
ATOM     21  C   UNL     1       3.058  -3.599  -0.616  0.00  0.00    +0.251 C 
ATOM     22  O   UNL     1       3.288  -3.929   0.532  0.00  0.00    -0.270 OA
ATOM     23  H   UNL     1       1.963  -2.376  -1.787  0.00  0.00    +0.150 HD
BRANCH  21  24
ATOM     24  C   UNL     1       3.772  -4.244  -1.722  0.00  0.00    +0.074 A 
ATOM     25  C   UNL     1       4.735  -5.239  -1.677  0.00  0.00    +0.021 A 
ATOM     26  C   UNL     1       5.246  -5.669  -2.876  0.00  0.00    +0.008 A 
ATOM     27  C   UNL     1       4.793  -5.110  -4.029  0.00  0.00    +0.046 A 
ATOM     28  S   UNL     1       3.622  -3.958  -3.477  0.00  0.00    -0.092 S 
ENDBRANCH  21  24
ENDBRANCH  19  20
BRANCH  19  29
ATOM     29  C   UNL     1       0.218  -2.841   0.619  0.00  0.00    +0.067 C 
BRANCH  29  30
ATOM     30  C   UNL     1       0.682  -4.167   1.164  0.00  0.00    -0.045 A 
ATOM     31  C   UNL     1       0.862  -5.240   0.311  0.00  0.00    +0.004 A 
ATOM     32  C   UNL     1       1.292  -6.455   0.811  0.00  0.00    +0.000 A 
ATOM     33  C   UNL     1       1.532  -6.600   2.164  0.00  0.00    +0.000 A 
ATOM     34  C   UNL     1       1.347  -5.528   3.018  0.00  0.00    +0.000 A 
ATOM     35  C   UNL     1       0.922  -4.312   2.518  0.00  0.00    +0.004 A 
ENDBRANCH  29  30
ENDBRANCH  19  29
ENDBRANCH   2  19
TORSDOF 10
