REMARK  Name = ZINC35544595
REMARK  6 active torsions:
REMARK  status: ('A' for Active; 'I' for Inactive)
REMARK    1  A    between atoms: C_1  and  C_2
REMARK    2  A    between atoms: C_2  and  O_3
REMARK    3  A    between atoms: O_3  and  C_4
REMARK    4  A    between atoms: C_4  and  C_6
REMARK    5  A    between atoms: C_13  and  C_15
REMARK    6  A    between atoms: C_20  and  N_37
REMARK                            x       y       z     vdW  Elec       q    Type
REMARK                         _______ _______ _______ _____ _____    ______ ____
ROOT
ATOM      1  C   UNL     1       3.784  -5.800   4.899  0.00  0.00    +0.101 C 
ATOM      2  C   UNL     1       4.276  -4.584   5.681  0.00  0.00    +0.051 C 
ATOM      3  C   UNL     1       5.317  -3.869   4.859  0.00  0.00    -0.023 A 
ATOM      4  C   UNL     1       5.482  -2.504   5.005  0.00  0.00    +0.038 A 
ATOM      5  C   UNL     1       6.427  -1.837   4.248  0.00  0.00    +0.127 A 
ATOM      6  C   UNL     1       7.207  -2.533   3.342  0.00  0.00    +0.034 A 
ATOM      7  C   UNL     1       7.048  -3.896   3.196  0.00  0.00    +0.025 A 
ATOM      8  C   UNL     1       6.101  -4.571   3.962  0.00  0.00    +0.033 A 
ATOM      9  N   UNL     1       5.981  -5.963   3.809  0.00  0.00    -0.323 N 
ATOM     10  C   UNL     1       4.968  -6.702   4.537  0.00  0.00    +0.103 C 
ATOM     11  C   UNL     1       4.438  -7.906   3.775  0.00  0.00    +0.129 C 
ATOM     12  N   UNL     1       5.436  -8.524   2.925  0.00  0.00    -0.313 N 
ATOM     13  C   UNL     1       6.379  -7.749   2.135  0.00  0.00    +0.125 C 
ATOM     14  C   UNL     1       6.959  -6.609   2.934  0.00  0.00    +0.124 C 
ATOM     15  C   UNL     1       5.494  -9.911   2.863  0.00  0.00    +0.099 A 
ATOM     16  C   UNL     1       6.521 -10.527   2.156  0.00  0.00    +0.042 A 
ATOM     17  C   UNL     1       6.567 -11.909   2.103  0.00  0.00    +0.005 A 
ATOM     18  C   UNL     1       5.580 -12.630   2.761  0.00  0.00    +0.018 A 
ATOM     19  C   UNL     1       4.590 -11.954   3.444  0.00  0.00    +0.084 A 
ATOM     20  N   UNL     1       4.574 -10.635   3.482  0.00  0.00    -0.350 N 
ATOM     21  H   UNL     1       3.869 -10.184   3.973  0.00  0.00    +0.166 HD
ENDROOT
BRANCH   1  28
ATOM     22  C   UNL     1      -0.257  -5.783   4.627  0.00  0.00    +0.115 C 
ATOM     23  C   UNL     1      -0.996  -5.105   3.471  0.00  0.00    +0.018 C 
ATOM     24  C   UNL     1      -0.123  -5.141   2.214  0.00  0.00    +0.020 C 
ATOM     25  C   UNL     1       1.175  -4.372   2.477  0.00  0.00    +0.108 C 
ATOM     26  N   UNL     1       1.819  -4.926   3.675  0.00  0.00    -0.300 N 
ATOM     27  C   UNL     1       1.040  -5.022   4.917  0.00  0.00    +0.122 C 
ATOM     28  C   UNL     1       3.102  -5.340   3.636  0.00  0.00    +0.221 C 
ATOM     29  O   UNL     1       3.707  -5.341   2.585  0.00  0.00    -0.275 OA
BRANCH  22  30
ATOM     30  C   UNL     1      -1.130  -5.776   5.856  0.00  0.00    +0.312 C 
ATOM     31  O   UNL     1      -0.754  -5.220   6.860  0.00  0.00    -0.250 OA
BRANCH  30  32
ATOM     32  O   UNL     1      -2.325  -6.386   5.833  0.00  0.00    -0.465 OA
BRANCH  32  34
ATOM     33  C   UNL     1      -4.420  -7.083   6.818  0.00  0.00    +0.048 C 
ATOM     34  C   UNL     1      -3.100  -6.339   7.033  0.00  0.00    +0.229 C 
ENDBRANCH  32  34
ENDBRANCH  30  32
ENDBRANCH  22  30
ENDBRANCH   1  28
BRANCH   5  35
ATOM     35  N   UNL     1       6.604  -0.376   4.406  0.00  0.00    +0.056 N 
ATOM     36  O   UNL     1       5.923   0.233   5.197  0.00  0.00    -0.126 OA
ATOM     37  O   UNL     1       7.430   0.208   3.744  0.00  0.00    -0.126 OA
ENDBRANCH   5  35
TORSDOF 5
