REMARK  Name = ZINC02503801
REMARK  9 active torsions:
REMARK  status: ('A' for Active; 'I' for Inactive)
REMARK    1  A    between atoms: C_1  and  C_2
REMARK    2  A    between atoms: C_4  and  N_19
REMARK    3  A    between atoms: C_6  and  S_9
REMARK    4  A    between atoms: C_7  and  O_8
REMARK    5  A    between atoms: S_9  and  C_12
REMARK    6  A    between atoms: N_19  and  S_20
REMARK    7  A    between atoms: S_20  and  C_23
REMARK    8  A    between atoms: C_26  and  O_29
REMARK    9  A    between atoms: O_29  and  C_30
REMARK                            x       y       z     vdW  Elec       q    Type
REMARK                         _______ _______ _______ _____ _____    ______ ____
ROOT
ATOM      1  C   UNL     1      -2.347   5.194   3.684  0.00  0.00    +0.047 C 
ATOM      2  C   UNL     1      -2.071   3.785   3.228  0.00  0.00    -0.005 A 
ATOM      3  C   UNL     1      -2.512   2.716   3.983  0.00  0.00    +0.031 A 
ATOM      4  C   UNL     1      -2.257   1.417   3.563  0.00  0.00    +0.050 A 
ATOM      5  C   UNL     1      -1.558   1.194   2.384  0.00  0.00    +0.055 A 
ATOM      6  C   UNL     1      -1.117   2.264   1.631  0.00  0.00    +0.137 A 
ATOM      7  C   UNL     1      -1.368   3.561   2.054  0.00  0.00    +0.145 A 
ENDROOT
BRANCH   6   8
ATOM      8  S   UNL     1      -0.230   1.982   0.135  0.00  0.00    +0.029 S 
ATOM      9  O   UNL     1      -0.154   0.573  -0.033  0.00  0.00    -0.164 OA
ATOM     10  O   UNL     1       0.927   2.806   0.187  0.00  0.00    -0.164 OA
BRANCH   8  11
ATOM     11  C   UNL     1      -1.224   2.594  -1.185  0.00  0.00    +0.094 A 
ATOM     12  C   UNL     1      -2.130   1.758  -1.811  0.00  0.00    +0.029 A 
ATOM     13  C   UNL     1      -2.915   2.239  -2.843  0.00  0.00    +0.022 A 
ATOM     14  C   UNL     1      -2.785   3.554  -3.255  0.00  0.00    +0.041 A 
ATOM     15  C   UNL     1      -1.875   4.387  -2.631  0.00  0.00    +0.022 A 
ATOM     16  C   UNL     1      -1.095   3.907  -1.596  0.00  0.00    +0.029 A 
ATOM     17 CL   UNL     1      -3.766   4.156  -4.555  0.00  0.00    -0.084 Cl
ENDBRANCH   8  11
ENDBRANCH   6   8
BRANCH   7  18
ATOM     18  O   UNL     1      -0.929   4.614   1.314  0.00  0.00    -0.505 OA
ATOM     19  H   UNL     1      -1.561   4.919   0.649  0.00  0.00    +0.292 HD
ENDBRANCH   7  18
BRANCH   4  20
ATOM     20  N   UNL     1      -2.704   0.334   4.327  0.00  0.00    -0.216 N 
ATOM     21  H   UNL     1      -3.645   0.096   4.328  0.00  0.00    +0.174 HD
BRANCH  20  22
ATOM     22  S   UNL     1      -1.629  -0.543   5.231  0.00  0.00    +0.072 S 
ATOM     23  O   UNL     1      -2.386  -1.524   5.926  0.00  0.00    -0.150 OA
ATOM     24  O   UNL     1      -0.553  -0.882   4.367  0.00  0.00    -0.150 OA
BRANCH  22  25
ATOM     25  C   UNL     1      -0.969   0.543   6.453  0.00  0.00    +0.109 A 
ATOM     26  C   UNL     1       0.141   1.314   6.164  0.00  0.00    +0.032 A 
ATOM     27  C   UNL     1       0.657   2.170   7.118  0.00  0.00    +0.047 A 
ATOM     28  C   UNL     1       0.066   2.246   8.371  0.00  0.00    +0.120 A 
ATOM     29  C   UNL     1      -1.044   1.467   8.661  0.00  0.00    +0.047 A 
ATOM     30  C   UNL     1      -1.559   0.617   7.701  0.00  0.00    +0.032 A 
BRANCH  28  31
ATOM     31  O   UNL     1       0.575   3.084   9.313  0.00  0.00    -0.495 OA
ATOM     32  C   UNL     1       1.719   3.856   8.945  0.00  0.00    +0.277 C 
ENDBRANCH  28  31
ENDBRANCH  22  25
ENDBRANCH  20  22
ENDBRANCH   4  20
TORSDOF 7
