REMARK  Name = ZINC37776732
REMARK  9 active torsions:
REMARK  status: ('A' for Active; 'I' for Inactive)
REMARK    1  A    between atoms: C_1  and  C_2
REMARK    2  A    between atoms: C_6  and  O_19
REMARK    3  A    between atoms: C_7  and  N_8
REMARK    4  A    between atoms: N_8  and  C_9
REMARK    5  A    between atoms: C_9  and  C_10
REMARK    6  A    between atoms: C_14  and  O_17
REMARK    7  A    between atoms: C_15  and  O_16
REMARK    8  A    between atoms: O_17  and  C_18
REMARK    9  A    between atoms: O_19  and  C_20
REMARK                            x       y       z     vdW  Elec       q    Type
REMARK                         _______ _______ _______ _____ _____    ______ ____
ROOT
ATOM      1  N   UNL     1       0.025  -0.012   2.416  0.00  0.00    -0.337 N 
ATOM      2  H   UNL     1       0.230   0.936   2.435  0.00  0.00    +0.147 HD
ENDROOT
BRANCH   1   9
ATOM      3  C   UNL     1      -0.018   1.503   0.010  0.00  0.00    +0.046 C 
ATOM      4  C   UNL     1       0.002  -0.004   0.002  0.00  0.00    -0.025 A 
ATOM      5  C   UNL     1       0.006  -0.689  -1.199  0.00  0.00    +0.020 A 
ATOM      6  C   UNL     1       0.024  -2.072  -1.210  0.00  0.00    +0.022 A 
ATOM      7  C   UNL     1       0.039  -2.776  -0.019  0.00  0.00    +0.062 A 
ATOM      8  C   UNL     1       0.035  -2.097   1.187  0.00  0.00    +0.142 A 
ATOM      9  C   UNL     1       0.023  -0.704   1.199  0.00  0.00    +0.073 A 
ATOM     10 BR   UNL     1       0.029  -3.002  -2.857  0.00  0.00    -0.050 Br
BRANCH   8  11
ATOM     11  O   UNL     1       0.049  -2.789   2.359  0.00  0.00    -0.493 OA
ATOM     12  C   UNL     1       0.067  -4.215   2.270  0.00  0.00    +0.277 C 
ENDBRANCH   8  11
ENDBRANCH   1   9
BRANCH   1  13
ATOM     13  C   UNL     1      -0.282  -0.720   3.662  0.00  0.00    +0.140 C 
BRANCH  13  14
ATOM     14  C   UNL     1      -0.213   0.244   4.818  0.00  0.00    +0.015 A 
ATOM     15  C   UNL     1       0.916   0.287   5.616  0.00  0.00    +0.009 A 
ATOM     16  C   UNL     1       0.982   1.170   6.677  0.00  0.00    +0.004 A 
ATOM     17  C   UNL     1      -0.079   2.014   6.946  0.00  0.00    +0.049 A 
ATOM     18  C   UNL     1      -1.213   1.976   6.150  0.00  0.00    +0.162 A 
ATOM     19  C   UNL     1      -1.277   1.091   5.078  0.00  0.00    +0.163 A 
BRANCH  19  20
ATOM     20  O   UNL     1      -2.386   1.054   4.290  0.00  0.00    -0.503 OA
ATOM     21  H   UNL     1      -3.062   0.433   4.593  0.00  0.00    +0.292 HD
ENDBRANCH  19  20
BRANCH  18  22
ATOM     22  O   UNL     1      -2.258   2.806   6.413  0.00  0.00    -0.491 OA
ATOM     23  C   UNL     1      -2.119   3.692   7.526  0.00  0.00    +0.277 C 
ENDBRANCH  18  22
ENDBRANCH  13  14
ENDBRANCH   1  13
TORSDOF 6
