REMARK  Name = ZINC07217332
REMARK  11 active torsions:
REMARK  status: ('A' for Active; 'I' for Inactive)
REMARK    1  A    between atoms: C_1  and  C_2
REMARK    2  A    between atoms: C_2  and  C_3
REMARK    3  A    between atoms: C_3  and  C_4
REMARK    4  A    between atoms: C_4  and  N_5
REMARK    5  A    between atoms: C_6  and  N_32
REMARK    6  A    between atoms: C_7  and  N_14
REMARK    7  A    between atoms: N_14  and  C_15
REMARK    8  A    between atoms: C_15  and  C_16
REMARK    9  A    between atoms: C_17  and  C_19
REMARK   10  A    between atoms: C_19  and  N_20
REMARK   11  A    between atoms: C_29  and  C_31
REMARK                            x       y       z     vdW  Elec       q    Type
REMARK                         _______ _______ _______ _____ _____    ______ ____
ROOT
ATOM      1  N   UNL     1      -6.074   3.179  -1.162  0.00  0.00    -0.263 N 
ATOM      2  C   UNL     1      -4.732   3.086  -1.055  0.00  0.00    +0.237 C 
ATOM      3  O   UNL     1      -4.024   3.935  -1.555  0.00  0.00    -0.274 OA
ENDROOT
BRANCH   1   6
ATOM      4  N   UNL     1      -7.099   6.500  -2.353  0.00  0.00    -0.280 N 
ATOM      5  C   UNL     1      -6.532   5.524  -1.567  0.00  0.00    +0.127 A 
ATOM      6  C   UNL     1      -6.651   4.202  -1.943  0.00  0.00    +0.140 A 
ATOM      7  C   UNL     1      -7.363   3.891  -3.117  0.00  0.00    +0.277 A 
ATOM      8  O   UNL     1      -7.488   2.731  -3.470  0.00  0.00    -0.266 OA
ATOM      9  N   UNL     1      -7.905   4.885  -3.848  0.00  0.00    -0.273 N 
ATOM     10  H   UNL     1      -8.412   4.665  -4.682  0.00  0.00    +0.173 HD
ATOM     11  C   UNL     1      -7.774   6.168  -3.469  0.00  0.00    +0.331 A 
ATOM     12  O   UNL     1      -8.273   7.045  -4.147  0.00  0.00    -0.246 OA
BRANCH   5  13
ATOM     13  N   UNL     1      -5.848   5.862  -0.423  0.00  0.00    -0.343 N 
ATOM     14  H   UNL     1      -5.391   5.177   0.089  0.00  0.00    +0.144 HD
ATOM     15  H   UNL     1      -5.823   6.786  -0.129  0.00  0.00    +0.144 HD
ENDBRANCH   5  13
BRANCH   4  16
ATOM     16  C   UNL     1      -6.974   7.908  -1.969  0.00  0.00    +0.128 C 
BRANCH  16  17
ATOM     17  C   UNL     1      -8.149   8.298  -1.069  0.00  0.00    +0.021 C 
BRANCH  17  19
ATOM     18  C   UNL     1      -9.193  10.158   0.232  0.00  0.00    +0.004 C 
ATOM     19  C   UNL     1      -8.018   9.769  -0.668  0.00  0.00    -0.002 C 
ENDBRANCH  17  19
ENDBRANCH  16  17
ENDBRANCH   4  16
ENDBRANCH   1   6
BRANCH   1  20
ATOM     20  C   UNL     1      -6.933   2.216  -0.467  0.00  0.00    +0.110 C 
ATOM     21  C   UNL     1      -7.357   2.794   0.885  0.00  0.00    +0.025 C 
ENDBRANCH   1  20
BRANCH   2  22
ATOM     22  C   UNL     1      -4.113   1.929  -0.313  0.00  0.00    +0.201 C 
BRANCH  22  23
ATOM     23  N   UNL     1      -2.660   2.125  -0.227  0.00  0.00    -0.318 N 
ATOM     24  C   UNL     1      -2.354   3.329   0.405  0.00  0.00    +0.034 A 
ATOM     25  C   UNL     1      -3.198   3.753   1.433  0.00  0.00    +0.023 A 
ATOM     26  C   UNL     1      -2.945   4.931   2.103  0.00  0.00    +0.002 A 
ATOM     27  C   UNL     1      -1.849   5.700   1.756  0.00  0.00    +0.000 A 
ATOM     28  C   UNL     1      -1.012   5.287   0.739  0.00  0.00    +0.005 A 
ATOM     29  C   UNL     1      -1.261   4.104   0.060  0.00  0.00    -0.026 A 
ATOM     30  C   UNL     1      -0.316   3.706  -1.045  0.00  0.00    +0.039 C 
ATOM     31  C   UNL     1      -0.527   2.231  -1.396  0.00  0.00    +0.027 C 
ATOM     32  C   UNL     1      -2.034   1.991  -1.544  0.00  0.00    +0.071 C 
ATOM     33  C   UNL     1      -2.278   0.583  -2.088  0.00  0.00    +0.028 C 
ENDBRANCH  22  23
ENDBRANCH   2  22
TORSDOF 8
