REMARK  Name = ZINC12881498
REMARK  7 active torsions:
REMARK  status: ('A' for Active; 'I' for Inactive)
REMARK    1  A    between atoms: C_1  and  C_2
REMARK    2  A    between atoms: C_13  and  C_15
REMARK    3  A    between atoms: C_15  and  C_16
REMARK    4  A    between atoms: C_19  and  O_22
REMARK    5  A    between atoms: N_25  and  C_28
REMARK    6  A    between atoms: C_28  and  C_29
REMARK    7  A    between atoms: C_29  and  C_30
REMARK                            x       y       z     vdW  Elec       q    Type
REMARK                         _______ _______ _______ _____ _____    ______ ____
ROOT
ATOM      1  C   UNL     1      -4.439  -1.123   4.636  0.00  0.00    +0.044 C 
ATOM      2  C   UNL     1      -5.498  -0.118   4.262  0.00  0.00    -0.050 A 
ATOM      3  C   UNL     1      -6.836  -0.427   4.428  0.00  0.00    +0.005 A 
ATOM      4  C   UNL     1      -7.809   0.490   4.089  0.00  0.00    +0.024 A 
ATOM      5  C   UNL     1      -7.451   1.736   3.578  0.00  0.00    +0.036 A 
ATOM      6  C   UNL     1      -6.102   2.035   3.414  0.00  0.00    -0.027 A 
ATOM      7  C   UNL     1      -5.134   1.117   3.754  0.00  0.00    +0.008 A 
ATOM      8  C   UNL     1      -6.055   3.427   2.853  0.00  0.00    +0.050 C 
ATOM      9  C   UNL     1      -5.344   3.463   1.495  0.00  0.00    +0.088 C 
ATOM     10  C   UNL     1      -4.584   4.819   1.487  0.00  0.00    +0.073 C 
ATOM     11  C   UNL     1      -4.926   5.473   2.843  0.00  0.00    -0.053 C 
ATOM     12  C   UNL     1      -3.131   4.406   1.489  0.00  0.00    +0.224 C 
ATOM     13  O   UNL     1      -2.186   5.165   1.499  0.00  0.00    -0.275 OA
ATOM     14  N   UNL     1      -3.049   3.070   1.476  0.00  0.00    -0.241 N 
ATOM     15  C   UNL     1      -4.229   2.441   1.478  0.00  0.00    +0.225 C 
ATOM     16  O   UNL     1      -4.382   1.239   1.468  0.00  0.00    -0.275 OA
ATOM     17  C   UNL     1      -7.494   3.848   2.730  0.00  0.00    +0.211 C 
ATOM     18  O   UNL     1      -7.905   4.912   2.316  0.00  0.00    -0.277 OA
ATOM     19  N   UNL     1      -8.238   2.815   3.169  0.00  0.00    -0.286 N 
ATOM     20  H   UNL     1      -9.208   2.819   3.198  0.00  0.00    +0.155 HD
ATOM     21  N   UNL     1      -5.307   4.344   3.695  0.00  0.00    +0.394 N 
ATOM     22  H   UNL     1      -4.469   3.882   4.066  0.00  0.00    -0.083 HD
ATOM     23  H   UNL     1      -5.893   4.669   4.473  0.00  0.00    -0.083 HD
ENDROOT
BRANCH  11  24
ATOM     24  C   UNL     1      -3.708   6.210   3.401  0.00  0.00    +0.020 C 
BRANCH  24  25
ATOM     25  C   UNL     1      -4.096   6.942   4.660  0.00  0.00    -0.049 A 
ATOM     26  C   UNL     1      -4.555   8.244   4.588  0.00  0.00    +0.007 A 
ATOM     27  C   UNL     1      -4.917   8.915   5.740  0.00  0.00    +0.045 A 
ATOM     28  C   UNL     1      -4.808   8.285   6.971  0.00  0.00    +0.117 A 
ATOM     29  C   UNL     1      -4.342   6.980   7.041  0.00  0.00    +0.045 A 
ATOM     30  C   UNL     1      -3.987   6.312   5.886  0.00  0.00    +0.007 A 
BRANCH  28  31
ATOM     31  O   UNL     1      -5.158   8.945   8.106  0.00  0.00    -0.507 OA
ATOM     32  H   UNL     1      -4.432   9.436   8.515  0.00  0.00    +0.292 HD
ENDBRANCH  28  31
ENDBRANCH  24  25
ENDBRANCH  11  24
BRANCH  14  33
ATOM     33  C   UNL     1      -1.770   2.355   1.466  0.00  0.00    +0.121 C 
BRANCH  33  34
ATOM     34  C   UNL     1      -1.332   2.114   0.020  0.00  0.00    +0.054 C 
BRANCH  34  35
ATOM     35  C   UNL     1      -0.017   1.378   0.010  0.00  0.00    -0.046 A 
ATOM     36  C   UNL     1       1.171   2.086   0.002  0.00  0.00    +0.004 A 
ATOM     37  C   UNL     1       2.377   1.411  -0.015  0.00  0.00    +0.000 A 
ATOM     38  C   UNL     1       2.396   0.029  -0.022  0.00  0.00    +0.000 A 
ATOM     39  C   UNL     1       1.208  -0.679  -0.013  0.00  0.00    +0.000 A 
ATOM     40  C   UNL     1       0.002  -0.004   0.002  0.00  0.00    +0.004 A 
ENDBRANCH  34  35
ENDBRANCH  33  34
ENDBRANCH  14  33
TORSDOF 6
