REMARK  Name = ZINC59264063
REMARK  9 active torsions:
REMARK  status: ('A' for Active; 'I' for Inactive)
REMARK    1  A    between atoms: C_4  and  C_7
REMARK    2  A    between atoms: C_7  and  C_8
REMARK    3  A    between atoms: C_7  and  N_14
REMARK    4  A    between atoms: C_15  and  C_17
REMARK    5  A    between atoms: C_17  and  S_18
REMARK    6  A    between atoms: S_18  and  C_19
REMARK    7  A    between atoms: C_22  and  C_25
REMARK    8  A    between atoms: N_23  and  N_24
REMARK    9  A    between atoms: C_30  and  O_31
REMARK                            x       y       z     vdW  Elec       q    Type
REMARK                         _______ _______ _______ _____ _____    ______ ____
ROOT
ATOM      1  C   UNL     1       4.602  -3.535  -2.461  0.00  0.00    +0.173 C 
ENDROOT
BRANCH   1   3
ATOM      2  N   UNL     1       3.590  -1.840  -0.971  0.00  0.00    -0.304 N 
ATOM      3  C   UNL     1       4.686  -2.295  -1.609  0.00  0.00    +0.224 C 
ATOM      4  O   UNL     1       5.741  -1.707  -1.497  0.00  0.00    -0.275 OA
ATOM      5  H   UNL     1       2.746  -2.310  -1.061  0.00  0.00    +0.150 HD
BRANCH   2   6
ATOM      6  C   UNL     1       3.672  -0.634  -0.143  0.00  0.00    +0.134 C 
BRANCH   6  10
ATOM      7  C   UNL     1      -0.185   1.183   0.109  0.00  0.00    +0.000 A 
ATOM      8  C   UNL     1       0.942   1.971  -0.026  0.00  0.00    +0.000 A 
ATOM      9  C   UNL     1       2.191   1.383  -0.107  0.00  0.00    +0.006 A 
ATOM     10  C   UNL     1       2.311   0.007  -0.053  0.00  0.00    -0.023 A 
ATOM     11  C   UNL     1       1.183  -0.781   0.083  0.00  0.00    +0.006 A 
ATOM     12  C   UNL     1      -0.065  -0.193   0.162  0.00  0.00    +0.000 A 
ENDBRANCH   6  10
BRANCH   6  13
ATOM     13  C   UNL     1       4.144  -1.006   1.239  0.00  0.00    -0.023 A 
ATOM     14  C   UNL     1       3.683  -2.162   1.840  0.00  0.00    +0.006 A 
ATOM     15  C   UNL     1       4.116  -2.503   3.107  0.00  0.00    +0.000 A 
ATOM     16  C   UNL     1       5.011  -1.687   3.774  0.00  0.00    +0.000 A 
ATOM     17  C   UNL     1       5.473  -0.531   3.173  0.00  0.00    +0.000 A 
ATOM     18  C   UNL     1       5.043  -0.193   1.904  0.00  0.00    +0.006 A 
ENDBRANCH   6  13
ENDBRANCH   2   6
ENDBRANCH   1   3
BRANCH   1  19
ATOM     19  S   UNL     1       6.231  -3.888  -3.179  0.00  0.00    -0.075 S 
BRANCH  19  20
ATOM     20  C   UNL     1       5.969  -5.345  -4.134  0.00  0.00    +0.209 A 
ATOM     21  N   UNL     1       4.835  -5.993  -4.272  0.00  0.00    -0.121 NA
ATOM     22  N   UNL     1       4.999  -7.012  -5.038  0.00  0.00    -0.127 NA
ATOM     23  C   UNL     1       6.248  -7.078  -5.435  0.00  0.00    +0.185 A 
ATOM     24  N   UNL     1       6.907  -6.009  -4.873  0.00  0.00    -0.224 N 
BRANCH  23  25
ATOM     25  C   UNL     1       6.835  -8.103  -6.323  0.00  0.00    +0.062 A 
ATOM     26  C   UNL     1       8.044  -8.713  -5.987  0.00  0.00    +0.015 A 
ATOM     27  C   UNL     1       8.587  -9.670  -6.819  0.00  0.00    +0.001 A 
ATOM     28  C   UNL     1       7.937 -10.027  -7.989  0.00  0.00    +0.004 A 
ATOM     29  C   UNL     1       6.739  -9.429  -8.332  0.00  0.00    +0.046 A 
ATOM     30  C   UNL     1       6.178  -8.471  -7.503  0.00  0.00    +0.128 A 
BRANCH  30  31
ATOM     31  O   UNL     1       4.997  -7.888  -7.837  0.00  0.00    -0.506 OA
ATOM     32  H   UNL     1       5.091  -7.088  -8.373  0.00  0.00    +0.292 HD
ENDBRANCH  30  31
ENDBRANCH  23  25
BRANCH  24  33
ATOM     33  N   UNL     1       8.225  -5.682  -5.020  0.00  0.00    -0.295 N 
ATOM     34  H   UNL     1       8.800  -6.190  -4.365  0.00  0.00    +0.163 HD
ATOM     35  H   UNL     1       8.533  -5.839  -5.968  0.00  0.00    +0.163 HD
ENDBRANCH  24  33
ENDBRANCH  19  20
ENDBRANCH   1  19
TORSDOF 9
