REMARK  Name = ZINC20921468
REMARK  12 active torsions:
REMARK  status: ('A' for Active; 'I' for Inactive)
REMARK    1  A    between atoms: C_1  and  C_2
REMARK    2  A    between atoms: C_2  and  C_3
REMARK    3  A    between atoms: C_2  and  N_4
REMARK    4  A    between atoms: C_6  and  C_9
REMARK    5  A    between atoms: N_10  and  N_11
REMARK    6  A    between atoms: C_15  and  S_18
REMARK    7  A    between atoms: N_16  and  N_17
REMARK    8  A    between atoms: S_18  and  C_19
REMARK    9  A    between atoms: C_19  and  C_20
REMARK   10  A    between atoms: C_20  and  C_21
REMARK   11  A    between atoms: N_23  and  C_24
REMARK   12  A    between atoms: C_25  and  C_33
REMARK                            x       y       z     vdW  Elec       q    Type
REMARK                         _______ _______ _______ _____ _____    ______ ____
ROOT
ATOM      1  N   UNL     1       1.432   5.003   0.014  0.00  0.00    -0.204 N 
ATOM      2  C   UNL     1       0.632   3.870   0.016  0.00  0.00    +0.254 A 
ATOM      3  N   UNL     1      -0.678   3.852   0.028  0.00  0.00    -0.109 NA
ATOM      4  N   UNL     1      -1.093   2.514   0.020  0.00  0.00    -0.119 NA
ATOM      5  C   UNL     1      -0.022   1.758   0.012  0.00  0.00    +0.210 A 
ATOM      6  N   UNL     1       1.073   2.576   0.006  0.00  0.00    -0.211 N 
ATOM      7  H   UNL     1       2.528   4.903   0.003  0.00  0.00    +0.177 HD
ENDROOT
BRANCH   6   8
ATOM      8  N   UNL     1       2.377   2.171  -0.008  0.00  0.00    -0.294 N 
ATOM      9  H   UNL     1       2.620   1.099  -0.016  0.00  0.00    +0.163 HD
ATOM     10  H   UNL     1       3.184   2.918  -0.012  0.00  0.00    +0.163 HD
ENDBRANCH   6   8
BRANCH   1  12
ATOM     11  C   UNL     1       1.594   7.335   0.024  0.00  0.00    +0.141 C 
ATOM     12  N   UNL     1       0.845   6.275   0.026  0.00  0.00    -0.187 NA
BRANCH  11  15
ATOM     13  N   UNL     1       0.708  10.857   0.050  0.00  0.00    -0.268 N 
ATOM     14  C   UNL     1       1.640   9.883   0.036  0.00  0.00    +0.118 A 
ATOM     15  C   UNL     1       0.975   8.676   0.037  0.00  0.00    +0.032 A 
ATOM     16  C   UNL     1      -0.408   8.959   0.045  0.00  0.00    +0.143 A 
ATOM     17  N   UNL     1      -0.557  10.256   0.059  0.00  0.00    -0.179 NA
BRANCH  13  19
ATOM     18  C   UNL     1       1.203  12.769   1.492  0.00  0.00    +0.032 C 
ATOM     19  C   UNL     1       0.973  12.297   0.055  0.00  0.00    +0.101 C 
ATOM     20  C   UNL     1       2.219  12.589  -0.783  0.00  0.00    +0.032 C 
ENDBRANCH  13  19
ENDBRANCH  11  15
ENDBRANCH   1  12
BRANCH   5  21
ATOM     21  S   UNL     1       0.002  -0.004   0.002  0.00  0.00    -0.084 S 
BRANCH  21  22
ATOM     22  C   UNL     1      -1.752  -0.467   0.016  0.00  0.00    +0.086 C 
BRANCH  22  23
ATOM     23  C   UNL     1      -1.877  -1.992   0.009  0.00  0.00    +0.107 C 
BRANCH  23  24
ATOM     24  C   UNL     1      -3.334  -2.376   0.021  0.00  0.00    +0.218 C 
ATOM     25  O   UNL     1      -4.188  -1.515   0.034  0.00  0.00    -0.275 OA
ATOM     26  N   UNL     1      -3.688  -3.677   0.018  0.00  0.00    -0.279 N 
ATOM     27  H   UNL     1      -2.913  -4.457   0.006  0.00  0.00    +0.155 HD
BRANCH  26  28
ATOM     28  C   UNL     1      -5.030  -4.031   0.028  0.00  0.00    +0.090 A 
ATOM     29  C   UNL     1      -5.586  -5.301   0.021  0.00  0.00    +0.084 A 
ATOM     30  C   UNL     1      -7.035  -5.401   0.040  0.00  0.00    -0.018 A 
ATOM     31  C   UNL     1      -7.693  -4.220   0.052  0.00  0.00    -0.004 A 
ATOM     32  S   UNL     1      -6.417  -2.993   0.047  0.00  0.00    -0.077 S 
ATOM     33  C   UNL     1      -9.176  -4.013   0.066  0.00  0.00    +0.043 C 
ATOM     34  C   UNL     1      -9.853  -5.338  -0.314  0.00  0.00    +0.005 C 
ATOM     35  C   UNL     1      -9.227  -6.466   0.512  0.00  0.00    +0.005 C 
ATOM     36  C   UNL     1      -7.794  -6.722   0.040  0.00  0.00    +0.037 C 
BRANCH  29  37
ATOM     37  C   UNL     1      -4.762  -6.472   0.000  0.00  0.00    +0.102 C 
ATOM     38  N   UNL     1      -4.108  -7.401  -0.016  0.00  0.00    -0.191 NA
ENDBRANCH  29  37
ENDBRANCH  26  28
ENDBRANCH  23  24
ENDBRANCH  22  23
ENDBRANCH  21  22
ENDBRANCH   5  21
TORSDOF 10
