REMARK  Name = ZINC01382568
REMARK  11 active torsions:
REMARK  status: ('A' for Active; 'I' for Inactive)
REMARK    1  A    between atoms: C_1  and  C_2
REMARK    2  A    between atoms: C_4  and  C_43
REMARK    3  A    between atoms: C_7  and  C_14
REMARK    4  A    between atoms: C_14  and  C_16
REMARK    5  A    between atoms: C_14  and  N_27
REMARK    6  A    between atoms: N_20  and  C_21
REMARK    7  A    between atoms: C_21  and  C_22
REMARK    8  A    between atoms: N_27  and  C_28
REMARK    9  A    between atoms: N_27  and  C_35
REMARK   10  A    between atoms: C_28  and  C_29
REMARK   11  A    between atoms: C_35  and  C_36
REMARK                            x       y       z     vdW  Elec       q    Type
REMARK                         _______ _______ _______ _____ _____    ______ ____
ROOT
ATOM      1  C   UNL     1       0.019  -6.539   0.986  0.00  0.00    +0.163 C 
ENDROOT
BRANCH   1   8
ATOM      2  C   UNL     1       0.102   1.397   1.781  0.00  0.00    +0.044 C 
ATOM      3  C   UNL     1      -0.136  -0.088   1.700  0.00  0.00    -0.048 A 
ATOM      4  C   UNL     1      -1.383  -0.603   2.029  0.00  0.00    +0.007 A 
ATOM      5  C   UNL     1      -1.620  -1.947   1.963  0.00  0.00    -0.041 A 
ATOM      6  C   UNL     1      -0.597  -2.812   1.560  0.00  0.00    +0.002 A 
ATOM      7  C   UNL     1      -0.817  -4.257   1.478  0.00  0.00    +0.021 A 
ATOM      8  C   UNL     1       0.212  -5.047   1.081  0.00  0.00    +0.042 A 
ATOM      9  C   UNL     1       1.462  -4.477   0.757  0.00  0.00    +0.254 A 
ATOM     10  O   UNL     1       2.373  -5.205   0.403  0.00  0.00    -0.268 OA
ATOM     11  N   UNL     1       1.673  -3.151   0.830  0.00  0.00    -0.322 N 
ATOM     12  H   UNL     1       2.544  -2.792   0.600  0.00  0.00    +0.169 HD
ATOM     13  C   UNL     1       0.668  -2.294   1.227  0.00  0.00    +0.050 A 
ATOM     14  C   UNL     1       0.884  -0.921   1.296  0.00  0.00    +0.029 A 
ATOM     15  C   UNL     1      -2.977  -2.494   2.322  0.00  0.00    +0.044 C 
ENDBRANCH   1   8
BRANCH   1  16
ATOM     16  C   UNL     1      -1.274  -6.922   1.658  0.00  0.00    +0.174 A 
ATOM     17  N   UNL     1      -1.611  -6.680   2.901  0.00  0.00    -0.111 NA
ATOM     18  N   UNL     1      -2.789  -7.164   3.095  0.00  0.00    -0.023 NA
ATOM     19  N   UNL     1      -3.212  -7.708   2.008  0.00  0.00    -0.043 NA
ATOM     20  N   UNL     1      -2.308  -7.575   1.097  0.00  0.00    -0.220 N 
BRANCH  20  21
ATOM     21  C   UNL     1      -2.391  -8.049  -0.287  0.00  0.00    +0.221 C 
BRANCH  21  22
ATOM     22  C   UNL     1      -1.848  -9.452  -0.371  0.00  0.00    +0.126 A 
ATOM     23  C   UNL     1      -2.563 -10.582  -0.224  0.00  0.00    +0.046 A 
ATOM     24  C   UNL     1      -1.662 -11.660  -0.379  0.00  0.00    +0.041 A 
ATOM     25  C   UNL     1      -0.450 -11.124  -0.610  0.00  0.00    +0.195 A 
ATOM     26  O   UNL     1      -0.570  -9.787  -0.610  0.00  0.00    -0.466 OA
ENDBRANCH  21  22
ENDBRANCH  20  21
ENDBRANCH   1  16
BRANCH   1  27
ATOM     27  N   UNL     1       1.138  -7.220   1.651  0.00  0.00    -0.280 NA
BRANCH  27  28
ATOM     28  C   UNL     1       1.069  -7.046   3.108  0.00  0.00    +0.122 C 
BRANCH  28  29
ATOM     29  C   UNL     1       1.545  -5.663   3.472  0.00  0.00    -0.015 A 
ATOM     30  C   UNL     1       2.901  -5.386   3.555  0.00  0.00    +0.008 A 
ATOM     31  C   UNL     1       3.292  -4.100   3.893  0.00  0.00    +0.020 A 
ATOM     32  C   UNL     1       2.324  -3.143   4.134  0.00  0.00    +0.111 A 
ATOM     33  N   UNL     1       1.043  -3.442   4.046  0.00  0.00    -0.263 NA
ATOM     34  C   UNL     1       0.635  -4.654   3.721  0.00  0.00    +0.115 A 
ENDBRANCH  28  29
ENDBRANCH  27  28
BRANCH  27  35
ATOM     35  C   UNL     1       1.176  -8.644   1.292  0.00  0.00    +0.122 C 
BRANCH  35  36
ATOM     36  C   UNL     1       2.400  -9.282   1.896  0.00  0.00    -0.015 A 
ATOM     37  C   UNL     1       3.574  -9.348   1.170  0.00  0.00    +0.006 A 
ATOM     38  C   UNL     1       4.697  -9.934   1.724  0.00  0.00    +0.000 A 
ATOM     39  C   UNL     1       4.646 -10.454   3.004  0.00  0.00    +0.001 A 
ATOM     40  C   UNL     1       3.473 -10.388   3.731  0.00  0.00    +0.020 A 
ATOM     41  C   UNL     1       2.350  -9.797   3.179  0.00  0.00    +0.045 A 
ATOM     42 CL   UNL     1       0.877  -9.708   4.093  0.00  0.00    -0.083 Cl
ENDBRANCH  35  36
ENDBRANCH  27  35
ENDBRANCH   1  27
TORSDOF 9
