REMARK  Name = ZINC36500887
REMARK  12 active torsions:
REMARK  status: ('A' for Active; 'I' for Inactive)
REMARK    1  A    between atoms: C_1  and  C_2
REMARK    2  A    between atoms: C_2  and  C_3
REMARK    3  A    between atoms: C_2  and  C_4
REMARK    4  A    between atoms: C_2  and  N_5
REMARK    5  A    between atoms: C_6  and  C_8
REMARK    6  A    between atoms: C_8  and  C_10
REMARK    7  A    between atoms: C_8  and  N_17
REMARK    8  A    between atoms: N_17  and  C_18
REMARK    9  A    between atoms: C_18  and  C_19
REMARK   10  A    between atoms: C_24  and  C_26
REMARK   11  A    between atoms: C_30  and  O_33
REMARK   12  A    between atoms: C_31  and  O_32
REMARK                            x       y       z     vdW  Elec       q    Type
REMARK                         _______ _______ _______ _____ _____    ______ ____
ROOT
ATOM      1  N   UNL     1       4.165   1.062  -1.928  0.00  0.00    -0.275 N 
ATOM      2  C   UNL     1       5.131   0.461  -1.204  0.00  0.00    +0.252 C 
ATOM      3  O   UNL     1       5.111   0.528   0.010  0.00  0.00    -0.270 OA
ENDROOT
BRANCH   2   4
ATOM      4  C   UNL     1       6.212  -0.278  -1.884  0.00  0.00    +0.082 A 
ATOM      5  C   UNL     1       5.904  -1.314  -2.771  0.00  0.00    +0.017 A 
ATOM      6  C   UNL     1       6.916  -2.001  -3.404  0.00  0.00    +0.005 A 
ATOM      7  C   UNL     1       8.241  -1.671  -3.169  0.00  0.00    +0.049 A 
ATOM      8  C   UNL     1       8.561  -0.647  -2.294  0.00  0.00    +0.159 A 
ATOM      9  C   UNL     1       7.550   0.060  -1.650  0.00  0.00    +0.171 A 
BRANCH   9  10
ATOM     10  O   UNL     1       7.859   1.069  -0.796  0.00  0.00    -0.503 OA
ATOM     11  H   UNL     1       7.977   0.785   0.121  0.00  0.00    +0.292 HD
ENDBRANCH   9  10
BRANCH   8  12
ATOM     12  O   UNL     1       9.864  -0.329  -2.067  0.00  0.00    -0.503 OA
ATOM     13  H   UNL     1      10.215   0.341  -2.669  0.00  0.00    +0.292 HD
ENDBRANCH   8  12
ENDBRANCH   2   4
BRANCH   1  14
ATOM     14  C   UNL     1       4.122   0.883  -3.381  0.00  0.00    +0.193 C 
BRANCH  14  15
ATOM     15  C   UNL     1       2.911   0.065  -3.751  0.00  0.00    -0.018 A 
ATOM     16  C   UNL     1       2.136  -0.509  -2.760  0.00  0.00    +0.007 A 
ATOM     17  C   UNL     1       1.026  -1.259  -3.097  0.00  0.00    +0.020 A 
ATOM     18  C   UNL     1       0.690  -1.436  -4.428  0.00  0.00    +0.041 A 
ATOM     19  C   UNL     1       1.465  -0.862  -5.419  0.00  0.00    +0.020 A 
ATOM     20  C   UNL     1       2.572  -0.107  -5.080  0.00  0.00    +0.007 A 
ATOM     21 CL   UNL     1      -0.705  -2.379  -4.853  0.00  0.00    -0.084 Cl
ENDBRANCH  14  15
BRANCH  14  23
ATOM     22  N   UNL     1       4.228   2.334  -5.382  0.00  0.00    -0.309 N 
ATOM     23  C   UNL     1       4.040   2.230  -4.051  0.00  0.00    +0.239 C 
ATOM     24  O   UNL     1       3.806   3.222  -3.393  0.00  0.00    -0.273 OA
ATOM     25  H   UNL     1       4.336   1.534  -5.920  0.00  0.00    +0.149 HD
BRANCH  22  27
ATOM     26  C   UNL     1       5.232   4.560  -5.244  0.00  0.00    +0.031 C 
ATOM     27  C   UNL     1       4.270   3.654  -6.015  0.00  0.00    +0.026 C 
ATOM     28  C   UNL     1       2.869   4.270  -6.003  0.00  0.00    +0.031 C 
ATOM     29  C   UNL     1       4.752   3.512  -7.460  0.00  0.00    +0.031 C 
ENDBRANCH  22  27
ENDBRANCH  14  23
ENDBRANCH   1  14
BRANCH   1  30
ATOM     30  C   UNL     1       3.160   1.894  -1.262  0.00  0.00    +0.183 C 
BRANCH  30  31
ATOM     31  C   UNL     1       3.834   3.083  -0.626  0.00  0.00    +0.122 A 
ATOM     32  C   UNL     1       3.462   4.367  -0.770  0.00  0.00    +0.046 A 
ATOM     33  C   UNL     1       4.363   5.143  -0.006  0.00  0.00    +0.041 A 
ATOM     34  C   UNL     1       5.232   4.286   0.559  0.00  0.00    +0.195 A 
ATOM     35  O   UNL     1       4.903   3.039   0.185  0.00  0.00    -0.466 OA
ENDBRANCH  30  31
ENDBRANCH   1  30
TORSDOF 9
