REMARK  Name = ZINC26786749
REMARK  6 active torsions:
REMARK  status: ('A' for Active; 'I' for Inactive)
REMARK    1  A    between atoms: C_1  and  C_2
REMARK    2  A    between atoms: C_5  and  S_8
REMARK    3  A    between atoms: S_8  and  N_11
REMARK    4  A    between atoms: C_14  and  N_23
REMARK    5  A    between atoms: N_23  and  N_24
REMARK    6  A    between atoms: C_25  and  C_27
REMARK                            x       y       z     vdW  Elec       q    Type
REMARK                         _______ _______ _______ _____ _____    ______ ____
ROOT
ATOM      1  N   UNL     1      -4.936   5.196   0.055  0.00  0.00    -0.129 NA
ATOM      2  C   UNL     1      -4.964   3.891   0.121  0.00  0.00    +0.091 C 
ATOM      3  C   UNL     1      -3.708   3.132   0.088  0.00  0.00    +0.058 C 
ATOM      4  C   UNL     1      -3.738   1.783   0.158  0.00  0.00    +0.094 C 
ATOM      5  C   UNL     1      -5.032   1.085   0.262  0.00  0.00    +0.205 C 
ATOM      6  O   UNL     1      -5.060  -0.130   0.321  0.00  0.00    -0.286 OA
ATOM      7  C   UNL     1      -6.291   1.849   0.299  0.00  0.00    +0.010 C 
ATOM      8  C   UNL     1      -6.262   3.186   0.229  0.00  0.00    -0.010 C 
ATOM      9  C   UNL     1      -7.522   4.006   0.256  0.00  0.00    +0.064 C 
ATOM     10  C   UNL     1      -8.657   3.250   0.873  0.00  0.00    -0.026 C 
ATOM     11  C   UNL     1      -8.685   1.955   0.941  0.00  0.00    -0.026 C 
ATOM     12  C   UNL     1      -7.585   1.091   0.409  0.00  0.00    +0.066 C 
ENDROOT
BRANCH   1  13
ATOM     13  S   UNL     1      -6.128   6.008  -0.758  0.00  0.00    +0.099 S 
ATOM     14  O   UNL     1      -6.580   5.142  -1.790  0.00  0.00    -0.146 OA
ATOM     15  O   UNL     1      -7.003   6.540   0.228  0.00  0.00    -0.146 OA
BRANCH  13  20
ATOM     16  C   UNL     1      -3.532  10.725  -3.483  0.00  0.00    +0.044 C 
ATOM     17  C   UNL     1      -4.180   9.547  -2.802  0.00  0.00    -0.050 A 
ATOM     18  C   UNL     1      -4.275   8.334  -3.460  0.00  0.00    +0.005 A 
ATOM     19  C   UNL     1      -4.869   7.254  -2.836  0.00  0.00    +0.029 A 
ATOM     20  C   UNL     1      -5.370   7.386  -1.554  0.00  0.00    +0.112 A 
ATOM     21  C   UNL     1      -5.280   8.599  -0.898  0.00  0.00    +0.029 A 
ATOM     22  C   UNL     1      -4.681   9.678  -1.521  0.00  0.00    +0.005 A 
ENDBRANCH  13  20
ENDBRANCH   1  13
BRANCH   4  23
ATOM     23  N   UNL     1      -2.554   1.056   0.127  0.00  0.00    -0.261 N 
ATOM     24  H   UNL     1      -2.582  -0.042   0.184  0.00  0.00    +0.170 HD
BRANCH  23  25
ATOM     25  N   UNL     1      -1.326   1.722   0.023  0.00  0.00    -0.232 N 
ATOM     26  C   UNL     1      -0.178   1.018  -0.007  0.00  0.00    +0.260 C 
ATOM     27  O   UNL     1      -0.208  -0.196   0.056  0.00  0.00    -0.269 OA
ATOM     28  H   UNL     1      -1.299   2.821  -0.035  0.00  0.00    +0.173 HD
BRANCH  26  29
ATOM     29  C   UNL     1       1.118   1.720  -0.123  0.00  0.00    +0.038 A 
ATOM     30  C   UNL     1       1.155   3.113  -0.202  0.00  0.00    +0.013 A 
ATOM     31  C   UNL     1       2.368   3.763  -0.305  0.00  0.00    +0.001 A 
ATOM     32  C   UNL     1       3.545   3.036  -0.341  0.00  0.00    +0.000 A 
ATOM     33  C   UNL     1       3.514   1.655  -0.270  0.00  0.00    +0.001 A 
ATOM     34  C   UNL     1       2.308   0.993  -0.161  0.00  0.00    +0.013 A 
ENDBRANCH  26  29
ENDBRANCH  23  25
ENDBRANCH   4  23
TORSDOF 5
