REMARK  Name = ZINC22109158
REMARK  13 active torsions:
REMARK  status: ('A' for Active; 'I' for Inactive)
REMARK    1  A    between atoms: C_1  and  N_2
REMARK    2  A    between atoms: C_3  and  S_7
REMARK    3  A    between atoms: S_7  and  C_8
REMARK    4  A    between atoms: C_8  and  C_9
REMARK    5  A    between atoms: C_9  and  C_10
REMARK    6  A    between atoms: C_10  and  N_11
REMARK    7  A    between atoms: N_11  and  C_12
REMARK    8  A    between atoms: C_12  and  C_13
REMARK    9  A    between atoms: C_15  and  O_29
REMARK   10  A    between atoms: C_16  and  O_20
REMARK   11  A    between atoms: O_20  and  C_21
REMARK   12  A    between atoms: C_21  and  C_22
REMARK   13  A    between atoms: O_29  and  C_30
REMARK                            x       y       z     vdW  Elec       q    Type
REMARK                         _______ _______ _______ _____ _____    ______ ____
ROOT
ATOM      1  C   UNL     1      -0.368   5.119   0.561  0.00  0.00    -0.060 A 
ATOM      2  C   UNL     1      -0.259   3.751   0.395  0.00  0.00    +0.051 A 
ATOM      3  C   UNL     1      -0.787   2.893   1.346  0.00  0.00    +0.163 A 
ATOM      4  C   UNL     1      -1.432   3.411   2.466  0.00  0.00    +0.176 A 
ATOM      5  C   UNL     1      -1.532   4.784   2.630  0.00  0.00    +0.063 A 
ATOM      6  C   UNL     1      -1.002   5.635   1.675  0.00  0.00    +0.021 A 
ATOM      7 BR   UNL     1      -2.398   5.494   4.153  0.00  0.00    -0.046 Br
ENDROOT
BRANCH   3   8
ATOM      8  O   UNL     1      -0.682   1.547   1.184  0.00  0.00    -0.491 OA
ATOM      9  C   UNL     1      -0.013   1.086   0.008  0.00  0.00    +0.277 C 
ENDBRANCH   3   8
BRANCH   1  10
ATOM     10  C   UNL     1       0.207   6.050  -0.475  0.00  0.00    -0.047 C 
BRANCH  10  11
ATOM     11  N   UNL     1      -0.811   6.340  -1.492  0.00  0.00    +0.382 N 
ATOM     12  H   UNL     1      -1.678   6.806  -1.001  0.00  0.00    -0.085 HD
ATOM     13  H   UNL     1      -1.121   5.394  -1.961  0.00  0.00    -0.085 HD
BRANCH  11  14
ATOM     14  C   UNL     1      -0.285   7.247  -2.521  0.00  0.00    -0.081 C 
BRANCH  14  15
ATOM     15  C   UNL     1      -1.372   7.524  -3.561  0.00  0.00    -0.008 C 
BRANCH  15  16
ATOM     16  C   UNL     1      -0.824   8.469  -4.633  0.00  0.00    +0.075 C 
BRANCH  16  17
ATOM     17  S   UNL     1      -2.110   8.797  -5.863  0.00  0.00    -0.085 S 
BRANCH  17  20
ATOM     18  C   UNL     1      -3.050  10.301  -8.646  0.00  0.00    +0.177 C 
ATOM     19  N   UNL     1      -1.711  10.450  -8.073  0.00  0.00    -0.223 N 
ATOM     20  C   UNL     1      -1.232   9.878  -6.943  0.00  0.00    +0.209 A 
ATOM     21  N   UNL     1       0.015  10.276  -6.806  0.00  0.00    -0.102 NA
ATOM     22  N   UNL     1       0.344  11.060  -7.768  0.00  0.00    -0.022 NA
ATOM     23  N   UNL     1      -0.647  11.219  -8.577  0.00  0.00    -0.043 NA
ENDBRANCH  17  20
ENDBRANCH  16  17
ENDBRANCH  15  16
ENDBRANCH  14  15
ENDBRANCH  11  14
ENDBRANCH  10  11
ENDBRANCH   1  10
BRANCH   4  24
ATOM     24  O   UNL     1      -1.957   2.573   3.399  0.00  0.00    -0.483 OA
BRANCH  24  25
ATOM     25  C   UNL     1      -1.102   2.184   4.476  0.00  0.00    +0.264 C 
BRANCH  25  26
ATOM     26  C   UNL     1      -1.850   1.262   5.404  0.00  0.00    -0.010 A 
ATOM     27  C   UNL     1      -2.561   1.781   6.469  0.00  0.00    +0.008 A 
ATOM     28  C   UNL     1      -3.252   0.936   7.317  0.00  0.00    +0.020 A 
ATOM     29  C   UNL     1      -3.223  -0.431   7.106  0.00  0.00    +0.041 A 
ATOM     30  C   UNL     1      -2.506  -0.951   6.042  0.00  0.00    +0.020 A 
ATOM     31  C   UNL     1      -1.820  -0.104   5.192  0.00  0.00    +0.008 A 
ATOM     32 CL   UNL     1      -4.085  -1.493   8.174  0.00  0.00    -0.084 Cl
ENDBRANCH  25  26
ENDBRANCH  24  25
ENDBRANCH   4  24
TORSDOF 11
