REMARK  Name = ZINC16884170
REMARK  4 active torsions:
REMARK  status: ('A' for Active; 'I' for Inactive)
REMARK    1  A    between atoms: C_4  and  C_7
REMARK    2  A    between atoms: C_9  and  C_17
REMARK    3  A    between atoms: C_14  and  O_15
REMARK    4  A    between atoms: C_26  and  O_27
REMARK                            x       y       z     vdW  Elec       q    Type
REMARK                         _______ _______ _______ _____ _____    ______ ____
ROOT
ATOM      1  C   UNL     1      -0.861   1.832   0.946  0.00  0.00    +0.133 C 
ATOM      2  C   UNL     1       0.010   1.027  -0.023  0.00  0.00    +0.159 C 
ATOM      3  N   UNL     1      -0.549   1.124  -1.372  0.00  0.00    -0.243 NA
ATOM      4  C   UNL     1      -1.149   2.210  -1.771  0.00  0.00    +0.211 C 
ATOM      5  N   UNL     1      -1.283   3.289  -0.959  0.00  0.00    -0.183 NA
ATOM      6  C   UNL     1      -1.161   3.177   0.333  0.00  0.00    +0.200 C 
ATOM      7  N   UNL     1      -1.661   2.264  -3.050  0.00  0.00    -0.328 N 
ATOM      8  H   UNL     1      -1.572   1.499  -3.641  0.00  0.00    +0.145 HD
ATOM      9  H   UNL     1      -2.110   3.066  -3.360  0.00  0.00    +0.145 HD
ENDROOT
BRANCH   2  10
ATOM     10  C   UNL     1       1.412   1.580  -0.017  0.00  0.00    +0.027 A 
ATOM     11  C   UNL     1       2.261   1.341   1.075  0.00  0.00    -0.009 A 
ATOM     12  C   UNL     1       1.835   0.578   2.177  0.00  0.00    +0.009 A 
ATOM     13  C   UNL     1       2.687   0.362   3.216  0.00  0.00    +0.001 A 
ATOM     14  C   UNL     1       3.980   0.881   3.203  0.00  0.00    +0.001 A 
ATOM     15  C   UNL     1       4.429   1.620   2.152  0.00  0.00    +0.008 A 
ATOM     16  C   UNL     1       3.578   1.865   1.061  0.00  0.00    -0.017 A 
ATOM     17  C   UNL     1       4.008   2.624  -0.042  0.00  0.00    +0.012 A 
ATOM     18  C   UNL     1       3.159   2.842  -1.082  0.00  0.00    +0.046 A 
ATOM     19  C   UNL     1       1.861   2.321  -1.073  0.00  0.00    +0.123 A 
BRANCH  19  20
ATOM     20  O   UNL     1       1.037   2.555  -2.127  0.00  0.00    -0.506 OA
ATOM     21  H   UNL     1       0.582   3.408  -2.089  0.00  0.00    +0.292 HD
ENDBRANCH  19  20
ENDBRANCH   2  10
BRANCH   1  25
ATOM     22  C   UNL     1      -4.518  -0.259   1.657  0.00  0.00    +0.000 A 
ATOM     23  C   UNL     1      -3.668   0.026   2.710  0.00  0.00    +0.000 A 
ATOM     24  C   UNL     1      -2.485   0.702   2.480  0.00  0.00    +0.004 A 
ATOM     25  C   UNL     1      -2.151   1.094   1.197  0.00  0.00    -0.033 A 
ATOM     26  C   UNL     1      -3.003   0.814   0.145  0.00  0.00    +0.004 A 
ATOM     27  C   UNL     1      -4.184   0.133   0.374  0.00  0.00    +0.000 A 
ENDBRANCH   1  25
BRANCH   6  28
ATOM     28  O   UNL     1      -1.301   4.259   1.119  0.00  0.00    -0.495 OA
ATOM     29  H   UNL     1      -1.492   5.099   0.680  0.00  0.00    +0.293 HD
ENDBRANCH   6  28
TORSDOF 4
