REMARK  Name = ZINC20701313
REMARK  3 active torsions:
REMARK  status: ('A' for Active; 'I' for Inactive)
REMARK    1  A    between atoms: C_6  and  N_7
REMARK    2  A    between atoms: C_17  and  C_20
REMARK    3  A    between atoms: C_25  and  O_26
REMARK                            x       y       z     vdW  Elec       q    Type
REMARK                         _______ _______ _______ _____ _____    ______ ____
ROOT
ATOM      1  C   UNL     1       2.393   6.867   0.771  0.00  0.00    +0.034 A 
ATOM      2  C   UNL     1       2.788   5.860  -0.085  0.00  0.00    +0.025 A 
ATOM      3  C   UNL     1       3.019   4.578   0.398  0.00  0.00    +0.032 A 
ATOM      4  C   UNL     1       2.834   4.319   1.761  0.00  0.00    -0.017 A 
ATOM      5  C   UNL     1       2.447   5.333   2.610  0.00  0.00    +0.038 A 
ATOM      6  C   UNL     1       2.225   6.607   2.119  0.00  0.00    +0.127 A 
ATOM      7  C   UNL     1       3.050   2.933   2.228  0.00  0.00    +0.049 C 
ATOM      8  C   UNL     1       3.443   2.628   3.628  0.00  0.00    -0.023 C 
ATOM      9  C   UNL     1       4.192   1.532   3.629  0.00  0.00    -0.030 C 
ATOM     10  C   UNL     1       4.387   1.030   2.197  0.00  0.00    +0.033 C 
ATOM     11  C   UNL     1       4.214   2.323   1.390  0.00  0.00    +0.029 C 
ATOM     12  C   UNL     1       3.671   2.193  -0.022  0.00  0.00    +0.109 C 
ATOM     13  N   UNL     1       3.435   3.577  -0.487  0.00  0.00    -0.336 N 
ATOM     14  H   UNL     1       3.585   3.834  -1.546  0.00  0.00    +0.147 HD
ENDROOT
BRANCH  12  15
ATOM     15  C   UNL     1       2.378   1.418  -0.013  0.00  0.00    +0.017 A 
ATOM     16  C   UNL     1       1.171   2.090   0.002  0.00  0.00    +0.029 A 
ATOM     17  C   UNL     1      -0.017   1.380   0.010  0.00  0.00    +0.043 A 
ATOM     18  C   UNL     1       0.002  -0.004   0.002  0.00  0.00    +0.043 A 
ATOM     19  C   UNL     1       1.208  -0.679  -0.013  0.00  0.00    +0.084 A 
ATOM     20  C   UNL     1       2.400   0.032  -0.020  0.00  0.00    +0.140 A 
ATOM     21 CL   UNL     1       1.232  -2.415  -0.022  0.00  0.00    -0.080 Cl
ATOM     22 CL   UNL     1      -1.532   2.226   0.021  0.00  0.00    -0.083 Cl
BRANCH  20  23
ATOM     23  O   UNL     1       3.588  -0.630  -0.035  0.00  0.00    -0.505 OA
ATOM     24  H   UNL     1       3.604  -1.730  -0.041  0.00  0.00    +0.292 HD
ENDBRANCH  20  23
ENDBRANCH  12  15
BRANCH   6  25
ATOM     25  N   UNL     1       1.808   7.692   3.036  0.00  0.00    +0.056 N 
ATOM     26  O   UNL     1       1.613   8.814   2.603  0.00  0.00    -0.126 OA
ATOM     27  O   UNL     1       1.660   7.462   4.223  0.00  0.00    -0.126 OA
ENDBRANCH   6  25
TORSDOF 3
