REMARK  Name = ZINC39853248
REMARK  8 active torsions:
REMARK  status: ('A' for Active; 'I' for Inactive)
REMARK    1  A    between atoms: C_1  and  C_2
REMARK    2  A    between atoms: N_6  and  C_7
REMARK    3  A    between atoms: C_15  and  C_31
REMARK    4  A    between atoms: C_15  and  C_32
REMARK    5  A    between atoms: N_18  and  O_19
REMARK    6  A    between atoms: O_19  and  C_20
REMARK    7  A    between atoms: C_20  and  C_22
REMARK    8  A    between atoms: C_26  and  N_28
REMARK                            x       y       z     vdW  Elec       q    Type
REMARK                         _______ _______ _______ _____ _____    ______ ____
ROOT
ATOM      1  C   UNL     1      -0.018   1.503   0.010  0.00  0.00    +0.064 C 
ATOM      2  C   UNL     1       0.002  -0.004   0.002  0.00  0.00    +0.022 A 
ATOM      3  C   UNL     1       0.008  -0.783  -1.101  0.00  0.00    +0.033 A 
ATOM      4  C   UNL     1       0.029  -2.153  -0.628  0.00  0.00    +0.021 A 
ATOM      5  C   UNL     1       0.032  -2.106   0.745  0.00  0.00    +0.033 A 
ATOM      6  N   UNL     1       0.024  -0.806   1.113  0.00  0.00    -0.317 N 
ATOM      7  C   UNL     1       0.047  -3.341   1.608  0.00  0.00    +0.061 C 
ATOM      8  C   UNL     1      -0.451  -4.537   0.791  0.00  0.00    -0.024 C 
ATOM      9  C   UNL     1       0.334  -4.662  -0.519  0.00  0.00    +0.066 C 
ATOM     10  C   UNL     1       0.047  -3.431  -1.366  0.00  0.00    +0.090 C 
ATOM     11  N   UNL     1      -0.167  -3.500  -2.642  0.00  0.00    -0.078 NA
ATOM     12  C   UNL     1      -0.272  -5.816   1.611  0.00  0.00    +0.011 C 
ATOM     13  C   UNL     1      -1.935  -4.347   0.473  0.00  0.00    +0.011 C 
ENDROOT
BRANCH   6  14
ATOM     14  C   UNL     1       0.032  -0.345   2.436  0.00  0.00    +0.047 A 
ATOM     15  C   UNL     1       1.135  -0.577   3.247  0.00  0.00    +0.027 A 
ATOM     16  C   UNL     1       1.140  -0.121   4.551  0.00  0.00    +0.017 A 
ATOM     17  C   UNL     1       0.047   0.565   5.050  0.00  0.00    +0.018 A 
ATOM     18  C   UNL     1      -1.054   0.797   4.244  0.00  0.00    +0.017 A 
ATOM     19  C   UNL     1      -1.061   0.349   2.938  0.00  0.00    +0.027 A 
ATOM     20 BR   UNL     1       0.058   1.187   6.835  0.00  0.00    -0.050 Br
ENDBRANCH   6  14
BRANCH  11  21
ATOM     21  O   UNL     1      -0.138  -4.755  -3.298  0.00  0.00    -0.312 OA
BRANCH  21  22
ATOM     22  C   UNL     1      -0.376  -4.686  -4.622  0.00  0.00    +0.366 C 
ATOM     23  O   UNL     1      -0.590  -3.611  -5.146  0.00  0.00    -0.243 OA
BRANCH  22  24
ATOM     24  C   UNL     1      -0.377  -5.918  -5.437  0.00  0.00    +0.063 A 
ATOM     25  C   UNL     1      -0.137  -7.156  -4.837  0.00  0.00    +0.015 A 
ATOM     26  C   UNL     1      -0.140  -8.303  -5.604  0.00  0.00    +0.003 A 
ATOM     27  C   UNL     1      -0.379  -8.228  -6.964  0.00  0.00    +0.033 A 
ATOM     28  C   UNL     1      -0.618  -7.005  -7.565  0.00  0.00    +0.127 A 
ATOM     29  C   UNL     1      -0.623  -5.851  -6.809  0.00  0.00    +0.047 A 
BRANCH  28  30
ATOM     30  N   UNL     1      -0.873  -6.935  -9.022  0.00  0.00    +0.056 N 
ATOM     31  O   UNL     1      -0.872  -7.946  -9.685  0.00  0.00    -0.126 OA
ATOM     32  O   UNL     1      -1.081  -5.867  -9.548  0.00  0.00    -0.126 OA
ENDBRANCH  28  30
ENDBRANCH  22  24
ENDBRANCH  21  22
ENDBRANCH  11  21
TORSDOF 5
