REMARK  Name = ZINC31047617
REMARK  9 active torsions:
REMARK  status: ('A' for Active; 'I' for Inactive)
REMARK    1  A    between atoms: C_6  and  C_7
REMARK    2  A    between atoms: C_7  and  S_8
REMARK    3  A    between atoms: S_8  and  C_9
REMARK    4  A    between atoms: C_9  and  C_10
REMARK    5  A    between atoms: C_10  and  N_11
REMARK    6  A    between atoms: C_12  and  C_14
REMARK    7  A    between atoms: N_19  and  C_21
REMARK    8  A    between atoms: C_21  and  C_22
REMARK    9  A    between atoms: C_24  and  C_27
REMARK                            x       y       z     vdW  Elec       q    Type
REMARK                         _______ _______ _______ _____ _____    ______ ____
ROOT
ATOM      1  C   UNL     1       9.605  -4.008  -3.848  0.00  0.00    +0.058 C 
ATOM      2  C   UNL     1      10.608  -3.136  -3.087  0.00  0.00    +0.009 C 
ATOM      3  C   UNL     1      11.954  -3.863  -3.015  0.00  0.00    -0.018 C 
ATOM      4  C   UNL     1      12.437  -4.174  -4.433  0.00  0.00    -0.078 C 
ATOM      5  N   UNL     1      11.444  -5.012  -5.118  0.00  0.00    +0.386 N 
ATOM      6  C   UNL     1      10.157  -4.315  -5.242  0.00  0.00    -0.065 C 
ATOM      7  H   UNL     1      11.282  -5.909  -4.503  0.00  0.00    -0.081 HD
ENDROOT
BRANCH   1   9
ATOM      8  N   UNL     1       7.623  -2.898  -2.869  0.00  0.00    -0.314 N 
ATOM      9  C   UNL     1       8.295  -3.275  -3.975  0.00  0.00    +0.214 C 
ATOM     10  O   UNL     1       7.846  -3.023  -5.073  0.00  0.00    -0.276 OA
ATOM     11  H   UNL     1       8.031  -3.126  -1.874  0.00  0.00    +0.149 HD
BRANCH   8  12
ATOM     12  C   UNL     1       6.349  -2.185  -2.994  0.00  0.00    +0.115 C 
BRANCH  12  13
ATOM     13  C   UNL     1       5.800  -1.877  -1.599  0.00  0.00    +0.088 C 
BRANCH  13  14
ATOM     14  S   UNL     1       4.223  -0.994  -1.753  0.00  0.00    -0.155 S 
BRANCH  14  15
ATOM     15  C   UNL     1       3.711  -0.707  -0.037  0.00  0.00    +0.104 C 
BRANCH  15  21
ATOM     16  C   UNL     1       1.208  -0.678  -0.013  0.00  0.00    +0.007 A 
ATOM     17  C   UNL     1       0.002  -0.004   0.002  0.00  0.00    +0.038 A 
ATOM     18  C   UNL     1      -0.017   1.380   0.010  0.00  0.00    +0.123 A 
ATOM     19  C   UNL     1       1.173   2.088   0.002  0.00  0.00    +0.038 A 
ATOM     20  C   UNL     1       2.379   1.412  -0.013  0.00  0.00    +0.007 A 
ATOM     21  C   UNL     1       2.396   0.029  -0.021  0.00  0.00    -0.037 A 
ATOM     22  F   UNL     1      -1.195   2.040   0.019  0.00  0.00    -0.205 F 
ENDBRANCH  15  21
ENDBRANCH  14  15
ENDBRANCH  13  14
ENDBRANCH  12  13
ENDBRANCH   8  12
ENDBRANCH   1   9
BRANCH   5  23
ATOM     23  C   UNL     1      11.937  -5.445  -6.432  0.00  0.00    +0.022 C 
BRANCH  23  24
ATOM     24  C   UNL     1      13.120  -6.360  -6.248  0.00  0.00    +0.211 A 
ATOM     25  N   UNL     1      13.084  -7.663  -6.122  0.00  0.00    -0.193 NA
ATOM     26  C   UNL     1      14.371  -8.051  -5.983  0.00  0.00    +0.202 A 
ATOM     27  N   UNL     1      15.107  -6.971  -6.032  0.00  0.00    -0.056 NA
ATOM     28  O   UNL     1      14.405  -5.995  -6.189  0.00  0.00    -0.340 OA
BRANCH  26  29
ATOM     29  C   UNL     1      14.859  -9.441  -5.806  0.00  0.00    +0.023 A 
ATOM     30  C   UNL     1      13.953 -10.500  -5.766  0.00  0.00    +0.013 A 
ATOM     31  C   UNL     1      14.411 -11.792  -5.609  0.00  0.00    +0.021 A 
ATOM     32  C   UNL     1      15.768 -12.036  -5.478  0.00  0.00    +0.041 A 
ATOM     33  C   UNL     1      16.671 -10.987  -5.511  0.00  0.00    +0.021 A 
ATOM     34  C   UNL     1      16.223  -9.693  -5.674  0.00  0.00    +0.013 A 
ATOM     35 CL   UNL     1      16.338 -13.663  -5.272  0.00  0.00    -0.084 Cl
ENDBRANCH  26  29
ENDBRANCH  23  24
ENDBRANCH   5  23
TORSDOF 9
