REMARK  Name = ZINC08462425
REMARK  6 active torsions:
REMARK  status: ('A' for Active; 'I' for Inactive)
REMARK    1  A    between atoms: C_1  and  C_2
REMARK    2  A    between atoms: C_2  and  O_3
REMARK    3  A    between atoms: O_3  and  C_4
REMARK    4  A    between atoms: C_9  and  C_10
REMARK    5  A    between atoms: C_15  and  C_19
REMARK    6  A    between atoms: C_15  and  C_20
REMARK                            x       y       z     vdW  Elec       q    Type
REMARK                         _______ _______ _______ _____ _____    ______ ____
ROOT
ATOM      1  C   UNL     1       2.055  -1.434   3.442  0.00  0.00    +0.093 C 
ATOM      2  C   UNL     1       3.558  -1.644   3.455  0.00  0.00    +0.028 C 
ATOM      3  C   UNL     1       4.148  -2.031   4.623  0.00  0.00    +0.050 C 
ATOM      4  C   UNL     1       5.643  -2.245   4.675  0.00  0.00    +0.062 C 
ATOM      5  C   UNL     1       6.143  -2.716   3.308  0.00  0.00    -0.023 C 
ATOM      6  C   UNL     1       5.784  -1.659   2.259  0.00  0.00    +0.086 C 
ATOM      7  C   UNL     1       4.293  -1.439   2.283  0.00  0.00    +0.162 C 
ATOM      8  O   UNL     1       3.723  -1.080   1.272  0.00  0.00    -0.292 OA
ATOM      9  C   UNL     1       7.661  -2.899   3.353  0.00  0.00    +0.011 C 
ATOM     10  C   UNL     1       5.474  -4.044   2.947  0.00  0.00    +0.011 C 
ATOM     11  N   UNL     1       3.441  -2.227   5.733  0.00  0.00    -0.251 NA
ATOM     12  C   UNL     1       2.142  -2.078   5.860  0.00  0.00    +0.080 C 
ATOM     13  C   UNL     1       1.347  -1.682   4.759  0.00  0.00    +0.038 C 
ATOM     14  C   UNL     1       0.050  -1.603   5.133  0.00  0.00    +0.193 C 
ATOM     15  C   UNL     1      -0.062  -1.961   6.565  0.00  0.00    +0.031 A 
ATOM     16  C   UNL     1       1.227  -2.253   7.021  0.00  0.00    +0.012 A 
ATOM     17  C   UNL     1       1.425  -2.623   8.338  0.00  0.00    +0.011 A 
ATOM     18  C   UNL     1       0.340  -2.697   9.205  0.00  0.00    +0.001 A 
ATOM     19  C   UNL     1      -0.931  -2.404   8.757  0.00  0.00    +0.001 A 
ATOM     20  C   UNL     1      -1.133  -2.042   7.441  0.00  0.00    +0.012 A 
ATOM     21  O   UNL     1      -0.979  -1.252   4.329  0.00  0.00    -0.287 OA
ENDROOT
BRANCH   1  27
ATOM     22  C   UNL     1       0.802  -1.824   1.306  0.00  0.00    +0.125 A 
ATOM     23  C   UNL     1       0.260  -2.673   0.351  0.00  0.00    +0.046 A 
ATOM     24  C   UNL     1       0.372  -4.041   0.501  0.00  0.00    +0.004 A 
ATOM     25  C   UNL     1       1.024  -4.566   1.602  0.00  0.00    +0.001 A 
ATOM     26  C   UNL     1       1.565  -3.723   2.555  0.00  0.00    +0.008 A 
ATOM     27  C   UNL     1       1.460  -2.353   2.406  0.00  0.00    +0.006 A 
BRANCH  22  28
ATOM     28  O   UNL     1       0.693  -0.477   1.160  0.00  0.00    -0.492 OA
BRANCH  28  30
ATOM     29  C   UNL     1      -0.019   1.526   0.010  0.00  0.00    +0.048 C 
ATOM     30  C   UNL     1       0.002  -0.004   0.002  0.00  0.00    +0.225 C 
ENDBRANCH  28  30
ENDBRANCH  22  28
ENDBRANCH   1  27
TORSDOF 3
