REMARK  Name = ZINC67218263
REMARK  10 active torsions:
REMARK  status: ('A' for Active; 'I' for Inactive)
REMARK    1  A    between atoms: C_1  and  C_2
REMARK    2  A    between atoms: C_2  and  C_4
REMARK    3  A    between atoms: C_2  and  N_13
REMARK    4  A    between atoms: C_4  and  C_5
REMARK    5  A    between atoms: C_5  and  C_6
REMARK    6  A    between atoms: N_13  and  C_14
REMARK    7  A    between atoms: C_14  and  C_15
REMARK    8  A    between atoms: C_18  and  O_21
REMARK    9  A    between atoms: O_21  and  C_22
REMARK   10  A    between atoms: C_22  and  C_23
REMARK                            x       y       z     vdW  Elec       q    Type
REMARK                         _______ _______ _______ _____ _____    ______ ____
ROOT
ATOM      1  N   UNL     1       0.713  -0.491   1.192  0.00  0.00    +0.383 N 
ATOM      2  H   UNL     1       0.798  -1.495   1.145  0.00  0.00    -0.085 HD
ATOM      3  H   UNL     1       1.632  -0.076   1.228  0.00  0.00    -0.085 HD
ENDROOT
BRANCH   1   5
ATOM      4  C   UNL     1      -0.019   1.526   0.010  0.00  0.00    -0.014 C 
ATOM      5  C   UNL     1       0.002  -0.004   0.002  0.00  0.00    -0.074 C 
BRANCH   5   6
ATOM      6  C   UNL     1       0.718  -0.497  -1.257  0.00  0.00    -0.011 C 
BRANCH   6   7
ATOM      7  C   UNL     1       0.630  -2.023  -1.329  0.00  0.00    +0.033 C 
BRANCH   7   8
ATOM      8  C   UNL     1       1.336  -2.509  -2.568  0.00  0.00    -0.047 A 
ATOM      9  C   UNL     1       0.638  -2.639  -3.755  0.00  0.00    +0.005 A 
ATOM     10  C   UNL     1       1.284  -3.084  -4.892  0.00  0.00    +0.015 A 
ATOM     11  C   UNL     1       2.630  -3.400  -4.844  0.00  0.00    +0.018 A 
ATOM     12  C   UNL     1       3.328  -3.270  -3.656  0.00  0.00    +0.015 A 
ATOM     13  C   UNL     1       2.682  -2.820  -2.521  0.00  0.00    +0.005 A 
ATOM     14 BR   UNL     1       3.515  -4.010  -6.399  0.00  0.00    -0.050 Br
ENDBRANCH   7   8
ENDBRANCH   6   7
ENDBRANCH   5   6
ENDBRANCH   1   5
BRANCH   1  15
ATOM     15  C   UNL     1      -0.040  -0.119   2.398  0.00  0.00    -0.046 C 
BRANCH  15  16
ATOM     16  C   UNL     1       0.689  -0.618   3.619  0.00  0.00    -0.064 A 
ATOM     17  C   UNL     1       0.421  -1.881   4.114  0.00  0.00    +0.005 A 
ATOM     18  C   UNL     1       1.087  -2.340   5.234  0.00  0.00    +0.046 A 
ATOM     19  C   UNL     1       2.027  -1.534   5.860  0.00  0.00    +0.121 A 
ATOM     20  C   UNL     1       2.294  -0.268   5.361  0.00  0.00    +0.046 A 
ATOM     21  C   UNL     1       1.629   0.185   4.238  0.00  0.00    +0.005 A 
BRANCH  19  22
ATOM     22  O   UNL     1       2.683  -1.984   6.962  0.00  0.00    -0.483 OA
BRANCH  22  23
ATOM     23  C   UNL     1       3.637  -1.100   7.555  0.00  0.00    +0.324 C 
BRANCH  23  24
ATOM     24  C   UNL     1       4.260  -1.765   8.755  0.00  0.00    +0.248 C 
ATOM     25  O   UNL     1       3.920  -2.886   9.072  0.00  0.00    -0.272 OA
ATOM     26  N   UNL     1       5.194  -1.115   9.477  0.00  0.00    -0.327 N 
ATOM     27  H   UNL     1       5.465  -0.219   9.224  0.00  0.00    +0.145 HD
ATOM     28  H   UNL     1       5.594  -1.543  10.250  0.00  0.00    +0.145 HD
ENDBRANCH  23  24
ENDBRANCH  22  23
ENDBRANCH  19  22
ENDBRANCH  15  16
ENDBRANCH   1  15
TORSDOF 9
