REMARK  Name = ZINC10067869
REMARK  15 active torsions:
REMARK  status: ('A' for Active; 'I' for Inactive)
REMARK    1  A    between atoms: C_1  and  C_2
REMARK    2  A    between atoms: C_2  and  N_3
REMARK    3  A    between atoms: N_3  and  C_4
REMARK    4  A    between atoms: N_3  and  S_6
REMARK    5  A    between atoms: C_4  and  C_5
REMARK    6  A    between atoms: S_6  and  C_9
REMARK    7  A    between atoms: C_12  and  C_15
REMARK    8  A    between atoms: N_17  and  C_18
REMARK    9  A    between atoms: C_18  and  C_19
REMARK   10  A    between atoms: C_19  and  C_20
REMARK   11  A    between atoms: C_20  and  N_66
REMARK   12  A    between atoms: C_21  and  N_66
REMARK   13  A    between atoms: C_22  and  N_66
REMARK   14  A    between atoms: C_26  and  O_32
REMARK   15  A    between atoms: O_32  and  C_33
REMARK                            x       y       z     vdW  Elec       q    Type
REMARK                         _______ _______ _______ _____ _____    ______ ____
ROOT
ATOM      1  C   UNL     1       2.073  -4.900  -0.235  0.00  0.00    +0.252 C 
ATOM      2  O   UNL     1       0.946  -4.734   0.186  0.00  0.00    -0.270 OA
ATOM      3  N   UNL     1       2.958  -3.884  -0.212  0.00  0.00    -0.246 N 
ATOM      4  C   UNL     1       2.549  -2.618   0.173  0.00  0.00    +0.168 A 
ATOM      5  N   UNL     1       1.356  -2.216   0.545  0.00  0.00    -0.221 NA
ATOM      6  C   UNL     1       1.098  -0.937   0.897  0.00  0.00    +0.122 A 
ATOM      7  C   UNL     1      -0.136  -0.376   1.315  0.00  0.00    +0.146 A 
ATOM      8  C   UNL     1      -0.225   0.957   1.640  0.00  0.00    +0.048 A 
ATOM      9  C   UNL     1       0.880   1.794   1.571  0.00  0.00    +0.005 A 
ATOM     10  C   UNL     1       2.097   1.278   1.167  0.00  0.00    +0.017 A 
ATOM     11  C   UNL     1       2.197  -0.052   0.840  0.00  0.00    +0.044 A 
ATOM     12  S   UNL     1       3.510  -1.115   0.289  0.00  0.00    -0.052 S 
ENDROOT
BRANCH   1  16
ATOM     13  C   UNL     1       3.226  -8.683  -1.783  0.00  0.00    +0.106 A 
ATOM     14  C   UNL     1       2.034  -8.108  -2.187  0.00  0.00    +0.029 A 
ATOM     15  C   UNL     1       1.653  -6.880  -1.688  0.00  0.00    +0.015 A 
ATOM     16  C   UNL     1       2.474  -6.217  -0.774  0.00  0.00    +0.037 A 
ATOM     17  C   UNL     1       3.679  -6.800  -0.376  0.00  0.00    +0.015 A 
ATOM     18  C   UNL     1       4.044  -8.031  -0.878  0.00  0.00    +0.029 A 
BRANCH  13  19
ATOM     19  S   UNL     1       3.704 -10.253  -2.425  0.00  0.00    +0.061 S 
ATOM     20  O   UNL     1       4.596 -10.825  -1.478  0.00  0.00    -0.153 OA
ATOM     21  O   UNL     1       2.509 -10.905  -2.836  0.00  0.00    -0.153 OA
BRANCH  19  22
ATOM     22  N   UNL     1       4.586  -9.973  -3.798  0.00  0.00    -0.177 NA
BRANCH  22  24
ATOM     23  C   UNL     1       6.721 -11.150  -3.988  0.00  0.00    +0.022 C 
ATOM     24  C   UNL     1       6.039  -9.808  -3.714  0.00  0.00    +0.106 C 
ENDBRANCH  22  24
BRANCH  22  25
ATOM     25  C   UNL     1       3.913  -9.890  -5.097  0.00  0.00    +0.106 C 
ATOM     26  C   UNL     1       3.619  -8.425  -5.426  0.00  0.00    +0.022 C 
ENDBRANCH  22  25
ENDBRANCH  19  22
ENDBRANCH  13  19
ENDBRANCH   1  16
BRANCH   7  27
ATOM     27  O   UNL     1      -1.240  -1.164   1.395  0.00  0.00    -0.493 OA
ATOM     28  C   UNL     1      -2.453  -0.539   1.823  0.00  0.00    +0.277 C 
ENDBRANCH   7  27
BRANCH   3  29
ATOM     29  C   UNL     1       4.353  -4.118  -0.593  0.00  0.00    +0.114 C 
BRANCH  29  30
ATOM     30  C   UNL     1       5.202  -4.300   0.666  0.00  0.00    +0.001 C 
BRANCH  30  31
ATOM     31  C   UNL     1       6.629  -4.685   0.268  0.00  0.00    -0.078 C 
BRANCH  31  34
ATOM     32  C   UNL     1       8.747  -5.456   1.153  0.00  0.00    -0.097 C 
ATOM     33  C   UNL     1       7.611  -3.585   2.189  0.00  0.00    -0.097 C 
ATOM     34  N   UNL     1       7.430  -4.878   1.495  0.00  0.00    +0.376 N 
ATOM     35  H   UNL     1       6.934  -5.525   2.119  0.00  0.00    -0.083 HD
ENDBRANCH  31  34
ENDBRANCH  30  31
ENDBRANCH  29  30
ENDBRANCH   3  29
TORSDOF 10
