REMARK  Name = ZINC39867103
REMARK  7 active torsions:
REMARK  status: ('A' for Active; 'I' for Inactive)
REMARK    1  A    between atoms: C_4  and  N_7
REMARK    2  A    between atoms: N_7  and  N_8
REMARK    3  A    between atoms: C_9  and  C_11
REMARK    4  A    between atoms: C_11  and  C_12
REMARK    5  A    between atoms: C_12  and  C_13
REMARK    6  A    between atoms: C_13  and  C_14
REMARK    7  A    between atoms: C_22  and  C_24
REMARK                            x       y       z     vdW  Elec       q    Type
REMARK                         _______ _______ _______ _____ _____    ______ ____
ROOT
ATOM      1  C   UNL     1       7.740  -6.712  -0.113  0.00  0.00    -0.013 A 
ATOM      2  C   UNL     1       8.577  -6.997   1.052  0.00  0.00    +0.003 A 
ATOM      3  C   UNL     1       8.368  -6.930   2.432  0.00  0.00    +0.010 A 
ATOM      4  C   UNL     1       9.377  -7.273   3.288  0.00  0.00    +0.001 A 
ATOM      5  C   UNL     1      10.608  -7.686   2.797  0.00  0.00    +0.002 A 
ATOM      6  C   UNL     1      10.836  -7.759   1.440  0.00  0.00    +0.026 A 
ATOM      7  C   UNL     1       9.824  -7.416   0.549  0.00  0.00    +0.047 A 
ATOM      8  N   UNL     1       9.747  -7.387  -0.825  0.00  0.00    -0.353 N 
ATOM      9  C   UNL     1       8.493  -6.970  -1.212  0.00  0.00    +0.069 A 
ATOM     10  H   UNL     1      10.466  -7.627  -1.429  0.00  0.00    +0.166 HD
ENDROOT
BRANCH   9  11
ATOM     11  C   UNL     1       8.038  -6.822  -2.610  0.00  0.00    +0.088 A 
ATOM     12  C   UNL     1       8.989  -6.604  -3.623  0.00  0.00    +0.030 A 
ATOM     13  C   UNL     1       8.582  -6.466  -4.915  0.00  0.00    +0.012 A 
ATOM     14  C   UNL     1       7.202  -6.549  -5.195  0.00  0.00    +0.000 A 
ATOM     15  C   UNL     1       6.716  -6.416  -6.505  0.00  0.00    +0.010 A 
ATOM     16  C   UNL     1       5.377  -6.501  -6.738  0.00  0.00    +0.001 A 
ATOM     17  C   UNL     1       4.481  -6.719  -5.694  0.00  0.00    +0.002 A 
ATOM     18  C   UNL     1       4.917  -6.851  -4.411  0.00  0.00    +0.028 A 
ATOM     19  C   UNL     1       6.293  -6.770  -4.130  0.00  0.00    +0.072 A 
ATOM     20  N   UNL     1       6.748  -6.902  -2.881  0.00  0.00    -0.245 NA
ENDBRANCH   9  11
BRANCH   1  21
ATOM     21  C   UNL     1       6.312  -6.231  -0.095  0.00  0.00    +0.038 C 
BRANCH  21  22
ATOM     22  C   UNL     1       6.290  -4.702  -0.087  0.00  0.00    +0.014 C 
BRANCH  22  23
ATOM     23  C   UNL     1       4.840  -4.213  -0.069  0.00  0.00    +0.097 C 
BRANCH  23  25
ATOM     24  N   UNL     1       3.640  -2.050  -0.045  0.00  0.00    -0.237 N 
ATOM     25  C   UNL     1       4.817  -2.706  -0.061  0.00  0.00    +0.229 C 
ATOM     26  O   UNL     1       5.859  -2.084  -0.068  0.00  0.00    -0.274 OA
ATOM     27  H   UNL     1       2.808  -2.547  -0.039  0.00  0.00    +0.173 HD
BRANCH  24  28
ATOM     28  N   UNL     1       3.620  -0.649  -0.037  0.00  0.00    -0.264 N 
ATOM     29  H   UNL     1       4.452  -0.152  -0.043  0.00  0.00    +0.170 HD
BRANCH  28  33
ATOM     30  C   UNL     1      -0.017   1.379   0.010  0.00  0.00    +0.000 A 
ATOM     31  C   UNL     1       1.169   2.089   0.002  0.00  0.00    +0.002 A 
ATOM     32  C   UNL     1       2.377   1.420  -0.013  0.00  0.00    +0.024 A 
ATOM     33  C   UNL     1       2.400   0.031  -0.021  0.00  0.00    +0.044 A 
ATOM     34  C   UNL     1       1.206  -0.680  -0.013  0.00  0.00    +0.024 A 
ATOM     35  C   UNL     1       0.002  -0.004   0.002  0.00  0.00    +0.002 A 
ENDBRANCH  28  33
ENDBRANCH  24  28
ENDBRANCH  23  25
ENDBRANCH  22  23
ENDBRANCH  21  22
ENDBRANCH   1  21
TORSDOF 7
