REMARK  Name = ZINC05020846
REMARK  6 active torsions:
REMARK  status: ('A' for Active; 'I' for Inactive)
REMARK    1  A    between atoms: C_4  and  C_8
REMARK    2  A    between atoms: C_9  and  C_10
REMARK    3  A    between atoms: C_9  and  C_12
REMARK    4  A    between atoms: N_14  and  C_15
REMARK    5  A    between atoms: C_18  and  N_22
REMARK    6  A    between atoms: C_20  and  O_21
REMARK                            x       y       z     vdW  Elec       q    Type
REMARK                         _______ _______ _______ _____ _____    ______ ____
ROOT
ATOM      1  C   UNL     1      -4.958   5.324   0.159  0.00  0.00    +0.259 C 
ATOM      2  O   UNL     1      -3.913   5.947   0.157  0.00  0.00    -0.269 OA
ATOM      3  N   UNL     1      -4.941   3.981   0.049  0.00  0.00    -0.278 N 
ATOM      4  H   UNL     1      -5.775   3.489  -0.015  0.00  0.00    +0.155 HD
ENDROOT
BRANCH   3   5
ATOM      5  C   UNL     1      -3.720   3.295   0.028  0.00  0.00    +0.076 A 
ATOM      6  C   UNL     1      -2.611   3.867  -0.579  0.00  0.00    +0.029 A 
ATOM      7  C   UNL     1      -1.407   3.191  -0.594  0.00  0.00    +0.035 A 
ATOM      8  C   UNL     1      -1.305   1.939  -0.015  0.00  0.00    +0.130 A 
ATOM      9  C   UNL     1      -2.406   1.362   0.591  0.00  0.00    +0.080 A 
ATOM     10  C   UNL     1      -3.616   2.036   0.615  0.00  0.00    +0.140 A 
BRANCH   8  11
ATOM     11  N   UNL     1      -0.013   1.217  -0.039  0.00  0.00    +0.057 N 
ATOM     12  O   UNL     1       0.079   0.117   0.475  0.00  0.00    -0.126 OA
ATOM     13  O   UNL     1       0.956   1.721  -0.577  0.00  0.00    -0.126 OA
ENDBRANCH   8  11
BRANCH  10  14
ATOM     14  O   UNL     1      -4.700   1.470   1.211  0.00  0.00    -0.505 OA
ATOM     15  H   UNL     1      -4.788   1.683   2.150  0.00  0.00    +0.292 HD
ENDBRANCH  10  14
ENDBRANCH   3   5
BRANCH   1  17
ATOM     16  C   UNL     1      -6.256   7.409   0.392  0.00  0.00    +0.035 C 
ATOM     17  C   UNL     1      -6.239   6.037   0.280  0.00  0.00    +0.114 C 
BRANCH  16  21
ATOM     18  C   UNL     1      -9.948   9.462   0.741  0.00  0.00    +0.003 A 
ATOM     19  C   UNL     1      -8.926   9.727   1.636  0.00  0.00    +0.020 A 
ATOM     20  C   UNL     1      -7.721   9.064   1.531  0.00  0.00    +0.050 A 
ATOM     21  C   UNL     1      -7.533   8.119   0.512  0.00  0.00    +0.013 A 
ATOM     22  C   UNL     1      -8.572   7.861  -0.393  0.00  0.00    +0.050 A 
ATOM     23  C   UNL     1      -9.772   8.530  -0.268  0.00  0.00    +0.020 A 
ATOM     24 CL   UNL     1      -8.352   6.698  -1.663  0.00  0.00    -0.083 Cl
ATOM     25 CL   UNL     1      -6.441   9.400   2.655  0.00  0.00    -0.083 Cl
ENDBRANCH  16  21
BRANCH  17  26
ATOM     26  C   UNL     1      -7.469   5.303   0.281  0.00  0.00    +0.104 C 
ATOM     27  N   UNL     1      -8.445   4.721   0.283  0.00  0.00    -0.191 NA
ENDBRANCH  17  26
ENDBRANCH   1  17
TORSDOF 6
