REMARK  Name = ZINC20709685
REMARK  7 active torsions:
REMARK  status: ('A' for Active; 'I' for Inactive)
REMARK    1  A    between atoms: C_4  and  N_7
REMARK    2  A    between atoms: N_7  and  C_8
REMARK    3  A    between atoms: C_11  and  N_14
REMARK    4  A    between atoms: C_15  and  C_17
REMARK    5  A    between atoms: C_24  and  C_33
REMARK    6  A    between atoms: C_35  and  N_40
REMARK    7  A    between atoms: C_38  and  O_39
REMARK                            x       y       z     vdW  Elec       q    Type
REMARK                         _______ _______ _______ _____ _____    ______ ____
ROOT
ATOM      1  C   UNL     1      -2.846   6.468  -1.144  0.00  0.00    +0.058 A 
ATOM      2  C   UNL     1      -3.922   6.915  -0.376  0.00  0.00    +0.015 A 
ATOM      3  C   UNL     1      -4.082   6.448   0.910  0.00  0.00    +0.001 A 
ATOM      4  C   UNL     1      -3.183   5.539   1.438  0.00  0.00    +0.006 A 
ATOM      5  C   UNL     1      -2.108   5.081   0.690  0.00  0.00    -0.019 A 
ATOM      6  C   UNL     1      -1.931   5.544  -0.603  0.00  0.00    +0.044 A 
ATOM      7  N   UNL     1      -0.872   5.135  -1.398  0.00  0.00    -0.336 N 
ATOM      8  C   UNL     1      -0.376   3.792  -1.021  0.00  0.00    +0.108 C 
ATOM      9  C   UNL     1       0.061   3.829   0.445  0.00  0.00    +0.029 C 
ATOM     10  C   UNL     1      -1.177   4.092   1.329  0.00  0.00    +0.049 C 
ATOM     11  C   UNL     1      -1.830   2.735   1.458  0.00  0.00    -0.023 C 
ATOM     12  C   UNL     1      -0.965   1.784   1.210  0.00  0.00    -0.030 C 
ATOM     13  C   UNL     1       0.392   2.373   0.878  0.00  0.00    +0.033 C 
ATOM     14  H   UNL     1      -0.400   5.683  -2.227  0.00  0.00    +0.147 HD
ENDROOT
BRANCH   8  15
ATOM     15  C   UNL     1      -1.461   2.761  -1.196  0.00  0.00    +0.017 A 
ATOM     16  C   UNL     1      -2.783   3.107  -0.993  0.00  0.00    +0.041 A 
ATOM     17  C   UNL     1      -3.779   2.163  -1.159  0.00  0.00    +0.127 A 
ATOM     18  C   UNL     1      -3.454   0.867  -1.518  0.00  0.00    +0.036 A 
ATOM     19  C   UNL     1      -2.134   0.515  -1.717  0.00  0.00    +0.048 A 
ATOM     20  C   UNL     1      -1.132   1.462  -1.556  0.00  0.00    +0.122 A 
BRANCH  17  21
ATOM     21  N   UNL     1      -5.195   2.537  -0.947  0.00  0.00    +0.056 N 
ATOM     22  O   UNL     1      -6.073   1.705  -1.087  0.00  0.00    -0.126 OA
ATOM     23  O   UNL     1      -5.483   3.678  -0.631  0.00  0.00    -0.126 OA
ENDBRANCH  17  21
BRANCH  20  24
ATOM     24  O   UNL     1       0.168   1.119  -1.752  0.00  0.00    -0.506 OA
ATOM     25  H   UNL     1       0.427   0.088  -2.037  0.00  0.00    +0.292 HD
ENDBRANCH  20  24
ENDBRANCH   8  15
BRANCH   1  27
ATOM     26  N   UNL     1      -3.614   7.737  -3.087  0.00  0.00    -0.281 N 
ATOM     27  C   UNL     1      -2.667   6.963  -2.521  0.00  0.00    +0.250 C 
ATOM     28  O   UNL     1      -1.665   6.672  -3.146  0.00  0.00    -0.270 OA
ATOM     29  H   UNL     1      -4.482   8.065  -2.496  0.00  0.00    +0.155 HD
BRANCH  26  33
ATOM     30  C   UNL     1      -3.252   8.890  -7.078  0.00  0.00    +0.031 A 
ATOM     31  C   UNL     1      -4.500   8.576  -6.556  0.00  0.00    +0.025 A 
ATOM     32  C   UNL     1      -4.620   8.194  -5.235  0.00  0.00    +0.025 A 
ATOM     33  C   UNL     1      -3.492   8.124  -4.428  0.00  0.00    +0.034 A 
ATOM     34  C   UNL     1      -2.244   8.443  -4.948  0.00  0.00    +0.025 A 
ATOM     35  C   UNL     1      -2.124   8.820  -6.270  0.00  0.00    +0.025 A 
BRANCH  30  36
ATOM     36  N   UNL     1      -3.130   9.278  -8.417  0.00  0.00    -0.314 N 
ATOM     37  H   UNL     1      -3.987   9.174  -9.099  0.00  0.00    +0.152 HD
BRANCH  36  41
ATOM     38  C   UNL     1       0.473  10.825  -9.819  0.00  0.00    +0.000 A 
ATOM     39  C   UNL     1      -0.249   9.941 -10.600  0.00  0.00    +0.002 A 
ATOM     40  C   UNL     1      -1.444   9.426 -10.138  0.00  0.00    +0.023 A 
ATOM     41  C   UNL     1      -1.921   9.796  -8.887  0.00  0.00    +0.031 A 
ATOM     42  C   UNL     1      -1.196  10.689  -8.107  0.00  0.00    +0.023 A 
ATOM     43  C   UNL     1       0.001  11.196  -8.573  0.00  0.00    +0.002 A 
ENDBRANCH  36  41
ENDBRANCH  30  36
ENDBRANCH  26  33
ENDBRANCH   1  27
TORSDOF 7
