REMARK  Name = ZINC43746635
REMARK  15 active torsions:
REMARK  status: ('A' for Active; 'I' for Inactive)
REMARK    1  A    between atoms: C_1  and  C_2
REMARK    2  A    between atoms: C_2  and  C_3
REMARK    3  A    between atoms: C_3  and  C_5
REMARK    4  A    between atoms: C_3  and  N_6
REMARK    5  A    between atoms: C_7  and  C_9
REMARK    6  A    between atoms: C_9  and  C_10
REMARK    7  A    between atoms: C_10  and  C_11
REMARK    8  A    between atoms: C_11  and  O_13
REMARK    9  A    between atoms: O_13  and  C_14
REMARK   10  A    between atoms: C_14  and  C_15
REMARK   11  A    between atoms: C_15  and  C_17
REMARK   12  A    between atoms: C_17  and  O_42
REMARK   13  A    between atoms: C_22  and  C_41
REMARK   14  A    between atoms: C_24  and  O_40
REMARK   15  A    between atoms: C_38  and  C_39
REMARK                            x       y       z     vdW  Elec       q    Type
REMARK                         _______ _______ _______ _____ _____    ______ ____
ROOT
ATOM      1  C   UNL     1     -10.648   1.792  -5.818  0.00  0.00    +0.133 C 
ATOM      2  C   UNL     1     -10.964   3.300  -5.822  0.00  0.00    +0.043 C 
ATOM      3  C   UNL     1     -12.508   3.420  -5.832  0.00  0.00    +0.008 C 
ATOM      4  C   UNL     1     -12.956   2.106  -5.170  0.00  0.00    +0.002 C 
ATOM      5  C   UNL     1     -12.016   1.056  -5.783  0.00  0.00    +0.009 C 
ATOM      6  C   UNL     1     -12.413   0.793  -7.232  0.00  0.00    +0.041 C 
ATOM      7  C   UNL     1     -13.886   0.380  -7.342  0.00  0.00    +0.119 C 
ATOM      8  C   UNL     1     -14.778   1.514  -6.842  0.00  0.00    +0.031 C 
ATOM      9  C   UNL     1     -14.423   1.808  -5.381  0.00  0.00    -0.001 C 
ATOM     10  C   UNL     1     -15.245   2.975  -4.829  0.00  0.00    +0.008 C 
ATOM     11  C   UNL     1     -16.736   2.611  -4.853  0.00  0.00    +0.032 C 
ATOM     12  C   UNL     1     -17.059   2.287  -6.302  0.00  0.00    -0.060 C 
ATOM     13  C   UNL     1     -18.021   2.977  -6.902  0.00  0.00    +0.046 C 
ATOM     14  C   UNL     1     -18.323   2.743  -8.320  0.00  0.00    +0.156 C 
ATOM     15  O   UNL     1     -19.371   3.076  -8.827  0.00  0.00    -0.293 OA
ATOM     16  C   UNL     1     -17.214   2.085  -9.123  0.00  0.00    +0.080 C 
ATOM     17  C   UNL     1     -16.762   0.854  -8.339  0.00  0.00    +0.019 C 
ATOM     18  C   UNL     1     -16.261   1.190  -6.957  0.00  0.00    -0.005 C 
ATOM     19  C   UNL     1     -16.534  -0.070  -6.126  0.00  0.00    +0.016 C 
ATOM     20  C   UNL     1     -11.949  -0.223  -4.949  0.00  0.00    +0.015 C 
ENDROOT
BRANCH   1  21
ATOM     21  C   UNL     1      -9.841   1.437  -4.596  0.00  0.00    +0.202 C 
ATOM     22  O   UNL     1      -9.969   2.078  -3.580  0.00  0.00    -0.291 OA
BRANCH  21  23
ATOM     23  C   UNL     1      -8.873   0.282  -4.641  0.00  0.00    +0.309 C 
BRANCH  23  24
ATOM     24  O   UNL     1      -8.233   0.147  -3.370  0.00  0.00    -0.457 OA
BRANCH  24  25
ATOM     25  C   UNL     1      -7.336  -0.843  -3.243  0.00  0.00    +0.308 C 
ATOM     26  O   UNL     1      -7.101  -1.570  -4.178  0.00  0.00    -0.251 OA
BRANCH  25  27
ATOM     27  C   UNL     1      -6.620  -1.047  -1.932  0.00  0.00    +0.130 C 
BRANCH  27  28
ATOM     28  C   UNL     1      -5.660  -2.231  -2.054  0.00  0.00    +0.107 C 
BRANCH  28  30
ATOM     29  N   UNL     1      -4.043  -3.429  -0.615  0.00  0.00    -0.313 N 
ATOM     30  C   UNL     1      -4.944  -2.435  -0.743  0.00  0.00    +0.214 C 
ATOM     31  O   UNL     1      -5.180  -1.705   0.196  0.00  0.00    -0.276 OA
ATOM     32  H   UNL     1      -3.854  -4.013  -1.366  0.00  0.00    +0.149 HD
BRANCH  29  33
ATOM     33  C   UNL     1      -3.348  -3.627   0.659  0.00  0.00    +0.070 C 
ATOM     34  C   UNL     1      -4.211  -4.489   1.583  0.00  0.00    +0.028 C 
BRANCH  33  36
ATOM     35  C   UNL     1      -1.101  -3.413  -0.412  0.00  0.00    +0.005 C 
ATOM     36  C   UNL     1      -2.012  -4.329   0.408  0.00  0.00    +0.018 C 
ENDBRANCH  33  36
ENDBRANCH  29  33
ENDBRANCH  28  30
ENDBRANCH  27  28
ENDBRANCH  25  27
ENDBRANCH  24  25
ENDBRANCH  23  24
ENDBRANCH  21  23
ENDBRANCH   1  21
BRANCH   7  37
ATOM     37  O   UNL     1     -14.115   0.108  -8.729  0.00  0.00    -0.391 OA
ATOM     38  H   UNL     1     -13.560  -0.599  -9.088  0.00  0.00    +0.210 HD
ENDBRANCH   7  37
BRANCH   1  39
ATOM     39  O   UNL     1      -9.925   1.438  -6.998  0.00  0.00    -0.380 OA
ATOM     40  H   UNL     1      -9.067   1.876  -7.080  0.00  0.00    +0.211 HD
ENDBRANCH   1  39
TORSDOF 11
