REMARK  Name = ZINC13189324
REMARK  10 active torsions:
REMARK  status: ('A' for Active; 'I' for Inactive)
REMARK    1  A    between atoms: C_1  and  C_2
REMARK    2  A    between atoms: C_5  and  N_9
REMARK    3  A    between atoms: C_10  and  C_12
REMARK    4  A    between atoms: C_12  and  S_13
REMARK    5  A    between atoms: S_13  and  C_14
REMARK    6  A    between atoms: C_15  and  C_35
REMARK    7  A    between atoms: C_16  and  C_26
REMARK    8  A    between atoms: C_29  and  O_34
REMARK    9  A    between atoms: C_30  and  O_32
REMARK   10  A    between atoms: O_32  and  C_33
REMARK                            x       y       z     vdW  Elec       q    Type
REMARK                         _______ _______ _______ _____ _____    ______ ____
ROOT
ATOM      1  C   UNL     1       0.595  -8.711   2.632  0.00  0.00    +0.080 C 
ATOM      2  C   UNL     1       0.713  -9.505   3.730  0.00  0.00    +0.069 C 
ATOM      3  C   UNL     1       0.850 -10.993   3.599  0.00  0.00    +0.097 C 
ATOM      4  C   UNL     1       0.410 -11.462   2.235  0.00  0.00    +0.024 C 
ATOM      5  C   UNL     1       0.301 -10.597   1.205  0.00  0.00    +0.016 C 
ATOM      6  N   UNL     1       0.585  -9.270   1.375  0.00  0.00    -0.311 N 
ATOM      7  C   UNL     1      -0.145 -11.063  -0.159  0.00  0.00    +0.051 C 
ATOM      8  C   UNL     1       0.298 -12.512  -0.377  0.00  0.00    +0.014 C 
ATOM      9  C   UNL     1      -0.307 -13.376   0.733  0.00  0.00    +0.080 C 
ATOM     10  C   UNL     1       0.118 -12.827   2.068  0.00  0.00    +0.162 C 
ATOM     11  O   UNL     1       0.212 -13.578   3.019  0.00  0.00    -0.292 OA
ATOM     12  H   UNL     1       0.783  -8.719   0.602  0.00  0.00    +0.152 HD
ENDROOT
BRANCH   3  13
ATOM     13  C   UNL     1       2.291 -11.378   3.811  0.00  0.00    -0.031 A 
ATOM     14  C   UNL     1       3.271 -10.867   2.979  0.00  0.00    +0.008 A 
ATOM     15  C   UNL     1       4.595 -11.217   3.170  0.00  0.00    +0.049 A 
ATOM     16  C   UNL     1       4.942 -12.081   4.196  0.00  0.00    +0.158 A 
ATOM     17  C   UNL     1       3.957 -12.594   5.033  0.00  0.00    +0.162 A 
ATOM     18  C   UNL     1       2.632 -12.236   4.840  0.00  0.00    +0.054 A 
BRANCH  17  19
ATOM     19  O   UNL     1       4.293 -13.442   6.041  0.00  0.00    -0.491 OA
ATOM     20  C   UNL     1       3.229 -13.930   6.861  0.00  0.00    +0.277 C 
ENDBRANCH  17  19
BRANCH  16  21
ATOM     21  O   UNL     1       6.244 -12.426   4.384  0.00  0.00    -0.503 OA
ATOM     22  H   UNL     1       6.725 -11.838   4.983  0.00  0.00    +0.292 HD
ENDBRANCH  16  21
ENDBRANCH   3  13
BRANCH   2  23
ATOM     23  C   UNL     1       0.708  -8.910   5.033  0.00  0.00    +0.098 C 
ATOM     24  N   UNL     1       0.704  -8.439   6.066  0.00  0.00    -0.191 NA
ENDBRANCH   2  23
BRANCH   1  25
ATOM     25  S   UNL     1       0.447  -6.965   2.820  0.00  0.00    -0.100 S 
BRANCH  25  26
ATOM     26  C   UNL     1       0.310  -6.351   1.119  0.00  0.00    +0.171 C 
BRANCH  26  28
ATOM     27  N   UNL     1       0.059  -4.170  -0.022  0.00  0.00    -0.285 N 
ATOM     28  C   UNL     1       0.176  -4.850   1.136  0.00  0.00    +0.227 C 
ATOM     29  O   UNL     1       0.174  -4.254   2.192  0.00  0.00    -0.275 OA
ATOM     30  H   UNL     1      -0.015  -4.651  -0.861  0.00  0.00    +0.155 HD
BRANCH  27  35
ATOM     31  C   UNL     1       0.008   1.503   0.012  0.00  0.00    +0.045 C 
ATOM     32  C   UNL     1       0.022  -0.004   0.003  0.00  0.00    -0.032 A 
ATOM     33  C   UNL     1       0.777  -0.693   0.934  0.00  0.00    +0.006 A 
ATOM     34  C   UNL     1       0.792  -2.074   0.928  0.00  0.00    +0.023 A 
ATOM     35  C   UNL     1       0.046  -2.771  -0.014  0.00  0.00    +0.035 A 
ATOM     36  C   UNL     1      -0.712  -2.078  -0.948  0.00  0.00    +0.043 A 
ATOM     37  C   UNL     1      -0.726  -0.695  -0.934  0.00  0.00    +0.046 A 
ATOM     38 CL   UNL     1      -1.678   0.174  -2.096  0.00  0.00    -0.083 Cl
ENDBRANCH  27  35
ENDBRANCH  26  28
ENDBRANCH  25  26
ENDBRANCH   1  25
TORSDOF 8
