REMARK  Name = ZINC39544110
REMARK  8 active torsions:
REMARK  status: ('A' for Active; 'I' for Inactive)
REMARK    1  A    between atoms: C_1  and  C_2
REMARK    2  A    between atoms: C_2  and  N_3
REMARK    3  A    between atoms: N_3  and  S_28
REMARK    4  A    between atoms: C_4  and  C_6
REMARK    5  A    between atoms: C_9  and  C_21
REMARK    6  A    between atoms: C_21  and  C_22
REMARK    7  A    between atoms: S_28  and  O_31
REMARK    8  A    between atoms: O_31  and  C_32
REMARK                            x       y       z     vdW  Elec       q    Type
REMARK                         _______ _______ _______ _____ _____    ______ ____
ROOT
ATOM      1  C   UNL     1      -3.208  -0.661  -0.492  0.00  0.00    +0.172 C 
ATOM      2  C   UNL     1      -4.066   0.305   0.356  0.00  0.00    +0.045 C 
ATOM      3  C   UNL     1      -5.271   0.535  -0.588  0.00  0.00    +0.057 C 
ATOM      4  C   UNL     1      -4.716   0.240  -1.961  0.00  0.00    +0.079 C 
ATOM      5  N   UNL     1      -5.305   0.594  -3.155  0.00  0.00    -0.304 N 
ATOM      6  C   UNL     1      -4.837  -0.023  -4.324  0.00  0.00    +0.037 A 
ATOM      7  C   UNL     1      -5.578   0.069  -5.495  0.00  0.00    +0.023 A 
ATOM      8  C   UNL     1      -5.124  -0.542  -6.647  0.00  0.00    +0.002 A 
ATOM      9  C   UNL     1      -3.932  -1.244  -6.632  0.00  0.00    +0.000 A 
ATOM     10  C   UNL     1      -3.193  -1.334  -5.468  0.00  0.00    +0.007 A 
ATOM     11  C   UNL     1      -3.639  -0.723  -4.309  0.00  0.00    -0.007 A 
ATOM     12  C   UNL     1      -2.810  -0.824  -3.057  0.00  0.00    +0.155 C 
ATOM     13  N   UNL     1      -3.594  -0.408  -1.887  0.00  0.00    -0.346 N 
ATOM     14  H   UNL     1      -6.021   1.249  -3.187  0.00  0.00    +0.153 HD
ENDROOT
BRANCH   1  16
ATOM     15  N   UNL     1      -1.001  -1.151   0.513  0.00  0.00    -0.142 N 
ATOM     16  C   UNL     1      -1.743  -0.367  -0.294  0.00  0.00    +0.259 C 
ATOM     17  O   UNL     1      -1.232   0.575  -0.862  0.00  0.00    -0.272 OA
BRANCH  15  18
ATOM     18  S   UNL     1      -1.718  -2.381   1.358  0.00  0.00    +0.212 S 
ATOM     19  O   UNL     1      -0.734  -2.887   2.250  0.00  0.00    -0.115 OA
ATOM     20  O   UNL     1      -2.972  -1.889   1.808  0.00  0.00    -0.115 OA
BRANCH  18  21
ATOM     21  O   UNL     1      -2.018  -3.495   0.365  0.00  0.00    -0.331 OA
BRANCH  21  22
ATOM     22  C   UNL     1      -0.915  -4.161  -0.069  0.00  0.00    +0.158 A 
ATOM     23  C   UNL     1      -0.207  -3.691  -1.165  0.00  0.00    +0.048 A 
ATOM     24  C   UNL     1       0.914  -4.369  -1.604  0.00  0.00    +0.004 A 
ATOM     25  C   UNL     1       1.329  -5.516  -0.952  0.00  0.00    +0.000 A 
ATOM     26  C   UNL     1       0.624  -5.986   0.140  0.00  0.00    +0.004 A 
ATOM     27  C   UNL     1      -0.494  -5.308   0.587  0.00  0.00    +0.048 A 
ENDBRANCH  21  22
ENDBRANCH  18  21
ENDBRANCH  15  18
BRANCH  15  29
ATOM     28  C   UNL     1       0.686   0.160   1.703  0.00  0.00    +0.026 C 
ATOM     29  C   UNL     1       0.439  -0.914   0.642  0.00  0.00    +0.134 C 
ENDBRANCH  15  29
ENDBRANCH   1  16
BRANCH   3  30
ATOM     30  C   UNL     1      -5.753   1.984  -0.500  0.00  0.00    +0.046 C 
BRANCH  30  31
ATOM     31  C   UNL     1      -6.233   2.270   0.899  0.00  0.00    -0.047 A 
ATOM     32  C   UNL     1      -7.525   1.942   1.267  0.00  0.00    +0.003 A 
ATOM     33  C   UNL     1      -7.965   2.205   2.550  0.00  0.00    +0.000 A 
ATOM     34  C   UNL     1      -7.114   2.794   3.466  0.00  0.00    +0.000 A 
ATOM     35  C   UNL     1      -5.822   3.121   3.099  0.00  0.00    +0.000 A 
ATOM     36  C   UNL     1      -5.380   2.855   1.817  0.00  0.00    +0.003 A 
ENDBRANCH  30  31
ENDBRANCH   3  30
TORSDOF 7
