REMARK  Name = ZINC06664689
REMARK  9 active torsions:
REMARK  status: ('A' for Active; 'I' for Inactive)
REMARK    1  A    between atoms: C_1  and  N_2
REMARK    2  A    between atoms: N_2  and  C_3
REMARK    3  A    between atoms: N_2  and  C_4
REMARK    4  A    between atoms: C_4  and  C_5
REMARK    5  A    between atoms: C_5  and  C_6
REMARK    6  A    between atoms: C_6  and  N_7
REMARK    7  A    between atoms: N_7  and  C_8
REMARK    8  A    between atoms: C_10  and  N_25
REMARK    9  A    between atoms: C_11  and  N_24
REMARK                            x       y       z     vdW  Elec       q    Type
REMARK                         _______ _______ _______ _____ _____    ______ ____
ROOT
ATOM      1  C   UNL     1      -5.503  -0.626  -2.739  0.00  0.00    +0.041 A 
ATOM      2  C   UNL     1      -6.117  -1.551  -1.895  0.00  0.00    +0.048 A 
ATOM      3  C   UNL     1      -7.431  -1.925  -2.104  0.00  0.00    +0.053 A 
ATOM      4  C   UNL     1      -8.167  -1.377  -3.173  0.00  0.00    +0.058 A 
ATOM      5  C   UNL     1      -7.564  -0.452  -4.024  0.00  0.00    +0.057 A 
ATOM      6  C   UNL     1      -6.220  -0.067  -3.804  0.00  0.00    +0.056 A 
ATOM      7  C   UNL     1      -5.589   0.912  -4.697  0.00  0.00    +0.196 C 
ATOM      8  O   UNL     1      -4.381   1.065  -4.687  0.00  0.00    -0.287 OA
ATOM      9  C   UNL     1      -6.436   1.711  -5.609  0.00  0.00    +0.033 A 
ATOM     10  C   UNL     1      -5.922   2.832  -6.253  0.00  0.00    +0.012 A 
ATOM     11  C   UNL     1      -6.729   3.567  -7.102  0.00  0.00    +0.001 A 
ATOM     12  C   UNL     1      -8.045   3.196  -7.317  0.00  0.00    +0.001 A 
ATOM     13  C   UNL     1      -8.572   2.084  -6.685  0.00  0.00    +0.012 A 
ATOM     14  C   UNL     1      -7.774   1.333  -5.827  0.00  0.00    +0.033 A 
ATOM     15  C   UNL     1      -8.315   0.134  -5.147  0.00  0.00    +0.196 C 
ATOM     16  O   UNL     1      -9.372  -0.353  -5.501  0.00  0.00    -0.287 OA
ENDROOT
BRANCH   3  17
ATOM     17  N   UNL     1      -8.029  -2.849  -1.254  0.00  0.00    -0.328 N 
ATOM     18  C   UNL     1      -8.026  -4.308  -1.436  0.00  0.00    +0.105 C 
ATOM     19  C   UNL     1      -8.831  -4.916  -0.267  0.00  0.00    +0.020 C 
ATOM     20  C   UNL     1      -9.720  -3.732   0.196  0.00  0.00    +0.020 C 
ATOM     21  C   UNL     1      -8.766  -2.527  -0.018  0.00  0.00    +0.105 C 
ENDBRANCH   3  17
BRANCH   4  22
ATOM     22  N   UNL     1      -9.484  -1.757  -3.378  0.00  0.00    -0.356 N 
ATOM     23  H   UNL     1     -10.069  -1.205  -3.920  0.00  0.00    +0.142 HD
ATOM     24  H   UNL     1      -9.820  -2.575  -2.980  0.00  0.00    +0.142 HD
ENDBRANCH   4  22
BRANCH   1  25
ATOM     25  N   UNL     1      -4.184  -0.258  -2.522  0.00  0.00    -0.343 N 
ATOM     26  H   UNL     1      -3.733   0.325  -3.152  0.00  0.00    +0.146 HD
BRANCH  25  27
ATOM     27  C   UNL     1      -3.472  -0.748  -1.339  0.00  0.00    +0.100 C 
BRANCH  27  28
ATOM     28  C   UNL     1      -2.045  -0.197  -1.337  0.00  0.00    -0.000 C 
BRANCH  28  29
ATOM     29  C   UNL     1      -1.302  -0.709  -0.102  0.00  0.00    -0.078 C 
BRANCH  29  31
ATOM     30  C   UNL     1       0.029   1.282   0.047  0.00  0.00    -0.097 C 
ATOM     31  N   UNL     1       0.069  -0.179  -0.101  0.00  0.00    +0.376 N 
ATOM     32  C   UNL     1       0.819  -0.765   1.018  0.00  0.00    -0.097 C 
ATOM     33  H   UNL     1       0.522  -0.418  -0.970  0.00  0.00    -0.083 HD
ENDBRANCH  29  31
ENDBRANCH  28  29
ENDBRANCH  27  28
ENDBRANCH  25  27
ENDBRANCH   1  25
TORSDOF 7
