REMARK  Name = ZINC16752678
REMARK  8 active torsions:
REMARK  status: ('A' for Active; 'I' for Inactive)
REMARK    1  A    between atoms: C_1  and  O_2
REMARK    2  A    between atoms: O_2  and  C_3
REMARK    3  A    between atoms: C_5  and  C_11
REMARK    4  A    between atoms: C_8  and  O_9
REMARK    5  A    between atoms: N_26  and  C_27
REMARK    6  A    between atoms: C_27  and  C_28
REMARK    7  A    between atoms: C_28  and  C_29
REMARK    8  A    between atoms: C_29  and  O_30
REMARK                            x       y       z     vdW  Elec       q    Type
REMARK                         _______ _______ _______ _____ _____    ______ ____
ROOT
ATOM      1  C   UNL     1       2.544  -2.799  -0.038  0.00  0.00    +0.145 C 
ATOM      2  C   UNL     1       2.850  -3.347   1.332  0.00  0.00    +0.072 A 
ATOM      3  C   UNL     1       3.053  -2.706   2.635  0.00  0.00    +0.199 A 
ATOM      4  O   UNL     1       2.986  -1.497   2.770  0.00  0.00    -0.287 OA
ATOM      5  C   UNL     1       3.342  -3.599   3.774  0.00  0.00    +0.064 A 
ATOM      6  C   UNL     1       3.550  -3.097   5.057  0.00  0.00    +0.015 A 
ATOM      7  C   UNL     1       3.815  -3.958   6.086  0.00  0.00    +0.001 A 
ATOM      8  C   UNL     1       3.876  -5.326   5.857  0.00  0.00    +0.004 A 
ATOM      9  C   UNL     1       3.672  -5.840   4.595  0.00  0.00    +0.047 A 
ATOM     10  C   UNL     1       3.401  -4.982   3.532  0.00  0.00    +0.139 A 
ATOM     11  O   UNL     1       3.199  -5.468   2.294  0.00  0.00    -0.450 OA
ATOM     12  C   UNL     1       2.933  -4.695   1.223  0.00  0.00    +0.199 A 
ATOM     13  C   UNL     1       2.688  -5.065  -0.194  0.00  0.00    +0.283 C 
ATOM     14  O   UNL     1       2.692  -6.200  -0.626  0.00  0.00    -0.267 OA
ATOM     15  N   UNL     1       2.461  -3.963  -0.929  0.00  0.00    -0.284 N 
ENDROOT
BRANCH   1  18
ATOM     16  C   UNL     1       0.002  -0.004   0.002  0.00  0.00    +0.163 A 
ATOM     17  C   UNL     1       1.211  -0.682  -0.013  0.00  0.00    +0.055 A 
ATOM     18  C   UNL     1       1.228  -2.064  -0.021  0.00  0.00    -0.018 A 
ATOM     19  C   UNL     1       0.042  -2.774  -0.013  0.00  0.00    +0.025 A 
ATOM     20  C   UNL     1      -1.168  -2.104   0.002  0.00  0.00    +0.063 A 
ATOM     21  C   UNL     1      -1.192  -0.717   0.015  0.00  0.00    +0.173 A 
ATOM     22 BR   UNL     1      -2.789  -3.078   0.012  0.00  0.00    -0.046 Br
BRANCH  16  24
ATOM     23  C   UNL     1       1.248   2.022   0.001  0.00  0.00    +0.277 C 
ATOM     24  O   UNL     1      -0.016   1.356   0.009  0.00  0.00    -0.491 OA
ENDBRANCH  16  24
BRANCH  21  25
ATOM     25  O   UNL     1      -2.381  -0.057   0.036  0.00  0.00    -0.503 OA
ATOM     26  H   UNL     1      -2.737   0.139  -0.842  0.00  0.00    +0.292 HD
ENDBRANCH  21  25
ENDBRANCH   1  18
BRANCH  15  27
ATOM     27  C   UNL     1       2.182  -3.929  -2.367  0.00  0.00    +0.111 C 
BRANCH  27  28
ATOM     28  C   UNL     1       3.497  -3.809  -3.139  0.00  0.00    +0.047 C 
BRANCH  28  29
ATOM     29  C   UNL     1       3.206  -3.773  -4.641  0.00  0.00    +0.157 C 
BRANCH  29  30
ATOM     30  O   UNL     1       4.434  -3.661  -5.362  0.00  0.00    -0.395 OA
ATOM     31  H   UNL     1       4.325  -3.633  -6.322  0.00  0.00    +0.209 HD
ENDBRANCH  29  30
ENDBRANCH  28  29
ENDBRANCH  27  28
ENDBRANCH  15  27
TORSDOF 7
