REMARK  Name = ZINC12372014
REMARK  8 active torsions:
REMARK  status: ('A' for Active; 'I' for Inactive)
REMARK    1  A    between atoms: C_1  and  C_2
REMARK    2  A    between atoms: C_3  and  C_24
REMARK    3  A    between atoms: C_6  and  N_10
REMARK    4  A    between atoms: C_7  and  C_8
REMARK    5  A    between atoms: C_11  and  C_13
REMARK    6  A    between atoms: C_13  and  S_14
REMARK    7  A    between atoms: S_14  and  C_15
REMARK    8  A    between atoms: C_21  and  N_23
REMARK                            x       y       z     vdW  Elec       q    Type
REMARK                         _______ _______ _______ _____ _____    ______ ____
ROOT
ATOM      1  N   UNL     1      -0.288   1.272  -2.443  0.00  0.00    -0.270 N 
ATOM      2  C   UNL     1      -0.742   1.585  -1.213  0.00  0.00    +0.229 C 
ATOM      3  O   UNL     1      -1.736   2.268  -1.088  0.00  0.00    -0.275 OA
ATOM      4  H   UNL     1       0.507   0.726  -2.543  0.00  0.00    +0.156 HD
ENDROOT
BRANCH   1  10
ATOM      5  C   UNL     1      -1.666   2.215  -7.213  0.00  0.00    +0.047 C 
ATOM      6  C   UNL     1      -1.608   2.176  -5.708  0.00  0.00    -0.011 A 
ATOM      7  C   UNL     1      -2.464   2.765  -4.857  0.00  0.00    +0.019 A 
ATOM      8  N   UNL     1      -2.078   2.501  -3.571  0.00  0.00    -0.346 N 
ATOM      9  H   UNL     1      -2.538   2.817  -2.777  0.00  0.00    +0.167 HD
ATOM     10  C   UNL     1      -0.959   1.732  -3.567  0.00  0.00    +0.121 A 
ATOM     11  C   UNL     1      -0.602   1.492  -4.886  0.00  0.00    +0.094 A 
ATOM     12  C   UNL     1      -3.662   3.588  -5.257  0.00  0.00    +0.063 C 
BRANCH  11  13
ATOM     13  C   UNL     1       0.517   0.730  -5.351  0.00  0.00    +0.103 C 
ATOM     14  N   UNL     1       1.406   0.126  -5.720  0.00  0.00    -0.191 NA
ENDBRANCH  11  13
ENDBRANCH   1  10
BRANCH   2  15
ATOM     15  C   UNL     1      -0.013   1.086   0.008  0.00  0.00    +0.173 C 
BRANCH  15  16
ATOM     16  S   UNL     1      -0.860   1.669   1.497  0.00  0.00    -0.078 S 
BRANCH  16  17
ATOM     17  C   UNL     1       0.174   0.961   2.735  0.00  0.00    +0.171 A 
ATOM     18  N   UNL     1      -0.118   1.170   4.049  0.00  0.00    -0.302 N 
ATOM     19  H   UNL     1      -0.890   1.705   4.294  0.00  0.00    +0.171 HD
ATOM     20  C   UNL     1       0.660   0.631   5.011  0.00  0.00    +0.254 A 
ATOM     21  O   UNL     1       0.402   0.810   6.191  0.00  0.00    -0.268 OA
ATOM     22  C   UNL     1       1.769  -0.132   4.633  0.00  0.00    +0.113 A 
ATOM     23  C   UNL     1       2.027  -0.311   3.281  0.00  0.00    +0.124 A 
ATOM     24  N   UNL     1       1.218   0.244   2.372  0.00  0.00    -0.209 NA
BRANCH  23  25
ATOM     25  N   UNL     1       3.114  -1.059   2.876  0.00  0.00    -0.343 N 
ATOM     26  H   UNL     1       3.293  -1.183   1.930  0.00  0.00    +0.144 HD
ATOM     27  H   UNL     1       3.700  -1.460   3.537  0.00  0.00    +0.144 HD
ENDBRANCH  23  25
ENDBRANCH  16  17
ENDBRANCH  15  16
ENDBRANCH   2  15
TORSDOF 6
