REMARK  Name = ZINC02771858
REMARK  12 active torsions:
REMARK  status: ('A' for Active; 'I' for Inactive)
REMARK    1  A    between atoms: C_1  and  C_2
REMARK    2  A    between atoms: C_2  and  C_3
REMARK    3  A    between atoms: C_3  and  O_4
REMARK    4  A    between atoms: O_4  and  C_5
REMARK    5  A    between atoms: C_5  and  C_7
REMARK    6  A    between atoms: C_8  and  C_37
REMARK    7  A    between atoms: C_12  and  C_14
REMARK    8  A    between atoms: C_16  and  O_22
REMARK    9  A    between atoms: C_17  and  O_21
REMARK   10  A    between atoms: O_22  and  C_23
REMARK   11  A    between atoms: C_23  and  C_24
REMARK   12  A    between atoms: C_28  and  C_31
REMARK                            x       y       z     vdW  Elec       q    Type
REMARK                         _______ _______ _______ _____ _____    ______ ____
ROOT
ATOM      1  C   UNL     1      -0.060   1.253  -0.007  0.00  0.00    +0.065 C 
ATOM      2  C   UNL     1       0.055  -0.086   0.011  0.00  0.00    +0.016 C 
ATOM      3  N   UNL     1       1.288  -0.676   0.006  0.00  0.00    -0.321 N 
ATOM      4  C   UNL     1       2.392   0.018  -0.408  0.00  0.00    +0.016 C 
ATOM      5  C   UNL     1       2.377   1.367  -0.451  0.00  0.00    +0.024 C 
ATOM      6  C   UNL     1       1.152   2.138  -0.026  0.00  0.00    +0.092 C 
ATOM      7  C   UNL     1       3.500   2.092  -0.888  0.00  0.00    +0.162 C 
ATOM      8  O   UNL     1       3.455   3.306  -0.907  0.00  0.00    -0.292 OA
ATOM      9  C   UNL     1       4.755   1.392  -1.333  0.00  0.00    +0.088 C 
ATOM     10  C   UNL     1       4.386   0.012  -1.888  0.00  0.00    +0.032 C 
ATOM     11  C   UNL     1       3.623  -0.758  -0.808  0.00  0.00    +0.059 C 
ATOM     12  C   UNL     1      -1.185  -0.943   0.037  0.00  0.00    +0.061 C 
ATOM     13  H   UNL     1       1.399  -1.720   0.336  0.00  0.00    +0.152 HD
ENDROOT
BRANCH   6  14
ATOM     14  C   UNL     1       1.376   2.701   1.354  0.00  0.00    -0.030 A 
ATOM     15  C   UNL     1       1.361   4.070   1.550  0.00  0.00    +0.054 A 
ATOM     16  C   UNL     1       1.565   4.590   2.818  0.00  0.00    +0.163 A 
ATOM     17  C   UNL     1       1.786   3.733   3.892  0.00  0.00    +0.177 A 
ATOM     18  C   UNL     1       1.800   2.362   3.688  0.00  0.00    +0.086 A 
ATOM     19  C   UNL     1       1.589   1.849   2.420  0.00  0.00    +0.028 A 
ATOM     20 CL   UNL     1       2.075   1.288   5.024  0.00  0.00    -0.080 Cl
BRANCH  17  21
ATOM     21  O   UNL     1       1.987   4.239   5.138  0.00  0.00    -0.502 OA
ATOM     22  H   UNL     1       2.161   3.560   5.986  0.00  0.00    +0.292 HD
ENDBRANCH  17  21
BRANCH  16  23
ATOM     23  O   UNL     1       1.551   5.936   3.013  0.00  0.00    -0.489 OA
BRANCH  23  24
ATOM     24  C   UNL     1       1.319   6.755   1.865  0.00  0.00    +0.226 C 
ATOM     25  C   UNL     1       1.339   8.228   2.277  0.00  0.00    +0.048 C 
ENDBRANCH  23  24
ENDBRANCH  16  23
ENDBRANCH   6  14
BRANCH  10  26
ATOM     26  C   UNL     1       5.641  -0.738  -2.253  0.00  0.00    -0.044 A 
ATOM     27  C   UNL     1       6.591  -1.008  -1.286  0.00  0.00    +0.004 A 
ATOM     28  C   UNL     1       7.740  -1.700  -1.620  0.00  0.00    +0.000 A 
ATOM     29  C   UNL     1       7.944  -2.114  -2.923  0.00  0.00    +0.000 A 
ATOM     30  C   UNL     1       6.995  -1.841  -3.891  0.00  0.00    +0.000 A 
ATOM     31  C   UNL     1       5.844  -1.153  -3.556  0.00  0.00    +0.004 A 
ENDBRANCH  10  26
BRANCH   1  32
ATOM     32  C   UNL     1      -1.347   1.839  -0.013  0.00  0.00    +0.338 C 
ATOM     33  O   UNL     1      -2.335   1.136  -0.108  0.00  0.00    -0.245 OA
BRANCH  32  34
ATOM     34  O   UNL     1      -1.479   3.179   0.086  0.00  0.00    -0.461 OA
BRANCH  34  35
ATOM     35  C   UNL     1      -2.808   3.702   0.073  0.00  0.00    +0.232 C 
BRANCH  35  37
ATOM     36  C   UNL     1      -4.181   5.787   0.180  0.00  0.00    +0.007 C 
ATOM     37  C   UNL     1      -2.757   5.227   0.194  0.00  0.00    +0.038 C 
ENDBRANCH  35  37
ENDBRANCH  34  35
ENDBRANCH  32  34
ENDBRANCH   1  32
TORSDOF 9
