REMARK  Name = ZINC13248637
REMARK  9 active torsions:
REMARK  status: ('A' for Active; 'I' for Inactive)
REMARK    1  A    between atoms: C_1  and  C_2
REMARK    2  A    between atoms: C_2  and  C_3
REMARK    3  A    between atoms: C_2  and  C_4
REMARK    4  A    between atoms: C_4  and  C_5
REMARK    5  A    between atoms: C_5  and  C_7
REMARK    6  A    between atoms: C_5  and  N_17
REMARK    7  A    between atoms: N_17  and  S_18
REMARK    8  A    between atoms: S_18  and  C_21
REMARK    9  A    between atoms: C_25  and  C_27
REMARK                            x       y       z     vdW  Elec       q    Type
REMARK                         _______ _______ _______ _____ _____    ______ ____
ROOT
ATOM      1  C   UNL     1       0.006   0.881   2.161  0.00  0.00    +0.142 C 
ENDROOT
BRANCH   1   2
ATOM      2  C   UNL     1      -0.832   0.921   3.413  0.00  0.00    +0.127 A 
ATOM      3  N   UNL     1      -1.310  -0.172   4.066  0.00  0.00    -0.341 N 
ATOM      4  H   UNL     1      -1.170  -1.127   3.804  0.00  0.00    +0.167 HD
ATOM      5  C   UNL     1      -2.024   0.281   5.157  0.00  0.00    +0.066 A 
ATOM      6  C   UNL     1      -2.731  -0.343   6.177  0.00  0.00    +0.028 A 
ATOM      7  C   UNL     1      -3.350   0.420   7.144  0.00  0.00    +0.002 A 
ATOM      8  C   UNL     1      -3.271   1.805   7.104  0.00  0.00    +0.002 A 
ATOM      9  C   UNL     1      -2.581   2.436   6.109  0.00  0.00    +0.030 A 
ATOM     10  C   UNL     1      -1.945   1.683   5.117  0.00  0.00    +0.089 A 
ATOM     11  N   UNL     1      -1.199   2.006   4.030  0.00  0.00    -0.231 NA
ENDBRANCH   1   2
BRANCH   1  12
ATOM     12  N   UNL     1       1.340   1.413   2.450  0.00  0.00    -0.180 NA
ATOM     13  H   UNL     1       1.448   2.344   2.701  0.00  0.00    +0.149 HD
BRANCH  12  14
ATOM     14  S   UNL     1       2.666   0.426   2.345  0.00  0.00    +0.059 S 
ATOM     15  O   UNL     1       3.799   1.236   2.628  0.00  0.00    -0.153 OA
ATOM     16  O   UNL     1       2.360  -0.744   3.091  0.00  0.00    -0.153 OA
BRANCH  14  17
ATOM     17  C   UNL     1       2.812  -0.074   0.662  0.00  0.00    +0.106 A 
ATOM     18  C   UNL     1       2.109  -1.177   0.206  0.00  0.00    +0.031 A 
ATOM     19  C   UNL     1       2.212  -1.574  -1.113  0.00  0.00    +0.041 A 
ATOM     20  C   UNL     1       3.029  -0.877  -1.986  0.00  0.00    +0.138 A 
ATOM     21  C   UNL     1       3.745   0.234  -1.530  0.00  0.00    +0.100 A 
ATOM     22  C   UNL     1       3.630   0.631  -0.195  0.00  0.00    +0.046 A 
ATOM     23  F   UNL     1       3.133  -1.269  -3.275  0.00  0.00    -0.205 F 
BRANCH  21  24
ATOM     24  C   UNL     1       4.618   0.984  -2.454  0.00  0.00    +0.389 C 
ATOM     25  O   UNL     1       4.716   0.636  -3.614  0.00  0.00    -0.240 OA
ATOM     26  O   UNL     1       5.306   2.054  -2.010  0.00  0.00    -0.240 OA
ENDBRANCH  21  24
ENDBRANCH  14  17
ENDBRANCH  12  14
ENDBRANCH   1  12
BRANCH   1  27
ATOM     27  C   UNL     1      -0.658   1.731   1.076  0.00  0.00    +0.031 C 
BRANCH  27  29
ATOM     28  C   UNL     1      -1.734  -0.255   0.007  0.00  0.00    +0.007 C 
ATOM     29  C   UNL     1      -1.992   1.097   0.676  0.00  0.00    -0.015 C 
ATOM     30  C   UNL     1      -2.723   2.019  -0.301  0.00  0.00    +0.007 C 
ENDBRANCH  27  29
ENDBRANCH   1  27
TORSDOF 7
