REMARK  Name = ZINC22785353
REMARK  11 active torsions:
REMARK  status: ('A' for Active; 'I' for Inactive)
REMARK    1  A    between atoms: C_1  and  O_2
REMARK    2  A    between atoms: O_2  and  C_3
REMARK    3  A    between atoms: C_6  and  C_11
REMARK    4  A    between atoms: C_8  and  O_9
REMARK    5  A    between atoms: O_9  and  C_10
REMARK    6  A    between atoms: C_18  and  O_32
REMARK    7  A    between atoms: C_19  and  C_22
REMARK    8  A    between atoms: C_22  and  N_23
REMARK    9  A    between atoms: N_26  and  C_29
REMARK   10  A    between atoms: C_29  and  C_30
REMARK   11  A    between atoms: C_30  and  O_31
REMARK                            x       y       z     vdW  Elec       q    Type
REMARK                         _______ _______ _______ _____ _____    ______ ____
ROOT
ATOM      1  C   UNL     1       2.491  -2.485  -4.360  0.00  0.00    +0.058 C 
ATOM      2  C   UNL     1       2.954  -1.734  -5.392  0.00  0.00    +0.176 C 
ATOM      3  C   UNL     1       3.527  -2.242  -6.646  0.00  0.00    +0.231 C 
ATOM      4  O   UNL     1       3.686  -3.404  -6.978  0.00  0.00    -0.283 OA
ATOM      5  C   UNL     1       3.868  -1.030  -7.414  0.00  0.00    +0.068 A 
ATOM      6  C   UNL     1       4.437  -0.826  -8.672  0.00  0.00    +0.019 A 
ATOM      7  C   UNL     1       4.636   0.445  -9.130  0.00  0.00    +0.046 A 
ATOM      8  C   UNL     1       4.273   1.537  -8.346  0.00  0.00    +0.122 A 
ATOM      9  C   UNL     1       3.707   1.349  -7.096  0.00  0.00    +0.020 A 
ATOM     10  C   UNL     1       3.497   0.062  -6.614  0.00  0.00    +0.144 A 
ATOM     11  O   UNL     1       2.967  -0.382  -5.454  0.00  0.00    -0.451 OA
ENDROOT
BRANCH   1  15
ATOM     12  C   UNL     1       0.594  -0.608  -1.061  0.00  0.00    +0.162 A 
ATOM     13  C   UNL     1       1.181   0.164  -2.055  0.00  0.00    +0.050 A 
ATOM     14  C   UNL     1       1.798  -0.440  -3.128  0.00  0.00    +0.012 A 
ATOM     15  C   UNL     1       1.834  -1.837  -3.218  0.00  0.00    -0.018 A 
ATOM     16  C   UNL     1       1.242  -2.615  -2.215  0.00  0.00    +0.057 A 
ATOM     17  C   UNL     1       0.630  -2.000  -1.140  0.00  0.00    +0.162 A 
BRANCH  12  19
ATOM     18  C   UNL     1      -0.015   1.423   0.013  0.00  0.00    +0.277 C 
ATOM     19  O   UNL     1      -0.014  -0.006  -0.006  0.00  0.00    -0.491 OA
ENDBRANCH  12  19
BRANCH  17  20
ATOM     20  O   UNL     1       0.059  -2.752  -0.161  0.00  0.00    -0.491 OA
ATOM     21  C   UNL     1       0.134  -4.171  -0.306  0.00  0.00    +0.277 C 
ENDBRANCH  17  20
ENDBRANCH   1  15
BRANCH   8  22
ATOM     22  O   UNL     1       4.476   2.796  -8.810  0.00  0.00    -0.506 OA
ATOM     23  H   UNL     1       3.731   3.156  -9.310  0.00  0.00    +0.292 HD
ENDBRANCH   8  22
BRANCH   9  24
ATOM     24  C   UNL     1       3.319   2.540  -6.258  0.00  0.00    -0.035 C 
BRANCH  24  25
ATOM     25  N   UNL     1       1.932   2.919  -6.558  0.00  0.00    +0.384 N 
ATOM     26  C   UNL     1       1.840   3.376  -7.950  0.00  0.00    -0.063 C 
ATOM     27  C   UNL     1       0.391   3.753  -8.269  0.00  0.00    +0.066 C 
ATOM     28  N   UNL     1      -0.046   4.818  -7.356  0.00  0.00    -0.304 NA
ATOM     29  C   UNL     1       0.064   4.384  -5.956  0.00  0.00    +0.066 C 
ATOM     30  C   UNL     1       1.515   4.002  -5.657  0.00  0.00    -0.063 C 
ATOM     31  H   UNL     1       1.329   2.121  -6.425  0.00  0.00    -0.081 HD
BRANCH  28  32
ATOM     32  C   UNL     1      -1.416   5.249  -7.667  0.00  0.00    +0.112 C 
BRANCH  32  33
ATOM     33  C   UNL     1      -1.746   6.513  -6.873  0.00  0.00    +0.171 C 
BRANCH  33  34
ATOM     34  O   UNL     1      -0.906   7.583  -7.309  0.00  0.00    -0.394 OA
ATOM     35  H   UNL     1      -1.060   8.419  -6.847  0.00  0.00    +0.209 HD
ENDBRANCH  33  34
ENDBRANCH  32  33
ENDBRANCH  28  32
ENDBRANCH  24  25
ENDBRANCH   9  24
TORSDOF 9
