REMARK  Name = ZINC60357259
REMARK  4 active torsions:
REMARK  status: ('A' for Active; 'I' for Inactive)
REMARK    1  A    between atoms: C_6  and  C_7
REMARK    2  A    between atoms: C_9  and  S_12
REMARK    3  A    between atoms: S_12  and  N_15
REMARK    4  A    between atoms: C_19  and  C_21
REMARK                            x       y       z     vdW  Elec       q    Type
REMARK                         _______ _______ _______ _____ _____    ______ ____
ROOT
ATOM      1  S   UNL     1      -2.895  -4.331   0.019  0.00  0.00    +0.079 S 
ATOM      2  O   UNL     1      -2.792  -4.754   1.371  0.00  0.00    -0.151 OA
ATOM      3  O   UNL     1      -4.042  -4.594  -0.777  0.00  0.00    -0.151 OA
ENDROOT
BRANCH   1   6
ATOM      4  C   UNL     1      -1.266  -0.764   0.011  0.00  0.00    +0.110 A 
ATOM      5  N   UNL     1      -1.462  -2.075   0.011  0.00  0.00    -0.220 NA
ATOM      6  C   UNL     1      -2.672  -2.583   0.019  0.00  0.00    +0.201 A 
ATOM      7  C   UNL     1      -3.753  -1.759   0.028  0.00  0.00    +0.096 A 
ATOM      8  S   UNL     1      -2.950  -0.161   0.031  0.00  0.00    -0.074 S 
BRANCH   4  14
ATOM      9  C   UNL     1      -0.017   1.391   0.010  0.00  0.00    +0.011 A 
ATOM     10  C   UNL     1       1.170   2.095   0.002  0.00  0.00    +0.016 A 
ATOM     11  C   UNL     1       2.378   1.419  -0.013  0.00  0.00    +0.018 A 
ATOM     12  C   UNL     1       2.403   0.034  -0.021  0.00  0.00    +0.016 A 
ATOM     13  C   UNL     1       1.223  -0.680  -0.014  0.00  0.00    +0.011 A 
ATOM     14  C   UNL     1       0.002  -0.004   0.002  0.00  0.00    +0.007 A 
ATOM     15 BR   UNL     1       4.000   2.390  -0.024  0.00  0.00    -0.050 Br
ENDBRANCH   4  14
ENDBRANCH   1   6
BRANCH   1  16
ATOM     16  N   UNL     1      -1.603  -4.989  -0.782  0.00  0.00    -0.163 NA
ATOM     17  C   UNL     1      -1.532  -5.248  -2.232  0.00  0.00    +0.110 C 
ATOM     18  C   UNL     1      -0.018  -5.252  -2.560  0.00  0.00    +0.019 C 
ATOM     19  C   UNL     1       0.572  -5.934  -1.297  0.00  0.00    +0.031 C 
ATOM     20  C   UNL     1      -0.335  -5.406  -0.166  0.00  0.00    +0.165 C 
BRANCH  20  21
ATOM     21  C   UNL     1      -0.589  -6.502   0.838  0.00  0.00    +0.229 C 
ATOM     22  O   UNL     1      -1.718  -6.902   1.026  0.00  0.00    -0.274 OA
ATOM     23  N   UNL     1       0.440  -7.037   1.525  0.00  0.00    -0.328 N 
ATOM     24  H   UNL     1       1.343  -6.717   1.375  0.00  0.00    +0.145 HD
ATOM     25  H   UNL     1       0.276  -7.742   2.171  0.00  0.00    +0.145 HD
ENDBRANCH  20  21
ENDBRANCH   1  16
TORSDOF 4
