REMARK  Name = ZINC09252398
REMARK  7 active torsions:
REMARK  status: ('A' for Active; 'I' for Inactive)
REMARK    1  A    between atoms: C_1  and  S_2
REMARK    2  A    between atoms: S_2  and  N_5
REMARK    3  A    between atoms: N_5  and  C_6
REMARK    4  A    between atoms: N_5  and  C_22
REMARK    5  A    between atoms: C_6  and  C_7
REMARK    6  A    between atoms: C_7  and  C_8
REMARK    7  A    between atoms: C_8  and  C_9
REMARK                            x       y       z     vdW  Elec       q    Type
REMARK                         _______ _______ _______ _____ _____    ______ ____
ROOT
ATOM      1  C   UNL     1      -1.037   5.532   2.159  0.00  0.00    +0.098 C 
ENDROOT
BRANCH   1   2
ATOM      2  C   UNL     1      -1.943   6.598   1.599  0.00  0.00    +0.220 C 
ATOM      3  O   UNL     1      -2.766   6.312   0.756  0.00  0.00    -0.275 OA
ATOM      4  N   UNL     1      -1.838   7.869   2.035  0.00  0.00    -0.261 N 
ATOM      5  C   UNL     1      -0.848   8.241   3.057  0.00  0.00    +0.209 C 
ATOM      6  C   UNL     1      -1.488   9.189   4.039  0.00  0.00    +0.235 C 
ATOM      7  O   UNL     1      -1.097   9.216   5.187  0.00  0.00    -0.274 OA
ATOM      8  N   UNL     1      -2.488  10.005   3.658  0.00  0.00    -0.283 N 
ATOM      9  C   UNL     1      -2.992   9.959   2.353  0.00  0.00    +0.055 A 
ATOM     10  C   UNL     1      -2.666   8.880   1.525  0.00  0.00    +0.058 A 
ATOM     11  C   UNL     1      -3.156   8.818   0.233  0.00  0.00    +0.025 A 
ATOM     12  C   UNL     1      -3.966   9.834  -0.243  0.00  0.00    +0.002 A 
ATOM     13  C   UNL     1      -4.285  10.907   0.568  0.00  0.00    +0.002 A 
ATOM     14  C   UNL     1      -3.806  10.971   1.871  0.00  0.00    +0.025 A 
ATOM     15  H   UNL     1      -2.864  10.633   4.295  0.00  0.00    +0.155 HD
ENDBRANCH   1   2
BRANCH   1  16
ATOM     16  C   UNL     1      -1.361   4.189   1.500  0.00  0.00    +0.030 C 
BRANCH  16  17
ATOM     17  C   UNL     1      -0.441   3.107   2.069  0.00  0.00    +0.131 C 
BRANCH  17  18
ATOM     18  N   UNL     1      -0.751   1.822   1.438  0.00  0.00    -0.208 N 
BRANCH  18  19
ATOM     19  C   UNL     1      -1.781   1.024   1.945  0.00  0.00    +0.051 A 
ATOM     20  C   UNL     1      -2.847   0.665   1.131  0.00  0.00    +0.026 A 
ATOM     21  C   UNL     1      -3.860  -0.128   1.633  0.00  0.00    +0.022 A 
ATOM     22  C   UNL     1      -3.820  -0.554   2.949  0.00  0.00    +0.041 A 
ATOM     23  C   UNL     1      -2.761  -0.192   3.764  0.00  0.00    +0.022 A 
ATOM     24  C   UNL     1      -1.742   0.595   3.266  0.00  0.00    +0.026 A 
ATOM     25 CL   UNL     1      -5.099  -1.544   3.579  0.00  0.00    -0.084 Cl
ENDBRANCH  18  19
BRANCH  18  27
ATOM     26  C   UNL     1      -0.691   2.091  -1.300  0.00  0.00    +0.218 C 
ATOM     27  S   UNL     1       0.119   1.313   0.124  0.00  0.00    +0.043 S 
ATOM     28  O   UNL     1      -0.070  -0.095   0.086  0.00  0.00    -0.155 OA
ATOM     29  O   UNL     1       1.415   1.865   0.312  0.00  0.00    -0.155 OA
ENDBRANCH  18  27
ENDBRANCH  17  18
ENDBRANCH  16  17
ENDBRANCH   1  16
TORSDOF 6
