REMARK  Name = ZINC00842608
REMARK  9 active torsions:
REMARK  status: ('A' for Active; 'I' for Inactive)
REMARK    1  A    between atoms: C_1  and  O_2
REMARK    2  A    between atoms: O_2  and  C_3
REMARK    3  A    between atoms: C_3  and  C_5
REMARK    4  A    between atoms: C_8  and  N_11
REMARK    5  A    between atoms: C_15  and  N_47
REMARK    6  A    between atoms: C_19  and  C_20
REMARK    7  A    between atoms: C_19  and  N_47
REMARK    8  A    between atoms: C_23  and  S_26
REMARK    9  A    between atoms: S_26  and  N_29
REMARK                            x       y       z     vdW  Elec       q    Type
REMARK                         _______ _______ _______ _____ _____    ______ ____
ROOT
ATOM      1  N   UNL     1       0.002  -0.004   0.002  0.00  0.00    -0.212 N 
ATOM      2  C   UNL     1       1.132  -0.713  -0.116  0.00  0.00    +0.225 C 
ATOM      3  O   UNL     1       2.245  -0.246  -0.229  0.00  0.00    -0.275 OA
ATOM      4  C   UNL     1       0.799  -2.188  -0.085  0.00  0.00    +0.090 C 
ATOM      5  C   UNL     1      -0.736  -2.210   0.064  0.00  0.00    +0.026 C 
ATOM      6  C   UNL     1      -1.109  -0.744   0.107  0.00  0.00    +0.213 C 
ATOM      7  O   UNL     1      -2.234  -0.309   0.218  0.00  0.00    -0.277 OA
ENDROOT
BRANCH   1  11
ATOM      8  C   UNL     1      -0.054   4.164   0.025  0.00  0.00    +0.059 A 
ATOM      9  C   UNL     1       0.528   3.466   1.086  0.00  0.00    +0.017 A 
ATOM     10  C   UNL     1       0.544   2.089   1.075  0.00  0.00    +0.025 A 
ATOM     11  C   UNL     1      -0.017   1.394   0.010  0.00  0.00    +0.044 A 
ATOM     12  C   UNL     1      -0.592   2.085  -1.051  0.00  0.00    +0.025 A 
ATOM     13  C   UNL     1      -0.617   3.462  -1.045  0.00  0.00    +0.017 A 
BRANCH   8  14
ATOM     14  C   UNL     1      -0.074   5.639   0.033  0.00  0.00    +0.339 C 
ATOM     15  O   UNL     1       0.415   6.248   0.964  0.00  0.00    -0.245 OA
BRANCH  14  17
ATOM     16  C   UNL     1      -0.620   7.761  -0.916  0.00  0.00    +0.280 C 
ATOM     17  O   UNL     1      -0.636   6.311  -0.991  0.00  0.00    -0.464 OA
ENDBRANCH  14  17
ENDBRANCH   8  14
ENDBRANCH   1  11
BRANCH   5  18
ATOM     18  N   UNL     1      -1.353  -2.870  -1.101  0.00  0.00    +0.390 N 
ATOM     19  H   UNL     1      -0.780  -3.676  -1.377  0.00  0.00    -0.084 HD
ATOM     20  H   UNL     1      -1.404  -2.203  -1.880  0.00  0.00    -0.084 HD
BRANCH  18  21
ATOM     21  C   UNL     1      -2.714  -3.332  -0.767  0.00  0.00    -0.046 C 
BRANCH  21  22
ATOM     22  C   UNL     1      -3.319  -4.001  -1.974  0.00  0.00    -0.064 A 
ATOM     23  C   UNL     1      -4.047  -3.257  -2.884  0.00  0.00    +0.003 A 
ATOM     24  C   UNL     1      -4.598  -3.870  -3.994  0.00  0.00    +0.029 A 
ATOM     25  C   UNL     1      -4.429  -5.228  -4.189  0.00  0.00    +0.105 A 
ATOM     26  C   UNL     1      -3.705  -5.973  -3.276  0.00  0.00    +0.029 A 
ATOM     27  C   UNL     1      -3.151  -5.359  -2.169  0.00  0.00    +0.003 A 
BRANCH  25  28
ATOM     28  S   UNL     1      -5.137  -6.010  -5.600  0.00  0.00    +0.056 S 
ATOM     29  O   UNL     1      -5.303  -4.998  -6.584  0.00  0.00    -0.153 OA
ATOM     30  O   UNL     1      -4.375  -7.186  -5.838  0.00  0.00    -0.153 OA
BRANCH  28  31
ATOM     31  N   UNL     1      -6.657  -6.510  -5.173  0.00  0.00    -0.204 NA
ATOM     32  H   UNL     1      -7.358  -6.557  -5.842  0.00  0.00    +0.144 HD
ATOM     33  H   UNL     1      -6.846  -6.755  -4.254  0.00  0.00    +0.144 HD
ENDBRANCH  28  31
ENDBRANCH  25  28
ENDBRANCH  21  22
ENDBRANCH  18  21
ENDBRANCH   5  18
TORSDOF 8
