REMARK  Name = ZINC33937184
REMARK  15 active torsions:
REMARK  status: ('A' for Active; 'I' for Inactive)
REMARK    1  A    between atoms: C_1  and  C_2
REMARK    2  A    between atoms: C_2  and  C_3
REMARK    3  A    between atoms: C_3  and  C_5
REMARK    4  A    between atoms: C_3  and  N_17
REMARK    5  A    between atoms: N_9  and  C_10
REMARK    6  A    between atoms: C_10  and  C_11
REMARK    7  A    between atoms: N_17  and  C_18
REMARK    8  A    between atoms: N_17  and  C_27
REMARK    9  A    between atoms: C_18  and  C_19
REMARK   10  A    between atoms: C_19  and  C_20
REMARK   11  A    between atoms: C_25  and  C_26
REMARK   12  A    between atoms: C_27  and  C_28
REMARK   13  A    between atoms: C_32  and  O_40
REMARK   14  A    between atoms: O_40  and  C_41
REMARK   15  A    between atoms: C_41  and  C_42
REMARK                            x       y       z     vdW  Elec       q    Type
REMARK                         _______ _______ _______ _____ _____    ______ ____
ROOT
ATOM      1  N   UNL     1      -2.540   1.075  -1.265  0.00  0.00    -0.288 NA
ENDROOT
BRANCH   1   2
ATOM      2  C   UNL     1      -2.078  -0.238  -0.795  0.00  0.00    +0.126 C 
BRANCH   2   3
ATOM      3  C   UNL     1      -1.007  -0.754  -1.721  0.00  0.00    +0.168 A 
ATOM      4  N   UNL     1      -0.147  -0.036  -2.400  0.00  0.00    -0.112 NA
ATOM      5  N   UNL     1       0.602  -0.841  -3.072  0.00  0.00    -0.023 NA
ATOM      6  N   UNL     1       0.241  -2.055  -2.838  0.00  0.00    -0.044 NA
ATOM      7  N   UNL     1      -0.744  -2.043  -2.006  0.00  0.00    -0.225 N 
BRANCH   7   8
ATOM      8  C   UNL     1      -1.448  -3.213  -1.473  0.00  0.00    +0.179 C 
BRANCH   8   9
ATOM      9  C   UNL     1      -2.619  -3.565  -2.392  0.00  0.00    +0.140 C 
ATOM     10  C   UNL     1      -3.322  -4.854  -1.897  0.00  0.00    +0.035 C 
ATOM     11  C   UNL     1      -4.744  -4.662  -2.492  0.00  0.00    +0.031 C 
ATOM     12  C   UNL     1      -4.928  -3.132  -2.412  0.00  0.00    +0.160 C 
ATOM     13  O   UNL     1      -3.625  -2.541  -2.333  0.00  0.00    -0.375 OA
ENDBRANCH   8   9
ENDBRANCH   7   8
ENDBRANCH   2   3
BRANCH   2  15
ATOM     14  C   UNL     1      -2.634   0.260   1.590  0.00  0.00    +0.006 C 
ATOM     15  C   UNL     1      -1.508  -0.102   0.619  0.00  0.00    +0.023 C 
ENDBRANCH   2  15
ENDBRANCH   1   2
BRANCH   1  16
ATOM     16  C   UNL     1      -2.949   1.016  -2.674  0.00  0.00    +0.090 C 
BRANCH  16  17
ATOM     17  C   UNL     1      -3.803   2.240  -3.010  0.00  0.00    +0.051 C 
BRANCH  17  18
ATOM     18  C   UNL     1      -4.306   2.129  -4.426  0.00  0.00    -0.043 A 
ATOM     19  C   UNL     1      -3.632   2.767  -5.451  0.00  0.00    +0.004 A 
ATOM     20  C   UNL     1      -4.093   2.666  -6.750  0.00  0.00    +0.000 A 
ATOM     21  C   UNL     1      -5.228   1.925  -7.025  0.00  0.00    +0.000 A 
ATOM     22  C   UNL     1      -5.901   1.287  -6.001  0.00  0.00    +0.003 A 
ATOM     23  C   UNL     1      -5.437   1.385  -4.702  0.00  0.00    -0.047 A 
ATOM     24  C   UNL     1      -6.168   0.684  -3.586  0.00  0.00    +0.044 C 
ENDBRANCH  17  18
ENDBRANCH  16  17
ENDBRANCH   1  16
BRANCH   1  25
ATOM     25  C   UNL     1      -1.509   2.101  -1.058  0.00  0.00    +0.125 C 
BRANCH  25  26
ATOM     26  C   UNL     1      -1.727   2.771   0.274  0.00  0.00    +0.031 A 
ATOM     27  C   UNL     1      -0.740   2.763   1.203  0.00  0.00    +0.020 A 
ATOM     28  C   UNL     1      -0.983   3.423   2.487  0.00  0.00    +0.002 A 
ATOM     29  C   UNL     1      -0.001   3.447   3.484  0.00  0.00    +0.055 A 
ATOM     30  C   UNL     1      -0.263   4.079   4.683  0.00  0.00    +0.121 A 
ATOM     31  C   UNL     1      -1.496   4.689   4.902  0.00  0.00    +0.047 A 
ATOM     32  C   UNL     1      -2.470   4.672   3.929  0.00  0.00    +0.030 A 
ATOM     33  C   UNL     1      -2.227   4.041   2.713  0.00  0.00    +0.049 A 
ATOM     34  N   UNL     1      -3.190   4.014   1.725  0.00  0.00    -0.322 N 
ATOM     35  H   UNL     1      -4.048   4.440   1.881  0.00  0.00    +0.169 HD
ATOM     36  C   UNL     1      -2.955   3.410   0.547  0.00  0.00    +0.254 A 
ATOM     37  O   UNL     1      -3.828   3.410  -0.305  0.00  0.00    -0.268 OA
BRANCH  30  38
ATOM     38  O   UNL     1       0.687   4.105   5.655  0.00  0.00    -0.492 OA
BRANCH  38  39
ATOM     39  C   UNL     1       0.351   4.775   6.872  0.00  0.00    +0.225 C 
ATOM     40  C   UNL     1       1.535   4.701   7.838  0.00  0.00    +0.048 C 
ENDBRANCH  38  39
ENDBRANCH  30  38
ENDBRANCH  25  26
ENDBRANCH   1  25
TORSDOF 12
