REMARK  Name = ZINC36523582
REMARK  15 active torsions:
REMARK  status: ('A' for Active; 'I' for Inactive)
REMARK    1  A    between atoms: C_1  and  C_2
REMARK    2  A    between atoms: C_2  and  C_3
REMARK    3  A    between atoms: C_2  and  C_4
REMARK    4  A    between atoms: C_2  and  N_5
REMARK    5  A    between atoms: C_6  and  C_8
REMARK    6  A    between atoms: C_8  and  C_10
REMARK    7  A    between atoms: C_8  and  N_19
REMARK    8  A    between atoms: C_11  and  O_18
REMARK    9  A    between atoms: C_13  and  O_17
REMARK   10  A    between atoms: C_15  and  O_16
REMARK   11  A    between atoms: N_19  and  C_20
REMARK   12  A    between atoms: C_21  and  C_23
REMARK   13  A    between atoms: C_29  and  O_31
REMARK   14  A    between atoms: O_31  and  C_32
REMARK   15  A    between atoms: C_32  and  C_33
REMARK                            x       y       z     vdW  Elec       q    Type
REMARK                         _______ _______ _______ _____ _____    ______ ____
ROOT
ATOM      1  C   UNL     1       2.704  -0.703  -2.453  0.00  0.00    +0.199 C 
ENDROOT
BRANCH   1   2
ATOM      2  C   UNL     1       1.518  -0.471  -3.353  0.00  0.00    +0.065 A 
ATOM      3  C   UNL     1       1.568  -0.868  -4.681  0.00  0.00    +0.129 A 
ATOM      4  C   UNL     1       0.477  -0.654  -5.510  0.00  0.00    +0.091 A 
ATOM      5  C   UNL     1      -0.664  -0.043  -5.011  0.00  0.00    +0.124 A 
ATOM      6  C   UNL     1      -0.714   0.353  -3.683  0.00  0.00    +0.091 A 
ATOM      7  C   UNL     1       0.376   0.136  -2.853  0.00  0.00    +0.129 A 
BRANCH   7   8
ATOM      8  O   UNL     1       0.325   0.520  -1.551  0.00  0.00    -0.506 OA
ATOM      9  H   UNL     1       0.634   1.423  -1.395  0.00  0.00    +0.292 HD
ENDBRANCH   7   8
BRANCH   5  10
ATOM     10  O   UNL     1      -1.733   0.167  -5.824  0.00  0.00    -0.507 OA
ATOM     11  H   UNL     1      -2.367  -0.562  -5.835  0.00  0.00    +0.292 HD
ENDBRANCH   5  10
BRANCH   3  12
ATOM     12  O   UNL     1       2.686  -1.467  -5.170  0.00  0.00    -0.506 OA
ATOM     13  H   UNL     1       2.717  -2.422  -5.022  0.00  0.00    +0.292 HD
ENDBRANCH   3  12
ENDBRANCH   1   2
BRANCH   1  15
ATOM     14  N   UNL     1       1.632  -2.207  -0.807  0.00  0.00    -0.309 N 
ATOM     15  C   UNL     1       2.223  -1.022  -1.061  0.00  0.00    +0.239 C 
ATOM     16  O   UNL     1       2.366  -0.213  -0.169  0.00  0.00    -0.273 OA
ATOM     17  H   UNL     1       1.517  -2.854  -1.521  0.00  0.00    +0.149 HD
BRANCH  14  19
ATOM     18  C   UNL     1       0.119  -1.485   0.973  0.00  0.00    +0.031 C 
ATOM     19  C   UNL     1       1.164  -2.518   0.546  0.00  0.00    +0.026 C 
ATOM     20  C   UNL     1       2.346  -2.479   1.516  0.00  0.00    +0.031 C 
ATOM     21  C   UNL     1       0.538  -3.914   0.561  0.00  0.00    +0.031 C 
ENDBRANCH  14  19
ENDBRANCH   1  15
BRANCH   1  22
ATOM     22  N   UNL     1       3.534   0.503  -2.417  0.00  0.00    -0.287 N 
ATOM     23  C   UNL     1       2.932   1.798  -2.089  0.00  0.00    +0.133 C 
ATOM     24  C   UNL     1       4.852   0.422  -2.686  0.00  0.00    +0.237 C 
ATOM     25  O   UNL     1       5.351  -0.649  -2.958  0.00  0.00    -0.274 OA
BRANCH  24  26
ATOM     26  C   UNL     1       5.707   1.664  -2.650  0.00  0.00    +0.165 C 
ATOM     27  C   UNL     1       6.077   2.003  -1.191  0.00  0.00    +0.033 C 
ATOM     28  C   UNL     1       7.545   2.494  -1.310  0.00  0.00    +0.021 C 
ATOM     29  C   UNL     1       8.088   1.578  -2.436  0.00  0.00    +0.112 C 
ATOM     30  N   UNL     1       6.961   1.429  -3.380  0.00  0.00    -0.256 N 
ATOM     31  C   UNL     1       7.064   1.126  -4.689  0.00  0.00    +0.404 C 
ATOM     32  O   UNL     1       6.062   1.028  -5.370  0.00  0.00    -0.226 OA
BRANCH  31  33
ATOM     33  O   UNL     1       8.276   0.934  -5.242  0.00  0.00    -0.445 OA
BRANCH  33  34
ATOM     34  C   UNL     1       8.310   0.616  -6.635  0.00  0.00    +0.269 C 
BRANCH  34  35
ATOM     35  C   UNL     1       9.740   0.437  -7.075  0.00  0.00    -0.010 A 
ATOM     36  C   UNL     1      10.463   1.522  -7.535  0.00  0.00    +0.007 A 
ATOM     37  C   UNL     1      11.775   1.358  -7.939  0.00  0.00    +0.000 A 
ATOM     38  C   UNL     1      12.364   0.109  -7.881  0.00  0.00    +0.000 A 
ATOM     39  C   UNL     1      11.642  -0.976  -7.420  0.00  0.00    +0.000 A 
ATOM     40  C   UNL     1      10.332  -0.811  -7.012  0.00  0.00    +0.007 A 
ENDBRANCH  34  35
ENDBRANCH  33  34
ENDBRANCH  31  33
ENDBRANCH  24  26
ENDBRANCH   1  22
TORSDOF 11
