REMARK  Name = ZINC00944117
REMARK  5 active torsions:
REMARK  status: ('A' for Active; 'I' for Inactive)
REMARK    1  A    between atoms: C_4  and  O_27
REMARK    2  A    between atoms: C_5  and  C_7
REMARK    3  A    between atoms: N_9  and  N_10
REMARK    4  A    between atoms: N_10  and  S_11
REMARK    5  A    between atoms: S_11  and  C_14
REMARK                            x       y       z     vdW  Elec       q    Type
REMARK                         _______ _______ _______ _____ _____    ______ ____
ROOT
ATOM      1  S   UNL     1       2.707   0.859  -0.019  0.00  0.00    +0.074 S 
ATOM      2  O   UNL     1       3.517   1.425   1.002  0.00  0.00    -0.152 OA
ATOM      3  O   UNL     1       2.375  -0.522  -0.050  0.00  0.00    -0.152 OA
ENDROOT
BRANCH   1   4
ATOM      4  C   UNL     1       1.183   1.742   0.000  0.00  0.00    +0.115 A 
ATOM      5  C   UNL     1      -0.013   1.076   0.008  0.00  0.00    +0.031 A 
ATOM      6  C   UNL     1      -1.248   1.722   0.018  0.00  0.00    +0.026 A 
ATOM      7  C   UNL     1      -1.306   3.103   0.032  0.00  0.00    +0.042 A 
ATOM      8  C   UNL     1      -0.083   3.767   0.024  0.00  0.00    +0.017 A 
ATOM      9  C   UNL     1       1.167   3.147   0.008  0.00  0.00    +0.011 A 
ATOM     10  C   UNL     1       2.297   3.982   0.002  0.00  0.00    +0.010 A 
ATOM     11  C   UNL     1       2.119   5.339   0.010  0.00  0.00    +0.001 A 
ATOM     12  C   UNL     1       0.862   5.943   0.027  0.00  0.00    +0.014 A 
ATOM     13  C   UNL     1      -0.276   5.156   0.034  0.00  0.00    +0.047 A 
ATOM     14  C   UNL     1      -1.735   5.318   0.050  0.00  0.00    +0.249 C 
ATOM     15  O   UNL     1      -2.338   6.375   0.063  0.00  0.00    -0.270 OA
ATOM     16  N   UNL     1      -2.295   4.079   0.047  0.00  0.00    -0.281 N 
ATOM     17  H   UNL     1      -3.248   3.901   0.056  0.00  0.00    +0.155 HD
ENDBRANCH   1   4
BRANCH   1  18
ATOM     18  N   UNL     1       3.452   1.199  -1.458  0.00  0.00    -0.108 NA
ATOM     19  H   UNL     1       3.659   0.483  -2.079  0.00  0.00    +0.172 HD
BRANCH  18  22
ATOM     20  C   UNL     1       5.054   2.838  -2.102  0.00  0.00    +0.262 C 
ATOM     21  O   UNL     1       5.911   1.976  -2.114  0.00  0.00    -0.269 OA
ATOM     22  N   UNL     1       3.784   2.522  -1.779  0.00  0.00    -0.228 N 
ATOM     23  H   UNL     1       3.101   3.210  -1.770  0.00  0.00    +0.171 HD
BRANCH  20  28
ATOM     24  C   UNL     1       4.755   6.524  -2.746  0.00  0.00    +0.001 A 
ATOM     25  C   UNL     1       6.060   6.849  -3.077  0.00  0.00    +0.004 A 
ATOM     26  C   UNL     1       7.040   5.877  -3.093  0.00  0.00    +0.046 A 
ATOM     27  C   UNL     1       6.723   4.565  -2.776  0.00  0.00    +0.129 A 
ATOM     28  C   UNL     1       5.404   4.231  -2.440  0.00  0.00    +0.079 A 
ATOM     29  C   UNL     1       4.421   5.224  -2.433  0.00  0.00    +0.017 A 
BRANCH  27  30
ATOM     30  O   UNL     1       7.685   3.608  -2.791  0.00  0.00    -0.506 OA
ATOM     31  H   UNL     1       7.788   3.168  -3.646  0.00  0.00    +0.292 HD
ENDBRANCH  27  30
ENDBRANCH  20  28
ENDBRANCH  18  22
ENDBRANCH   1  18
TORSDOF 5
