REMARK  Name = ZINC20917986
REMARK  7 active torsions:
REMARK  status: ('A' for Active; 'I' for Inactive)
REMARK    1  A    between atoms: C_1  and  C_2
REMARK    2  A    between atoms: C_5  and  N_8
REMARK    3  A    between atoms: C_9  and  C_11
REMARK    4  A    between atoms: C_11  and  C_36
REMARK    5  A    between atoms: N_26  and  C_27
REMARK    6  A    between atoms: C_27  and  C_28
REMARK    7  A    between atoms: C_28  and  C_29
REMARK                            x       y       z     vdW  Elec       q    Type
REMARK                         _______ _______ _______ _____ _____    ______ ____
ROOT
ATOM      1  C   UNL     1       1.129   3.683  -1.694  0.00  0.00    +0.096 C 
ATOM      2  C   UNL     1       1.398   3.223  -0.261  0.00  0.00    -0.042 C 
ATOM      3  N   UNL     1       1.225   1.765  -0.182  0.00  0.00    +0.392 N 
ATOM      4  C   UNL     1       1.702   1.259   1.112  0.00  0.00    -0.042 C 
ATOM      5  C   UNL     1       1.426  -0.216   1.236  0.00  0.00    -0.061 A 
ATOM      6  C   UNL     1       2.116  -0.939   2.197  0.00  0.00    +0.002 A 
ATOM      7  C   UNL     1       1.892  -2.293   2.347  0.00  0.00    +0.000 A 
ATOM      8  C   UNL     1       0.974  -2.932   1.535  0.00  0.00    +0.000 A 
ATOM      9  C   UNL     1       0.287  -2.214   0.577  0.00  0.00    +0.004 A 
ATOM     10  C   UNL     1       0.513  -0.854   0.424  0.00  0.00    -0.047 A 
ATOM     11  C   UNL     1      -0.256  -0.112  -0.638  0.00  0.00    +0.029 C 
ATOM     12  C   UNL     1      -0.184   1.395  -0.380  0.00  0.00    +0.024 C 
ATOM     13  C   UNL     1      -0.764   2.129  -1.554  0.00  0.00    +0.203 C 
ATOM     14  O   UNL     1      -1.831   1.758  -1.994  0.00  0.00    -0.277 OA
ATOM     15  N   UNL     1      -0.164   3.170  -2.140  0.00  0.00    -0.290 N 
ATOM     16  C   UNL     1       2.231   3.155  -2.614  0.00  0.00    +0.040 C 
ATOM     17  H   UNL     1       1.823   1.306  -0.983  0.00  0.00    -0.080 HD
ENDROOT
BRANCH   1  19
ATOM     18  N   UNL     1      -0.005   5.863  -1.409  0.00  0.00    -0.311 N 
ATOM     19  C   UNL     1       1.114   5.190  -1.742  0.00  0.00    +0.235 C 
ATOM     20  O   UNL     1       2.108   5.795  -2.081  0.00  0.00    -0.274 OA
ATOM     21  H   UNL     1      -0.880   5.320  -1.024  0.00  0.00    +0.149 HD
BRANCH  18  26
ATOM     22  C   UNL     1      -2.530   7.603   1.978  0.00  0.00    +0.007 C 
ATOM     23  C   UNL     1      -1.723   8.015   0.745  0.00  0.00    -0.014 C 
ATOM     24  C   UNL     1      -2.317   7.352  -0.499  0.00  0.00    +0.005 C 
ATOM     25  C   UNL     1      -1.510   7.764  -1.731  0.00  0.00    +0.022 C 
ATOM     26  C   UNL     1      -0.056   7.320  -1.561  0.00  0.00    +0.073 C 
ATOM     27  C   UNL     1       0.538   7.983  -0.317  0.00  0.00    +0.022 C 
ATOM     28  C   UNL     1      -0.269   7.570   0.916  0.00  0.00    +0.005 C 
ENDBRANCH  18  26
ENDBRANCH   1  19
BRANCH  15  29
ATOM     29  C   UNL     1      -0.828   3.820  -3.272  0.00  0.00    +0.113 C 
BRANCH  29  30
ATOM     30  C   UNL     1      -0.502   3.062  -4.560  0.00  0.00    +0.054 C 
BRANCH  30  31
ATOM     31  C   UNL     1      -1.185   3.731  -5.724  0.00  0.00    -0.046 A 
ATOM     32  C   UNL     1      -2.458   3.339  -6.096  0.00  0.00    +0.005 A 
ATOM     33  C   UNL     1      -3.087   3.957  -7.161  0.00  0.00    +0.020 A 
ATOM     34  C   UNL     1      -2.439   4.959  -7.861  0.00  0.00    +0.041 A 
ATOM     35  C   UNL     1      -1.163   5.346  -7.491  0.00  0.00    +0.020 A 
ATOM     36  C   UNL     1      -0.537   4.732  -6.423  0.00  0.00    +0.005 A 
ATOM     37 CL   UNL     1      -3.226   5.729  -9.203  0.00  0.00    -0.084 Cl
ENDBRANCH  30  31
ENDBRANCH  29  30
ENDBRANCH  15  29
TORSDOF 5
