REMARK  Name = ZINC39325331
REMARK  10 active torsions:
REMARK  status: ('A' for Active; 'I' for Inactive)
REMARK    1  A    between atoms: C_1  and  C_2
REMARK    2  A    between atoms: C_5  and  S_8
REMARK    3  A    between atoms: S_8  and  N_11
REMARK    4  A    between atoms: N_11  and  C_12
REMARK    5  A    between atoms: N_11  and  C_21
REMARK    6  A    between atoms: C_12  and  C_13
REMARK    7  A    between atoms: C_13  and  C_14
REMARK    8  A    between atoms: C_19  and  C_20
REMARK    9  A    between atoms: C_21  and  C_22
REMARK   10  A    between atoms: C_29  and  C_34
REMARK                            x       y       z     vdW  Elec       q    Type
REMARK                         _______ _______ _______ _____ _____    ______ ____
ROOT
ATOM      1  N   UNL     1       1.766  -5.085   0.011  0.00  0.00    -0.175 NA
ENDROOT
BRANCH   1   2
ATOM      2  S   UNL     1       0.443  -4.105   0.190  0.00  0.00    +0.061 S 
ATOM      3  O   UNL     1      -0.206  -4.514   1.386  0.00  0.00    -0.153 OA
ATOM      4  O   UNL     1      -0.220  -4.083  -1.067  0.00  0.00    -0.153 OA
BRANCH   2   9
ATOM      5  C   UNL     1       2.481   1.490   1.162  0.00  0.00    +0.044 C 
ATOM      6  C   UNL     1       1.972   0.092   0.919  0.00  0.00    -0.050 A 
ATOM      7  C   UNL     1       1.733  -0.342  -0.371  0.00  0.00    +0.005 A 
ATOM      8  C   UNL     1       1.266  -1.623  -0.594  0.00  0.00    +0.029 A 
ATOM      9  C   UNL     1       1.039  -2.471   0.474  0.00  0.00    +0.105 A 
ATOM     10  C   UNL     1       1.279  -2.038   1.764  0.00  0.00    +0.029 A 
ATOM     11  C   UNL     1       1.750  -0.757   1.987  0.00  0.00    +0.005 A 
ENDBRANCH   2   9
ENDBRANCH   1   2
BRANCH   1  12
ATOM     12  C   UNL     1       2.358  -5.738   1.181  0.00  0.00    +0.114 C 
BRANCH  12  13
ATOM     13  C   UNL     1       1.757  -7.136   1.343  0.00  0.00    +0.052 C 
BRANCH  13  14
ATOM     14  C   UNL     1       2.366  -7.807   2.547  0.00  0.00    -0.043 A 
ATOM     15  C   UNL     1       3.454  -8.647   2.394  0.00  0.00    +0.004 A 
ATOM     16  C   UNL     1       4.012  -9.263   3.498  0.00  0.00    +0.000 A 
ATOM     17  C   UNL     1       3.483  -9.039   4.755  0.00  0.00    +0.000 A 
ATOM     18  C   UNL     1       2.396  -8.199   4.909  0.00  0.00    +0.003 A 
ATOM     19  C   UNL     1       1.840  -7.580   3.805  0.00  0.00    -0.047 A 
ATOM     20  C   UNL     1       0.658  -6.660   3.973  0.00  0.00    +0.044 C 
ENDBRANCH  13  14
ENDBRANCH  12  13
ENDBRANCH   1  12
BRANCH   1  21
ATOM     21  C   UNL     1       2.344  -5.299  -1.318  0.00  0.00    +0.126 C 
BRANCH  21  22
ATOM     22  C   UNL     1       3.302  -4.152  -1.648  0.00  0.00    +0.114 C 
ATOM     23  C   UNL     1       3.658  -4.252  -3.119  0.00  0.00    -0.003 C 
ATOM     24  C   UNL     1       4.979  -4.375  -3.434  0.00  0.00    -0.007 A 
ATOM     25  C   UNL     1       5.411  -4.478  -4.829  0.00  0.00    +0.009 A 
ATOM     26  C   UNL     1       6.737  -4.599  -5.096  0.00  0.00    +0.001 A 
ATOM     27  C   UNL     1       7.685  -4.627  -4.073  0.00  0.00    +0.005 A 
ATOM     28  C   UNL     1       7.348  -4.536  -2.760  0.00  0.00    -0.029 A 
ATOM     29  C   UNL     1       6.001  -4.407  -2.374  0.00  0.00    +0.043 A 
ATOM     30  N   UNL     1       5.683  -4.317  -1.083  0.00  0.00    -0.284 N 
ATOM     31  C   UNL     1       4.439  -4.197  -0.653  0.00  0.00    +0.225 C 
ATOM     32  O   UNL     1       4.211  -4.120   0.539  0.00  0.00    -0.275 OA
ATOM     33  C   UNL     1       8.427  -4.574  -1.707  0.00  0.00    +0.045 C 
ATOM     34  H   UNL     1       6.398  -4.343  -0.428  0.00  0.00    +0.155 HD
ENDBRANCH  21  22
ENDBRANCH   1  21
TORSDOF 7
