REMARK  Name = ZINC35642535
REMARK  12 active torsions:
REMARK  status: ('A' for Active; 'I' for Inactive)
REMARK    1  A    between atoms: C_1  and  C_2
REMARK    2  A    between atoms: C_2  and  O_3
REMARK    3  A    between atoms: O_3  and  C_4
REMARK    4  A    between atoms: C_4  and  C_6
REMARK    5  A    between atoms: C_7  and  C_20
REMARK    6  A    between atoms: N_8  and  C_19
REMARK    7  A    between atoms: C_12  and  C_14
REMARK    8  A    between atoms: C_20  and  N_21
REMARK    9  A    between atoms: N_29  and  C_30
REMARK   10  A    between atoms: C_30  and  C_31
REMARK   11  A    between atoms: C_30  and  C_32
REMARK   12  A    between atoms: C_30  and  C_33
REMARK                            x       y       z     vdW  Elec       q    Type
REMARK                         _______ _______ _______ _____ _____    ______ ____
ROOT
ATOM      1  C   UNL     1      -2.819  -2.991   1.136  0.00  0.00    +0.080 C 
ATOM      2  C   UNL     1      -2.941  -4.014   0.263  0.00  0.00    +0.041 C 
ATOM      3  N   UNL     1      -4.029  -4.114  -0.557  0.00  0.00    -0.260 N 
ATOM      4  C   UNL     1      -5.037  -3.233  -0.565  0.00  0.00    +0.307 C 
ATOM      5  O   UNL     1      -5.964  -3.407  -1.332  0.00  0.00    -0.252 OA
ATOM      6  N   UNL     1      -5.057  -2.160   0.250  0.00  0.00    -0.288 N 
ATOM      7  C   UNL     1      -3.931  -1.963   1.179  0.00  0.00    +0.144 C 
ATOM      8  C   UNL     1      -4.096  -5.250  -1.480  0.00  0.00    +0.139 C 
ATOM      9  H   UNL     1      -5.797  -1.533   0.227  0.00  0.00    +0.151 HD
ENDROOT
BRANCH   7  10
ATOM     10  C   UNL     1      -4.480  -1.931   2.582  0.00  0.00    -0.015 A 
ATOM     11  C   UNL     1      -4.097  -0.937   3.462  0.00  0.00    +0.013 A 
ATOM     12  C   UNL     1      -4.610  -0.937   4.717  0.00  0.00    +0.045 A 
ATOM     13  S   UNL     1      -5.669  -2.374   4.683  0.00  0.00    -0.105 S 
ATOM     14  C   UNL     1      -5.362  -2.874   2.997  0.00  0.00    +0.051 A 
ENDBRANCH   7  10
BRANCH   1  15
ATOM     15  C   UNL     1      -1.693  -2.886   1.986  0.00  0.00    +0.339 C 
ATOM     16  O   UNL     1      -0.877  -3.788   2.029  0.00  0.00    -0.245 OA
BRANCH  15  17
ATOM     17  O   UNL     1      -1.524  -1.786   2.748  0.00  0.00    -0.462 OA
BRANCH  17  19
ATOM     18  C   UNL     1      -0.344  -0.433   4.367  0.00  0.00    +0.048 C 
ATOM     19  C   UNL     1      -0.364  -1.747   3.583  0.00  0.00    +0.229 C 
ENDBRANCH  17  19
ENDBRANCH  15  17
ENDBRANCH   1  15
BRANCH   2  20
ATOM     20  C   UNL     1      -1.860  -5.061   0.191  0.00  0.00    +0.136 C 
BRANCH  20  21
ATOM     21  N   UNL     1      -2.056  -6.042   1.267  0.00  0.00    -0.294 NA
ATOM     22  C   UNL     1      -3.328  -6.757   1.101  0.00  0.00    +0.104 C 
ATOM     23  C   UNL     1      -3.581  -7.635   2.332  0.00  0.00    +0.124 C 
ATOM     24  N   UNL     1      -2.406  -8.495   2.541  0.00  0.00    -0.283 N 
ATOM     25  C   UNL     1      -1.079  -7.863   2.580  0.00  0.00    +0.124 C 
ATOM     26  C   UNL     1      -0.925  -6.976   1.340  0.00  0.00    +0.104 C 
ATOM     27  C   UNL     1      -2.543  -9.828   2.693  0.00  0.00    +0.303 C 
ATOM     28  O   UNL     1      -3.635 -10.346   2.560  0.00  0.00    -0.253 OA
ATOM     29  N   UNL     1      -1.469 -10.585   2.991  0.00  0.00    -0.294 N 
ATOM     30  H   UNL     1      -0.613 -10.165   3.171  0.00  0.00    +0.151 HD
BRANCH  29  31
ATOM     31  C   UNL     1      -1.594 -12.044   3.046  0.00  0.00    +0.028 C 
ATOM     32  C   UNL     1      -2.048 -12.568   1.682  0.00  0.00    +0.031 C 
ATOM     33  C   UNL     1      -0.239 -12.659   3.403  0.00  0.00    +0.031 C 
ATOM     34  C   UNL     1      -2.625 -12.428   4.109  0.00  0.00    +0.031 C 
ENDBRANCH  29  31
ENDBRANCH  20  21
ENDBRANCH   2  20
TORSDOF 7
