REMARK  Name = ZINC53072513
REMARK  9 active torsions:
REMARK  status: ('A' for Active; 'I' for Inactive)
REMARK    1  A    between atoms: C_1  and  C_2
REMARK    2  A    between atoms: C_2  and  C_3
REMARK    3  A    between atoms: C_3  and  C_4
REMARK    4  A    between atoms: C_3  and  C_6
REMARK    5  A    between atoms: C_3  and  N_8
REMARK    6  A    between atoms: C_4  and  C_5
REMARK    7  A    between atoms: C_6  and  O_7
REMARK    8  A    between atoms: N_8  and  S_9
REMARK    9  A    between atoms: S_9  and  C_12
REMARK                            x       y       z     vdW  Elec       q    Type
REMARK                         _______ _______ _______ _____ _____    ______ ____
ROOT
ATOM      1  S   UNL     1      -1.583  -0.973   2.716  0.00  0.00    +0.060 S 
ATOM      2  O   UNL     1      -1.502  -2.377   2.513  0.00  0.00    -0.153 OA
ATOM      3  O   UNL     1      -1.990  -0.404   3.954  0.00  0.00    -0.153 OA
ENDROOT
BRANCH   1   4
ATOM      4  C   UNL     1      -2.682  -0.348   1.489  0.00  0.00    +0.124 A 
ATOM      5  C   UNL     1      -3.255  -1.209   0.572  0.00  0.00    +0.031 A 
ATOM      6  C   UNL     1      -4.117  -0.720  -0.391  0.00  0.00    +0.017 A 
ATOM      7  C   UNL     1      -4.407   0.632  -0.438  0.00  0.00    +0.019 A 
ATOM      8  C   UNL     1      -3.835   1.494   0.480  0.00  0.00    +0.037 A 
ATOM      9  C   UNL     1      -2.976   1.003   1.447  0.00  0.00    +0.068 A 
ATOM     10 CL   UNL     1      -2.261   2.083   2.603  0.00  0.00    -0.081 Cl
ATOM     11 BR   UNL     1      -5.586   1.302  -1.756  0.00  0.00    -0.050 Br
ENDBRANCH   1   4
BRANCH   1  12
ATOM     12  N   UNL     1      -0.081  -0.360   2.386  0.00  0.00    -0.182 NA
ATOM     13  H   UNL     1       0.332   0.270   2.998  0.00  0.00    +0.149 HD
BRANCH  12  14
ATOM     14  C   UNL     1       0.626  -0.768   1.169  0.00  0.00    +0.062 C 
BRANCH  14  16
ATOM     15  C   UNL     1      -0.212   1.272  -0.006  0.00  0.00    +0.006 C 
ATOM     16  C   UNL     1      -0.133  -0.255  -0.057  0.00  0.00    +0.022 C 
ENDBRANCH  14  16
BRANCH  14  17
ATOM     17  C   UNL     1       0.710  -2.294   1.115  0.00  0.00    +0.022 C 
ATOM     18  C   UNL     1       1.344  -2.816   2.406  0.00  0.00    +0.006 C 
ENDBRANCH  14  17
BRANCH  14  19
ATOM     19  C   UNL     1       2.038  -0.179   1.177  0.00  0.00    +0.179 C 
BRANCH  19  20
ATOM     20  O   UNL     1       2.727  -0.577  -0.010  0.00  0.00    -0.393 OA
ATOM     21  H   UNL     1       3.631  -0.239  -0.072  0.00  0.00    +0.209 HD
ENDBRANCH  19  20
ENDBRANCH  14  19
ENDBRANCH  12  14
ENDBRANCH   1  12
TORSDOF 7
