REMARK  Name = ZINC12143274
REMARK  5 active torsions:
REMARK  status: ('A' for Active; 'I' for Inactive)
REMARK    1  A    between atoms: C_11  and  C_13
REMARK    2  A    between atoms: C_13  and  C_14
REMARK    3  A    between atoms: C_14  and  C_15
REMARK    4  A    between atoms: C_15  and  C_16
REMARK    5  A    between atoms: N_18  and  C_19
REMARK                            x       y       z     vdW  Elec       q    Type
REMARK                         _______ _______ _______ _____ _____    ______ ____
ROOT
ATOM      1  C   UNL     1       0.208   3.100   5.821  0.00  0.00    +0.213 C 
ATOM      2  O   UNL     1      -0.588   4.015   5.804  0.00  0.00    -0.276 OA
ATOM      3  N   UNL     1       0.323   2.287   4.752  0.00  0.00    -0.308 N 
ATOM      4  H   UNL     1       0.958   1.554   4.766  0.00  0.00    +0.149 HD
ENDROOT
BRANCH   3   5
ATOM      5  C   UNL     1      -0.513   2.509   3.569  0.00  0.00    +0.110 C 
ATOM      6  C   UNL     1       0.222   1.991   2.342  0.00  0.00    +0.075 C 
ATOM      7  C   UNL     1      -0.761   1.596   1.250  0.00  0.00    +0.113 C 
ATOM      8  C   UNL     1      -0.013   1.086   0.008  0.00  0.00    +0.048 C 
ATOM      9  C   UNL     1      -0.786   1.610  -1.216  0.00  0.00    +0.004 C 
ATOM     10  C   UNL     1      -1.985   2.413  -0.668  0.00  0.00    +0.004 C 
ATOM     11  C   UNL     1      -1.544   2.832   0.758  0.00  0.00    +0.048 C 
ATOM     12  O   UNL     1      -1.660   0.603   1.732  0.00  0.00    -0.485 OA
ATOM     13  C   UNL     1      -2.347   0.916   2.866  0.00  0.00    +0.126 A 
ATOM     14  C   UNL     1      -1.837   1.828   3.773  0.00  0.00    +0.015 A 
ATOM     15  C   UNL     1      -2.564   2.127   4.917  0.00  0.00    +0.009 A 
ATOM     16  C   UNL     1      -3.783   1.520   5.148  0.00  0.00    +0.001 A 
ATOM     17  C   UNL     1      -4.290   0.608   4.241  0.00  0.00    +0.004 A 
ATOM     18  C   UNL     1      -3.573   0.307   3.099  0.00  0.00    +0.046 A 
ENDBRANCH   3   5
BRANCH   1  19
ATOM     19  C   UNL     1       1.067   2.871   7.037  0.00  0.00    +0.096 C 
BRANCH  19  20
ATOM     20  C   UNL     1       0.741   3.925   8.098  0.00  0.00    +0.017 C 
BRANCH  20  21
ATOM     21  C   UNL     1       1.614   3.692   9.333  0.00  0.00    +0.075 C 
BRANCH  21  32
ATOM     22  C   UNL     1      -0.607   8.530  12.869  0.00  0.00    +0.001 A 
ATOM     23  C   UNL     1      -1.249   8.497  11.638  0.00  0.00    +0.002 A 
ATOM     24  C   UNL     1      -0.934   7.536  10.704  0.00  0.00    +0.028 A 
ATOM     25  C   UNL     1       0.042   6.581  10.996  0.00  0.00    +0.078 A 
ATOM     26  C   UNL     1       0.694   6.618  12.249  0.00  0.00    +0.065 A 
ATOM     27  C   UNL     1       0.360   7.600  13.180  0.00  0.00    +0.015 A 
ATOM     28  C   UNL     1       1.718   5.600  12.525  0.00  0.00    +0.259 A 
ATOM     29  O   UNL     1       2.316   5.576  13.585  0.00  0.00    -0.267 OA
ATOM     30  N   UNL     1       1.969   4.690  11.555  0.00  0.00    -0.310 N 
ATOM     31  H   UNL     1       2.638   4.003  11.702  0.00  0.00    +0.170 HD
ATOM     32  C   UNL     1       1.292   4.730  10.377  0.00  0.00    +0.110 A 
ATOM     33  N   UNL     1       0.387   5.620  10.104  0.00  0.00    -0.234 NA
ENDBRANCH  21  32
ENDBRANCH  20  21
ENDBRANCH  19  20
ENDBRANCH   1  19
TORSDOF 5
