REMARK  Name = ZINC54725115
REMARK  9 active torsions:
REMARK  status: ('A' for Active; 'I' for Inactive)
REMARK    1  A    between atoms: C_1  and  C_2
REMARK    2  A    between atoms: C_2  and  C_3
REMARK    3  A    between atoms: C_2  and  C_4
REMARK    4  A    between atoms: C_4  and  C_6
REMARK    5  A    between atoms: C_4  and  N_11
REMARK    6  A    between atoms: C_12  and  C_14
REMARK    7  A    between atoms: C_14  and  C_15
REMARK    8  A    between atoms: C_15  and  C_17
REMARK    9  A    between atoms: C_15  and  N_22
REMARK                            x       y       z     vdW  Elec       q    Type
REMARK                         _______ _______ _______ _____ _____    ______ ____
ROOT
ATOM      1  C   UNL     1       1.730  -4.134  -0.617  0.00  0.00    +0.123 C 
ENDROOT
BRANCH   1   3
ATOM      2  N   UNL     1       0.738  -1.962  -1.265  0.00  0.00    -0.308 N 
ATOM      3  C   UNL     1       1.710  -2.627  -0.608  0.00  0.00    +0.216 C 
ATOM      4  O   UNL     1       2.567  -2.012  -0.011  0.00  0.00    -0.276 OA
ATOM      5  H   UNL     1       0.052  -2.454  -1.743  0.00  0.00    +0.149 HD
BRANCH   2   6
ATOM      6  C   UNL     1       0.718  -0.497  -1.257  0.00  0.00    +0.112 C 
BRANCH   6   7
ATOM      7  C   UNL     1      -0.011   0.002  -2.478  0.00  0.00    +0.010 A 
ATOM      8  C   UNL     1       0.289   1.052  -3.281  0.00  0.00    +0.013 A 
ATOM      9  C   UNL     1      -0.532   1.327  -4.358  0.00  0.00    +0.008 A 
ATOM     10  C   UNL     1      -1.612   0.538  -4.580  0.00  0.00    +0.045 A 
ATOM     11  S   UNL     1      -1.488  -0.641  -3.246  0.00  0.00    -0.100 S 
ENDBRANCH   6   7
BRANCH   6  13
ATOM     12  C   UNL     1      -0.019   1.526   0.010  0.00  0.00    +0.009 C 
ATOM     13  C   UNL     1       0.002  -0.004   0.002  0.00  0.00    +0.008 C 
ATOM     14  C   UNL     1      -1.433  -0.534   0.013  0.00  0.00    +0.009 C 
ENDBRANCH   6  13
ENDBRANCH   2   6
ENDBRANCH   1   3
BRANCH   1  15
ATOM     15  C   UNL     1       2.926  -4.632   0.197  0.00  0.00    +0.120 C 
BRANCH  15  16
ATOM     16  N   UNL     1       2.753  -4.254   1.602  0.00  0.00    -0.292 N 
ATOM     17  C   UNL     1       1.683  -4.697   2.292  0.00  0.00    +0.298 C 
ATOM     18  O   UNL     1       0.862  -5.410   1.748  0.00  0.00    -0.253 OA
ATOM     19  N   UNL     1       1.524  -4.350   3.584  0.00  0.00    -0.313 N 
ATOM     20  H   UNL     1       3.408  -3.686   2.035  0.00  0.00    +0.151 HD
ATOM     21  H   UNL     1       2.179  -3.781   4.018  0.00  0.00    +0.146 HD
ATOM     22  H   UNL     1       0.754  -4.669   4.080  0.00  0.00    +0.146 HD
ENDBRANCH  15  16
BRANCH  15  23
ATOM     23  C   UNL     1       3.018  -6.132   0.087  0.00  0.00    +0.010 A 
ATOM     24  C   UNL     1       3.830  -6.883  -0.697  0.00  0.00    +0.013 A 
ATOM     25  C   UNL     1       3.740  -8.260  -0.630  0.00  0.00    +0.008 A 
ATOM     26  C   UNL     1       2.843  -8.820   0.218  0.00  0.00    +0.045 A 
ATOM     27  S   UNL     1       2.092  -7.382   0.963  0.00  0.00    -0.100 S 
ENDBRANCH  15  23
ENDBRANCH   1  15
TORSDOF 7
