REMARK  Name = ZINC04085408
REMARK  5 active torsions:
REMARK  status: ('A' for Active; 'I' for Inactive)
REMARK    1  A    between atoms: C_1  and  C_2
REMARK    2  A    between atoms: N_20  and  C_23
REMARK    3  A    between atoms: C_28  and  C_29
REMARK    4  A    between atoms: N_31  and  C_32
REMARK    5  A    between atoms: C_32  and  C_33
REMARK                            x       y       z     vdW  Elec       q    Type
REMARK                         _______ _______ _______ _____ _____    ______ ____
ROOT
ATOM      1  C   UNL     1       5.290   2.086  -1.403  0.00  0.00    +0.035 C 
ATOM      2  C   UNL     1       4.785   2.601  -0.053  0.00  0.00    +0.122 C 
ATOM      3  C   UNL     1       3.270   2.574  -0.020  0.00  0.00    +0.041 A 
ATOM      4  C   UNL     1       2.502   3.684  -0.004  0.00  0.00    -0.015 A 
ATOM      5  C   UNL     1       1.122   3.238   0.008  0.00  0.00    +0.003 A 
ATOM      6  C   UNL     1      -0.094   3.928   0.023  0.00  0.00    +0.010 A 
ATOM      7  C   UNL     1      -1.238   3.169   0.029  0.00  0.00    +0.001 A 
ATOM      8  C   UNL     1      -1.202   1.784   0.017  0.00  0.00    +0.002 A 
ATOM      9  C   UNL     1      -0.013   1.076   0.008  0.00  0.00    +0.026 A 
ATOM     10  C   UNL     1       1.165   1.821   0.001  0.00  0.00    +0.047 A 
ATOM     11  N   UNL     1       2.480   1.456  -0.013  0.00  0.00    -0.356 N 
ATOM     12  H   UNL     1       2.806   0.542  -0.017  0.00  0.00    +0.166 HD
ATOM     13  C   UNL     1       3.007   5.106   0.009  0.00  0.00    +0.069 C 
ATOM     14  C   UNL     1       4.455   5.135  -0.493  0.00  0.00    +0.169 C 
ATOM     15  N   UNL     1       5.177   4.004   0.130  0.00  0.00    -0.265 N 
ATOM     16  C   UNL     1       6.173   4.519   0.854  0.00  0.00    +0.317 C 
ATOM     17  O   UNL     1       6.990   3.851   1.455  0.00  0.00    -0.252 OA
ATOM     18  N   UNL     1       6.166   5.860   0.841  0.00  0.00    -0.192 N 
ATOM     19  C   UNL     1       5.160   6.360   0.053  0.00  0.00    +0.248 C 
ATOM     20  O   UNL     1       4.881   7.520  -0.163  0.00  0.00    -0.273 OA
ENDROOT
BRANCH  18  21
ATOM     21  C   UNL     1       7.080   6.655   1.535  0.00  0.00    +0.058 A 
ATOM     22  C   UNL     1       8.265   7.047   0.928  0.00  0.00    +0.025 A 
ATOM     23  C   UNL     1       9.167   7.834   1.615  0.00  0.00    +0.002 A 
ATOM     24  C   UNL     1       8.898   8.238   2.913  0.00  0.00    +0.001 A 
ATOM     25  C   UNL     1       7.726   7.859   3.531  0.00  0.00    +0.015 A 
ATOM     26  C   UNL     1       6.802   7.067   2.846  0.00  0.00    +0.059 A 
BRANCH  26  27
ATOM     27  C   UNL     1       5.543   6.662   3.500  0.00  0.00    +0.246 C 
ATOM     28  O   UNL     1       4.743   5.969   2.901  0.00  0.00    -0.270 OA
ATOM     29  N   UNL     1       5.280   7.059   4.760  0.00  0.00    -0.308 N 
ATOM     30  H   UNL     1       5.919   7.612   5.238  0.00  0.00    +0.149 HD
BRANCH  29  31
ATOM     31  C   UNL     1       4.030   6.657   5.410  0.00  0.00    +0.131 C 
BRANCH  31  32
ATOM     32  C   UNL     1       3.981   7.229   6.803  0.00  0.00    -0.016 C 
ATOM     33  C   UNL     1       2.962   7.964   7.174  0.00  0.00    +0.005 C 
ENDBRANCH  31  32
ENDBRANCH  29  31
ENDBRANCH  26  27
ENDBRANCH  18  21
TORSDOF 4
