REMARK  Name = ZINC31934598
REMARK  7 active torsions:
REMARK  status: ('A' for Active; 'I' for Inactive)
REMARK    1  A    between atoms: C_1  and  C_2
REMARK    2  A    between atoms: C_2  and  C_3
REMARK    3  A    between atoms: C_2  and  C_4
REMARK    4  A    between atoms: C_2  and  N_5
REMARK    5  A    between atoms: N_5  and  C_6
REMARK    6  A    between atoms: C_6  and  C_7
REMARK    7  A    between atoms: N_20  and  C_21
REMARK                            x       y       z     vdW  Elec       q    Type
REMARK                         _______ _______ _______ _____ _____    ______ ____
ROOT
ATOM      1  C   UNL     1      -1.833   7.790  -0.526  0.00  0.00    +0.097 A 
ATOM      2  N   UNL     1      -1.847   6.949  -1.537  0.00  0.00    -0.228 NA
ATOM      3  C   UNL     1      -1.627   5.666  -1.267  0.00  0.00    +0.116 A 
ATOM      4  C   UNL     1      -1.384   5.165   0.031  0.00  0.00    +0.076 A 
ATOM      5  C   UNL     1      -1.167   3.733   0.135  0.00  0.00    -0.023 A 
ATOM      6  C   UNL     1      -1.218   3.026  -1.018  0.00  0.00    -0.004 A 
ATOM      7  S   UNL     1      -1.557   4.224  -2.283  0.00  0.00    -0.073 S 
ATOM      8  C   UNL     1      -1.030   1.550  -1.186  0.00  0.00    +0.043 C 
ATOM      9  C   UNL     1      -0.402   0.990   0.098  0.00  0.00    +0.005 C 
ATOM     10  C   UNL     1      -1.171   1.538   1.304  0.00  0.00    +0.005 C 
ATOM     11  C   UNL     1      -0.893   3.032   1.463  0.00  0.00    +0.037 C 
ATOM     12  C   UNL     1      -1.377   6.116   1.106  0.00  0.00    +0.263 A 
ATOM     13  O   UNL     1      -1.177   5.787   2.262  0.00  0.00    -0.267 OA
ATOM     14  N   UNL     1      -1.608   7.403   0.752  0.00  0.00    -0.295 N 
ENDROOT
BRANCH  14  15
ATOM     15  C   UNL     1      -1.615   8.425   1.802  0.00  0.00    +0.092 C 
ATOM     16  C   UNL     1      -2.394   8.117   3.083  0.00  0.00    +0.027 C 
ATOM     17  C   UNL     1      -2.938   9.140   2.083  0.00  0.00    +0.027 C 
ENDBRANCH  14  15
BRANCH   1  18
ATOM     18  C   UNL     1      -2.078   9.251  -0.803  0.00  0.00    -0.006 C 
BRANCH  18  19
ATOM     19  N   UNL     1      -2.296   9.446  -2.243  0.00  0.00    +0.387 N 
ATOM     20  H   UNL     1      -3.167   8.850  -2.551  0.00  0.00    -0.085 HD
ATOM     21  H   UNL     1      -1.404   9.101  -2.785  0.00  0.00    -0.085 HD
BRANCH  19  23
ATOM     22  C   UNL     1      -1.327  11.692  -2.121  0.00  0.00    -0.011 C 
ATOM     23  C   UNL     1      -2.539  10.862  -2.551  0.00  0.00    -0.076 C 
ATOM     24  C   UNL     1      -2.762  11.026  -4.055  0.00  0.00    -0.011 C 
ATOM     25  C   UNL     1      -3.780  11.343  -1.796  0.00  0.00    -0.011 C 
ENDBRANCH  19  23
ENDBRANCH  18  19
ENDBRANCH   1  18
TORSDOF 4
