REMARK  Name = ZINC18019242
REMARK  13 active torsions:
REMARK  status: ('A' for Active; 'I' for Inactive)
REMARK    1  A    between atoms: C_1  and  C_2
REMARK    2  A    between atoms: C_2  and  N_61
REMARK    3  A    between atoms: C_3  and  C_4
REMARK    4  A    between atoms: C_3  and  N_61
REMARK    5  A    between atoms: C_5  and  C_7
REMARK    6  A    between atoms: C_5  and  C_27
REMARK    7  A    between atoms: C_5  and  N_61
REMARK    8  A    between atoms: C_7  and  N_8
REMARK    9  A    between atoms: C_9  and  C_11
REMARK   10  A    between atoms: C_14  and  S_17
REMARK   11  A    between atoms: S_17  and  N_20
REMARK   12  A    between atoms: N_20  and  C_21
REMARK   13  A    between atoms: C_21  and  C_22
REMARK                            x       y       z     vdW  Elec       q    Type
REMARK                         _______ _______ _______ _____ _____    ______ ____
ROOT
ATOM      1  N   UNL     1      -0.318  -1.293   1.651  0.00  0.00    -0.313 N 
ATOM      2  C   UNL     1      -0.531  -1.635   2.938  0.00  0.00    +0.244 C 
ATOM      3  O   UNL     1      -0.708  -0.771   3.775  0.00  0.00    -0.270 OA
ATOM      4  H   UNL     1      -0.177  -1.982   0.984  0.00  0.00    +0.149 HD
ENDROOT
BRANCH   2   5
ATOM      5  C   UNL     1      -0.551  -3.060   3.330  0.00  0.00    +0.037 A 
ATOM      6  C   UNL     1      -0.355  -4.054   2.371  0.00  0.00    +0.015 A 
ATOM      7  C   UNL     1      -0.370  -5.382   2.744  0.00  0.00    +0.029 A 
ATOM      8  C   UNL     1      -0.590  -5.730   4.066  0.00  0.00    +0.105 A 
ATOM      9  C   UNL     1      -0.790  -4.749   5.021  0.00  0.00    +0.029 A 
ATOM     10  C   UNL     1      -0.772  -3.417   4.661  0.00  0.00    +0.015 A 
BRANCH   8  11
ATOM     11  S   UNL     1      -0.614  -7.428   4.534  0.00  0.00    +0.059 S 
ATOM     12  O   UNL     1       0.141  -8.130   3.555  0.00  0.00    -0.153 OA
ATOM     13  O   UNL     1      -0.294  -7.473   5.918  0.00  0.00    -0.153 OA
BRANCH  11  14
ATOM     14  N   UNL     1      -2.178  -7.953   4.392  0.00  0.00    -0.183 NA
ATOM     15  H   UNL     1      -2.670  -8.229   5.181  0.00  0.00    +0.148 HD
BRANCH  14  16
ATOM     16  C   UNL     1      -2.818  -8.000   3.075  0.00  0.00    +0.180 C 
BRANCH  16  17
ATOM     17  C   UNL     1      -4.068  -8.838   3.154  0.00  0.00    +0.120 A 
ATOM     18  C   UNL     1      -5.301  -8.385   3.445  0.00  0.00    +0.046 A 
ATOM     19  C   UNL     1      -6.167  -9.503   3.410  0.00  0.00    +0.041 A 
ATOM     20  C   UNL     1      -5.411 -10.571   3.099  0.00  0.00    +0.195 A 
ATOM     21  O   UNL     1      -4.142 -10.161   2.939  0.00  0.00    -0.466 OA
ENDBRANCH  16  17
ENDBRANCH  14  16
ENDBRANCH  11  14
ENDBRANCH   8  11
ENDBRANCH   2   5
BRANCH   1  22
ATOM     22  C   UNL     1      -0.298   0.119   1.262  0.00  0.00    +0.094 C 
BRANCH  22  23
ATOM     23  C   UNL     1      -0.165   0.227  -0.258  0.00  0.00    -0.020 C 
BRANCH  23  24
ATOM     24  C   UNL     1      -0.308   1.669  -0.673  0.00  0.00    -0.059 A 
ATOM     25  C   UNL     1      -1.398   2.406  -0.249  0.00  0.00    +0.002 A 
ATOM     26  C   UNL     1      -1.526   3.729  -0.627  0.00  0.00    +0.000 A 
ATOM     27  C   UNL     1      -0.570   4.314  -1.436  0.00  0.00    +0.000 A 
ATOM     28  C   UNL     1       0.518   3.575  -1.864  0.00  0.00    +0.000 A 
ATOM     29  C   UNL     1       0.649   2.253  -1.483  0.00  0.00    +0.002 A 
ENDBRANCH  23  24
BRANCH  23  30
ATOM     30  N   UNL     1      -1.221  -0.597  -0.883  0.00  0.00    +0.385 N 
ATOM     31  H   UNL     1      -1.401  -1.415  -0.290  0.00  0.00    -0.081 HD
BRANCH  30  33
ATOM     32  C   UNL     1      -3.191   0.175   0.340  0.00  0.00    -0.017 C 
ATOM     33  C   UNL     1      -2.467   0.189  -1.008  0.00  0.00    -0.081 C 
ENDBRANCH  30  33
BRANCH  30  34
ATOM     34  C   UNL     1      -0.779  -1.057  -2.216  0.00  0.00    -0.081 C 
ATOM     35  C   UNL     1       0.196  -2.223  -2.034  0.00  0.00    -0.017 C 
ENDBRANCH  30  34
ENDBRANCH  23  30
ENDBRANCH  22  23
ENDBRANCH   1  22
TORSDOF 11
