REMARK  Name = ZINC59227714
REMARK  9 active torsions:
REMARK  status: ('A' for Active; 'I' for Inactive)
REMARK    1  A    between atoms: C_1  and  C_2
REMARK    2  A    between atoms: C_7  and  C_8
REMARK    3  A    between atoms: C_8  and  O_9
REMARK    4  A    between atoms: O_9  and  C_10
REMARK    5  A    between atoms: C_13  and  C_16
REMARK    6  A    between atoms: C_18  and  C_25
REMARK    7  A    between atoms: C_19  and  C_24
REMARK    8  A    between atoms: N_27  and  C_28
REMARK    9  A    between atoms: C_28  and  C_29
REMARK                            x       y       z     vdW  Elec       q    Type
REMARK                         _______ _______ _______ _____ _____    ______ ____
ROOT
ATOM      1  C   UNL     1      -0.122   0.989   8.655  0.00  0.00    +0.139 C 
ATOM      2  C   UNL     1      -1.446   1.269   9.337  0.00  0.00    +0.055 C 
ATOM      3  C   UNL     1      -1.629   0.775  10.579  0.00  0.00    +0.017 C 
ATOM      4  N   UNL     1      -0.654   0.047  11.200  0.00  0.00    -0.300 N 
ATOM      5  C   UNL     1       0.532  -0.231  10.644  0.00  0.00    +0.135 C 
ATOM      6  S   UNL     1       1.666  -1.155  11.533  0.00  0.00    -0.019 S 
ATOM      7  N   UNL     1       0.862   0.194   9.409  0.00  0.00    -0.315 N 
ATOM      8  C   UNL     1      -2.931   1.030  11.293  0.00  0.00    +0.061 C 
ATOM      9  H   UNL     1      -0.832  -0.288  12.092  0.00  0.00    +0.154 HD
ATOM     10  H   UNL     1       1.727  -0.019   9.026  0.00  0.00    +0.149 HD
ENDROOT
BRANCH   1  14
ATOM     11  C   UNL     1      -0.934  -1.055   4.991  0.00  0.00    +0.121 A 
ATOM     12  C   UNL     1      -0.771   0.322   4.996  0.00  0.00    +0.046 A 
ATOM     13  C   UNL     1      -0.508   0.981   6.182  0.00  0.00    +0.009 A 
ATOM     14  C   UNL     1      -0.408   0.268   7.362  0.00  0.00    -0.022 A 
ATOM     15  C   UNL     1      -0.570  -1.105   7.359  0.00  0.00    +0.009 A 
ATOM     16  C   UNL     1      -0.839  -1.768   6.177  0.00  0.00    +0.046 A 
BRANCH  11  17
ATOM     17  O   UNL     1      -1.192  -1.706   3.825  0.00  0.00    -0.487 OA
BRANCH  17  18
ATOM     18  C   UNL     1      -1.276  -0.908   2.643  0.00  0.00    +0.264 C 
BRANCH  18  25
ATOM     19  C   UNL     1      -1.541   0.243   0.006  0.00  0.00    +0.044 C 
ATOM     20  C   UNL     1      -1.693  -1.244   0.198  0.00  0.00    -0.044 A 
ATOM     21  C   UNL     1      -1.953  -2.058  -0.889  0.00  0.00    +0.004 A 
ATOM     22  C   UNL     1      -2.093  -3.421  -0.714  0.00  0.00    +0.000 A 
ATOM     23  C   UNL     1      -1.971  -3.972   0.549  0.00  0.00    +0.000 A 
ATOM     24  C   UNL     1      -1.710  -3.158   1.635  0.00  0.00    +0.007 A 
ATOM     25  C   UNL     1      -1.567  -1.795   1.459  0.00  0.00    -0.007 A 
ENDBRANCH  18  25
ENDBRANCH  17  18
ENDBRANCH  11  17
ENDBRANCH   1  14
BRANCH   2  26
ATOM     26  C   UNL     1      -2.456   2.024   8.692  0.00  0.00    +0.244 C 
ATOM     27  O   UNL     1      -2.382   3.239   8.662  0.00  0.00    -0.270 OA
ATOM     28  N   UNL     1      -3.499   1.398   8.112  0.00  0.00    -0.307 N 
ATOM     29  H   UNL     1      -3.522   0.429   8.072  0.00  0.00    +0.149 HD
BRANCH  28  30
ATOM     30  C   UNL     1      -4.598   2.181   7.542  0.00  0.00    +0.139 C 
BRANCH  30  31
ATOM     31  C   UNL     1      -5.629   1.248   6.959  0.00  0.00    -0.030 A 
ATOM     32  C   UNL     1      -5.531   0.846   5.641  0.00  0.00    +0.005 A 
ATOM     33  C   UNL     1      -6.477  -0.009   5.106  0.00  0.00    +0.000 A 
ATOM     34  C   UNL     1      -7.521  -0.462   5.891  0.00  0.00    +0.000 A 
ATOM     35  C   UNL     1      -7.618  -0.061   7.210  0.00  0.00    +0.000 A 
ATOM     36  C   UNL     1      -6.670   0.791   7.746  0.00  0.00    +0.005 A 
ENDBRANCH  30  31
ENDBRANCH  28  30
ENDBRANCH   2  26
TORSDOF 7
