REMARK  Name = ZINC38702110
REMARK  9 active torsions:
REMARK  status: ('A' for Active; 'I' for Inactive)
REMARK    1  A    between atoms: C_1  and  C_2
REMARK    2  A    between atoms: C_4  and  C_37
REMARK    3  A    between atoms: C_5  and  O_36
REMARK    4  A    between atoms: C_6  and  C_8
REMARK    5  A    between atoms: N_16  and  C_28
REMARK    6  A    between atoms: C_17  and  C_19
REMARK    7  A    between atoms: C_22  and  O_27
REMARK    8  A    between atoms: C_23  and  O_25
REMARK    9  A    between atoms: O_25  and  C_26
REMARK                            x       y       z     vdW  Elec       q    Type
REMARK                         _______ _______ _______ _____ _____    ______ ____
ROOT
ATOM      1  C   UNL     1       0.440  -2.613   2.349  0.00  0.00    +0.102 A 
ATOM      2  C   UNL     1       0.357  -2.187   3.679  0.00  0.00    +0.035 A 
ATOM      3  C   UNL     1       0.468  -3.329   4.448  0.00  0.00    +0.126 A 
ATOM      4  N   UNL     1       0.610  -4.366   3.570  0.00  0.00    -0.272 N 
ATOM      5  H   UNL     1       0.711  -5.297   3.820  0.00  0.00    +0.189 HD
ATOM      6  N   UNL     1       0.586  -3.924   2.364  0.00  0.00    -0.173 NA
ATOM      7  C   UNL     1       0.388  -2.948   5.863  0.00  0.00    +0.266 C 
ATOM      8  O   UNL     1       0.453  -3.725   6.796  0.00  0.00    -0.268 OA
ATOM      9  N   UNL     1       0.231  -1.617   5.982  0.00  0.00    -0.280 N 
ATOM     10  C   UNL     1       0.199  -1.035   4.634  0.00  0.00    +0.142 C 
ENDROOT
BRANCH   1  16
ATOM     11  C   UNL     1       0.277   1.935   0.296  0.00  0.00    +0.044 C 
ATOM     12  C   UNL     1       0.293   0.435   0.152  0.00  0.00    -0.049 A 
ATOM     13  C   UNL     1       0.242  -0.137  -1.107  0.00  0.00    +0.010 A 
ATOM     14  C   UNL     1       0.256  -1.512  -1.249  0.00  0.00    -0.008 A 
ATOM     15  C   UNL     1       0.320  -2.325  -0.129  0.00  0.00    +0.129 A 
ATOM     16  C   UNL     1       0.372  -1.750   1.144  0.00  0.00    +0.044 A 
ATOM     17  C   UNL     1       0.363  -0.364   1.276  0.00  0.00    +0.017 A 
ATOM     18  C   UNL     1       0.201  -2.127  -2.624  0.00  0.00    +0.047 C 
BRANCH  15  19
ATOM     19  O   UNL     1       0.333  -3.676  -0.268  0.00  0.00    -0.506 OA
ATOM     20  H   UNL     1       1.219  -4.055  -0.349  0.00  0.00    +0.292 HD
ENDBRANCH  15  19
ENDBRANCH   1  16
BRANCH   9  21
ATOM     21  C   UNL     1       0.114  -0.876   7.240  0.00  0.00    +0.100 C 
ATOM     22  C   UNL     1       1.364  -1.115   8.103  0.00  0.00    +0.047 C 
ATOM     23  C   UNL     1       1.115  -0.609   9.544  0.00  0.00    +0.168 C 
ATOM     24  S   UNL     1      -0.706  -0.788   9.726  0.00  0.00    -0.029 S 
ATOM     25  O   UNL     1      -0.977  -1.826  10.659  0.00  0.00    -0.174 OA
ATOM     26  O   UNL     1      -1.280   0.497   9.924  0.00  0.00    -0.174 OA
ATOM     27  C   UNL     1      -1.125  -1.380   8.033  0.00  0.00    +0.188 C 
ENDBRANCH   9  21
BRANCH  10  28
ATOM     28  C   UNL     1      -1.119  -0.343   4.399  0.00  0.00    -0.019 A 
ATOM     29  C   UNL     1      -1.145   0.908   3.811  0.00  0.00    +0.009 A 
ATOM     30  C   UNL     1      -2.352   1.547   3.593  0.00  0.00    +0.049 A 
ATOM     31  C   UNL     1      -3.538   0.934   3.963  0.00  0.00    +0.158 A 
ATOM     32  C   UNL     1      -3.511  -0.326   4.555  0.00  0.00    +0.162 A 
ATOM     33  C   UNL     1      -2.299  -0.963   4.766  0.00  0.00    +0.055 A 
BRANCH  32  34
ATOM     34  O   UNL     1      -4.672  -0.932   4.920  0.00  0.00    -0.491 OA
ATOM     35  C   UNL     1      -4.579  -2.271   5.409  0.00  0.00    +0.277 C 
ENDBRANCH  32  34
BRANCH  31  36
ATOM     36  O   UNL     1      -4.725   1.561   3.750  0.00  0.00    -0.503 OA
ATOM     37  H   UNL     1      -5.124   1.367   2.891  0.00  0.00    +0.292 HD
ENDBRANCH  31  36
ENDBRANCH  10  28
TORSDOF 6
