REMARK  Name = ZINC20908312
REMARK  8 active torsions:
REMARK  status: ('A' for Active; 'I' for Inactive)
REMARK    1  A    between atoms: C_1  and  C_2
REMARK    2  A    between atoms: C_5  and  C_8
REMARK    3  A    between atoms: N_9  and  N_10
REMARK    4  A    between atoms: C_15  and  S_17
REMARK    5  A    between atoms: S_17  and  C_18
REMARK    6  A    between atoms: C_18  and  C_19
REMARK    7  A    between atoms: N_21  and  C_22
REMARK    8  A    between atoms: N_21  and  C_28
REMARK                            x       y       z     vdW  Elec       q    Type
REMARK                         _______ _______ _______ _____ _____    ______ ____
ROOT
ATOM      1  N   UNL     1       0.650  -6.404   1.074  0.00  0.00    -0.205 N 
ATOM      2  C   UNL     1       0.486  -7.074   2.272  0.00  0.00    +0.232 A 
ATOM      3  N   UNL     1       0.110  -8.362   2.417  0.00  0.00    -0.245 N 
ATOM      4  H   UNL     1      -0.097  -8.990   1.707  0.00  0.00    +0.192 HD
ATOM      5  N   UNL     1       0.076  -8.614   3.798  0.00  0.00    -0.144 NA
ATOM      6  C   UNL     1       0.422  -7.500   4.399  0.00  0.00    +0.211 A 
ATOM      7  N   UNL     1       0.676  -6.569   3.473  0.00  0.00    -0.186 NA
ATOM      8  H   UNL     1       0.486  -6.864   0.235  0.00  0.00    +0.177 HD
ENDROOT
BRANCH   1  10
ATOM      9  C   UNL     1       1.207  -4.434  -0.056  0.00  0.00    +0.138 C 
ATOM     10  N   UNL     1       1.053  -5.063   1.070  0.00  0.00    -0.188 NA
BRANCH   9  15
ATOM     11  C   UNL     1       2.859   1.075  -0.070  0.00  0.00    +0.044 C 
ATOM     12  C   UNL     1       2.426  -0.369  -0.067  0.00  0.00    -0.050 A 
ATOM     13  C   UNL     1       2.194  -1.021  -1.264  0.00  0.00    +0.004 A 
ATOM     14  C   UNL     1       1.798  -2.342  -1.268  0.00  0.00    +0.010 A 
ATOM     15  C   UNL     1       1.631  -3.022  -0.059  0.00  0.00    -0.005 A 
ATOM     16  C   UNL     1       1.868  -2.357   1.146  0.00  0.00    +0.010 A 
ATOM     17  C   UNL     1       2.269  -1.037   1.135  0.00  0.00    +0.004 A 
ENDBRANCH   9  15
ENDBRANCH   1  10
BRANCH   6  18
ATOM     18  S   UNL     1       0.541  -7.271   6.141  0.00  0.00    -0.075 S 
BRANCH  18  19
ATOM     19  C   UNL     1       0.084  -8.887   6.829  0.00  0.00    +0.173 C 
BRANCH  19  20
ATOM     20  C   UNL     1       0.146  -8.828   8.333  0.00  0.00    +0.226 C 
ATOM     21  O   UNL     1       0.256  -7.759   8.895  0.00  0.00    -0.275 OA
ATOM     22  N   UNL     1       0.078  -9.964   9.055  0.00  0.00    -0.295 N 
BRANCH  22  23
ATOM     23  C   UNL     1      -0.016  -9.899  10.516  0.00  0.00    +0.076 C 
ATOM     24  C   UNL     1      -1.280  -9.134  10.912  0.00  0.00    +0.022 C 
ATOM     25  C   UNL     1      -1.378  -9.066  12.437  0.00  0.00    +0.002 C 
ATOM     26  C   UNL     1      -0.149  -8.346  12.996  0.00  0.00    +0.000 C 
ATOM     27  C   UNL     1       1.115  -9.111  12.600  0.00  0.00    +0.002 C 
ATOM     28  C   UNL     1       1.213  -9.179  11.075  0.00  0.00    +0.022 C 
ENDBRANCH  22  23
BRANCH  22  29
ATOM     29  C   UNL     1       0.098 -11.264   8.379  0.00  0.00    +0.076 C 
ATOM     30  C   UNL     1       1.455 -11.465   7.702  0.00  0.00    +0.022 C 
ATOM     31  C   UNL     1       1.477 -12.822   6.996  0.00  0.00    +0.002 C 
ATOM     32  C   UNL     1       0.369 -12.866   5.942  0.00  0.00    +0.000 C 
ATOM     33  C   UNL     1      -0.988 -12.665   6.620  0.00  0.00    +0.002 C 
ATOM     34  C   UNL     1      -1.010 -11.308   7.325  0.00  0.00    +0.022 C 
ENDBRANCH  22  29
ENDBRANCH  19  20
ENDBRANCH  18  19
ENDBRANCH   6  18
TORSDOF 7
