REMARK  Name = ZINC39596683
REMARK  6 active torsions:
REMARK  status: ('A' for Active; 'I' for Inactive)
REMARK    1  A    between atoms: C_1  and  C_2
REMARK    2  A    between atoms: C_2  and  C_4
REMARK    3  A    between atoms: C_2  and  N_10
REMARK    4  A    between atoms: C_11  and  C_13
REMARK    5  A    between atoms: C_24  and  C_26
REMARK    6  A    between atoms: C_32  and  C_34
REMARK                            x       y       z     vdW  Elec       q    Type
REMARK                         _______ _______ _______ _____ _____    ______ ____
ROOT
ATOM      1  C   UNL     1       0.780  -1.133   3.576  0.00  0.00    +0.100 C 
ATOM      2  C   UNL     1       1.973  -0.207   3.907  0.00  0.00    +0.121 C 
ATOM      3  N   UNL     1       1.444   0.739   4.917  0.00  0.00    -0.299 N 
ATOM      4  C   UNL     1       0.577  -0.094   5.784  0.00  0.00    +0.115 C 
ATOM      5  C   UNL     1      -0.132  -1.058   4.812  0.00  0.00    -0.004 C 
ATOM      6  C   UNL     1      -1.500  -0.505   4.426  0.00  0.00    -0.010 C 
ATOM      7  C   UNL     1      -2.407  -0.493   5.660  0.00  0.00    -0.082 C 
ATOM      8  N   UNL     1      -2.539  -1.858   6.186  0.00  0.00    +0.379 N 
ATOM      9  C   UNL     1      -1.232  -2.348   6.640  0.00  0.00    -0.082 C 
ATOM     10  C   UNL     1      -0.276  -2.437   5.448  0.00  0.00    -0.010 C 
ATOM     11  C   UNL     1       1.694   2.059   5.023  0.00  0.00    +0.236 C 
ATOM     12  O   UNL     1       1.181   2.704   5.912  0.00  0.00    -0.274 OA
ATOM     13  H   UNL     1      -3.185  -1.857   6.961  0.00  0.00    -0.086 HD
ATOM     14  H   UNL     1      -2.890  -2.464   5.460  0.00  0.00    -0.086 HD
ENDROOT
BRANCH  11  15
ATOM     15  C   UNL     1       2.611   2.734   4.035  0.00  0.00    +0.162 C 
ATOM     16  C   UNL     1       4.082   2.476   4.424  0.00  0.00    +0.033 C 
ATOM     17  C   UNL     1       4.769   3.830   4.106  0.00  0.00    +0.021 C 
ATOM     18  C   UNL     1       3.656   4.839   4.484  0.00  0.00    +0.109 C 
ATOM     19  N   UNL     1       2.397   4.188   4.066  0.00  0.00    -0.283 N 
ATOM     20  C   UNL     1       1.245   4.819   3.765  0.00  0.00    +0.320 C 
ATOM     21  O   UNL     1       0.271   4.177   3.433  0.00  0.00    -0.266 OA
BRANCH  20  22
ATOM     22  C   UNL     1       1.166   6.322   3.840  0.00  0.00    +0.470 C 
ATOM     23  F   UNL     1      -0.120   6.740   3.484  0.00  0.00    -0.162 F 
ATOM     24  F   UNL     1       1.448   6.739   5.145  0.00  0.00    -0.162 F 
ATOM     25  F   UNL     1       2.099   6.882   2.959  0.00  0.00    -0.162 F 
ENDBRANCH  20  22
ENDBRANCH  11  15
BRANCH   1  27
ATOM     26  N   UNL     1      -0.610  -1.501   1.564  0.00  0.00    -0.308 N 
ATOM     27  C   UNL     1       0.051  -0.633   2.355  0.00  0.00    +0.219 C 
ATOM     28  O   UNL     1       0.059   0.549   2.086  0.00  0.00    -0.275 OA
ATOM     29  H   UNL     1      -0.617  -2.446   1.780  0.00  0.00    +0.149 HD
BRANCH  26  31
ATOM     30  C   UNL     1      -0.341  -0.917  -0.796  0.00  0.00    +0.033 C 
ATOM     31  C   UNL     1      -1.318  -1.016   0.377  0.00  0.00    +0.100 C 
BRANCH  31  32
ATOM     32  C   UNL     1      -2.428  -1.974   0.027  0.00  0.00    -0.027 A 
ATOM     33  C   UNL     1      -2.223  -3.337   0.135  0.00  0.00    +0.005 A 
ATOM     34  C   UNL     1      -3.240  -4.216  -0.186  0.00  0.00    +0.000 A 
ATOM     35  C   UNL     1      -4.463  -3.732  -0.614  0.00  0.00    +0.000 A 
ATOM     36  C   UNL     1      -4.667  -2.369  -0.721  0.00  0.00    +0.000 A 
ATOM     37  C   UNL     1      -3.651  -1.490  -0.396  0.00  0.00    +0.005 A 
ENDBRANCH  31  32
ENDBRANCH  26  31
ENDBRANCH   1  27
TORSDOF 5
