REMARK  Name = ZINC21373347
REMARK  4 active torsions:
REMARK  status: ('A' for Active; 'I' for Inactive)
REMARK    1  A    between atoms: C_1  and  C_2
REMARK    2  A    between atoms: C_2  and  C_16
REMARK    3  A    between atoms: N_5  and  C_9
REMARK    4  A    between atoms: C_9  and  C_10
REMARK                            x       y       z     vdW  Elec       q    Type
REMARK                         _______ _______ _______ _____ _____    ______ ____
ROOT
ATOM      1  C   UNL     1      -3.375   3.528  -1.197  0.00  0.00    +0.047 C 
ATOM      2  C   UNL     1      -2.553   3.871   0.047  0.00  0.00    +0.136 C 
ATOM      3  C   UNL     1      -3.331   3.546   1.307  0.00  0.00    +0.251 C 
ATOM      4  O   UNL     1      -3.736   2.458   1.657  0.00  0.00    -0.272 OA
ATOM      5  N   UNL     1      -3.476   4.722   1.955  0.00  0.00    -0.219 N 
ATOM      6  C   UNL     1      -2.906   5.730   1.284  0.00  0.00    +0.310 C 
ATOM      7  O   UNL     1      -2.908   6.883   1.668  0.00  0.00    -0.252 OA
ATOM      8  N   UNL     1      -2.332   5.324   0.138  0.00  0.00    -0.281 N 
ATOM      9  H   UNL     1      -1.782   5.848  -0.658  0.00  0.00    +0.152 HD
ENDROOT
BRANCH   2  10
ATOM     10  C   UNL     1      -1.238   3.135   0.031  0.00  0.00    +0.003 A 
ATOM     11  C   UNL     1      -0.050   3.842   0.024  0.00  0.00    +0.009 A 
ATOM     12  C   UNL     1       1.156   3.167   0.008  0.00  0.00    +0.020 A 
ATOM     13  C   UNL     1       1.175   1.784   0.000  0.00  0.00    +0.042 A 
ATOM     14  C   UNL     1      -0.013   1.076   0.008  0.00  0.00    +0.040 A 
ATOM     15  C   UNL     1      -1.220   1.752   0.017  0.00  0.00    +0.048 A 
ATOM     16 CL   UNL     1      -2.712   0.864   0.019  0.00  0.00    -0.083 Cl
ATOM     17 CL   UNL     1       2.691   0.937  -0.018  0.00  0.00    -0.083 Cl
ENDBRANCH   2  10
BRANCH   5  18
ATOM     18  C   UNL     1      -4.174   4.875   3.234  0.00  0.00    +0.160 C 
BRANCH  18  19
ATOM     19  C   UNL     1      -5.632   5.156   2.980  0.00  0.00    +0.009 A 
ATOM     20  C   UNL     1      -6.659   4.282   2.850  0.00  0.00    +0.014 A 
ATOM     21  C   UNL     1      -7.932   4.771   2.618  0.00  0.00    +0.028 A 
ATOM     22  C   UNL     1      -8.113   6.113   2.527  0.00  0.00    +0.078 A 
ATOM     23  S   UNL     1      -6.456   6.727   2.781  0.00  0.00    -0.080 S 
ATOM     24 CL   UNL     1      -9.577   7.002   2.246  0.00  0.00    -0.076 Cl
ENDBRANCH  18  19
ENDBRANCH   5  18
TORSDOF 3
