REMARK  Name = ZINC12705537
REMARK  8 active torsions:
REMARK  status: ('A' for Active; 'I' for Inactive)
REMARK    1  A    between atoms: C_1  and  C_2
REMARK    2  A    between atoms: C_2  and  C_31
REMARK    3  A    between atoms: C_6  and  C_17
REMARK    4  A    between atoms: C_11  and  O_16
REMARK    5  A    between atoms: C_12  and  O_15
REMARK    6  A    between atoms: C_25  and  S_27
REMARK    7  A    between atoms: S_27  and  C_28
REMARK    8  A    between atoms: C_28  and  C_29
REMARK                            x       y       z     vdW  Elec       q    Type
REMARK                         _______ _______ _______ _____ _____    ______ ____
ROOT
ATOM      1  C   UNL     1      -5.909  -1.767   0.590  0.00  0.00    +0.036 C 
ATOM      2  C   UNL     1      -4.925  -2.873   0.185  0.00  0.00    +0.064 C 
ATOM      3  C   UNL     1      -5.543  -3.719  -0.919  0.00  0.00    +0.098 C 
ATOM      4  C   UNL     1      -4.996  -3.389  -2.305  0.00  0.00    +0.181 C 
ATOM      5  C   UNL     1      -5.567  -2.064  -2.808  0.00  0.00    +0.081 C 
ATOM      6  C   UNL     1      -4.940  -1.731  -4.165  0.00  0.00    +0.059 C 
ATOM      7  C   UNL     1      -4.945  -2.946  -5.056  0.00  0.00    +0.006 A 
ATOM      8  C   UNL     1      -4.721  -2.789  -6.415  0.00  0.00    +0.011 A 
ATOM      9  C   UNL     1      -4.746  -3.880  -7.263  0.00  0.00    +0.050 A 
ATOM     10  C   UNL     1      -4.987  -5.148  -6.756  0.00  0.00    +0.162 A 
ATOM     11  C   UNL     1      -5.197  -5.314  -5.394  0.00  0.00    +0.201 A 
ATOM     12  C   UNL     1      -5.170  -4.211  -4.542  0.00  0.00    +0.172 A 
ATOM     13  O   UNL     1      -5.375  -4.422  -3.216  0.00  0.00    -0.464 OA
ATOM     14  N   UNL     1      -3.532  -3.307  -2.235  0.00  0.00    -0.287 N 
ATOM     15  C   UNL     1      -3.007  -2.479  -1.267  0.00  0.00    +0.153 C 
ATOM     16  N   UNL     1      -3.652  -2.269  -0.171  0.00  0.00    -0.257 NA
ATOM     17  C   UNL     1      -4.699  -3.772   1.414  0.00  0.00    +0.036 C 
ATOM     18  H   UNL     1      -2.966  -3.806  -2.836  0.00  0.00    +0.152 HD
ENDROOT
BRANCH   6  19
ATOM     19  C   UNL     1      -5.736  -0.624  -4.806  0.00  0.00    -0.021 A 
ATOM     20  C   UNL     1      -7.073  -0.815  -5.101  0.00  0.00    +0.005 A 
ATOM     21  C   UNL     1      -7.804   0.202  -5.685  0.00  0.00    +0.000 A 
ATOM     22  C   UNL     1      -7.197   1.408  -5.983  0.00  0.00    +0.001 A 
ATOM     23  C   UNL     1      -5.859   1.599  -5.694  0.00  0.00    +0.020 A 
ATOM     24  C   UNL     1      -5.128   0.583  -5.104  0.00  0.00    +0.045 A 
ATOM     25 CL   UNL     1      -3.447   0.821  -4.741  0.00  0.00    -0.083 Cl
ENDBRANCH   6  19
BRANCH  11  26
ATOM     26  O   UNL     1      -5.428  -6.557  -4.889  0.00  0.00    -0.501 OA
ATOM     27  H   UNL     1      -6.363  -6.802  -4.863  0.00  0.00    +0.292 HD
ENDBRANCH  11  26
BRANCH  10  28
ATOM     28  O   UNL     1      -5.019  -6.222  -7.589  0.00  0.00    -0.503 OA
ATOM     29  H   UNL     1      -5.895  -6.415  -7.949  0.00  0.00    +0.292 HD
ENDBRANCH  10  28
BRANCH  15  30
ATOM     30  S   UNL     1      -1.457  -1.695  -1.540  0.00  0.00    -0.087 S 
BRANCH  30  31
ATOM     31  C   UNL     1      -1.293  -0.775   0.010  0.00  0.00    +0.103 C 
BRANCH  31  32
ATOM     32  C   UNL     1       0.002  -0.004   0.002  0.00  0.00    -0.023 C 
ATOM     33  C   UNL     1      -0.016   1.306   0.009  0.00  0.00    +0.005 C 
ENDBRANCH  31  32
ENDBRANCH  30  31
ENDBRANCH  15  30
TORSDOF 6
