REMARK  Name = ZINC02404292
REMARK  11 active torsions:
REMARK  status: ('A' for Active; 'I' for Inactive)
REMARK    1  A    between atoms: C_1  and  C_2
REMARK    2  A    between atoms: C_2  and  C_4
REMARK    3  A    between atoms: C_2  and  N_12
REMARK    4  A    between atoms: C_4  and  C_5
REMARK    5  A    between atoms: C_5  and  C_6
REMARK    6  A    between atoms: C_13  and  C_15
REMARK    7  A    between atoms: N_26  and  C_29
REMARK    8  A    between atoms: C_27  and  N_28
REMARK    9  A    between atoms: C_29  and  C_30
REMARK   10  A    between atoms: C_35  and  O_36
REMARK   11  A    between atoms: O_36  and  C_37
REMARK                            x       y       z     vdW  Elec       q    Type
REMARK                         _______ _______ _______ _____ _____    ______ ____
ROOT
ATOM      1  C   UNL     1       0.362   2.149   6.276  0.00  0.00    +0.103 A 
ATOM      2  C   UNL     1       0.750   0.980   5.471  0.00  0.00    +0.122 A 
ATOM      3  C   UNL     1      -0.145   0.994   4.310  0.00  0.00    +0.162 A 
ATOM      4  N   UNL     1      -0.029   0.058   3.392  0.00  0.00    -0.226 NA
ATOM      5  C   UNL     1       0.893  -0.903   3.532  0.00  0.00    +0.092 A 
ATOM      6  C   UNL     1       1.018  -1.912   2.559  0.00  0.00    +0.030 A 
ATOM      7  C   UNL     1       1.958  -2.884   2.709  0.00  0.00    +0.002 A 
ATOM      8  C   UNL     1       2.804  -2.899   3.817  0.00  0.00    +0.002 A 
ATOM      9  C   UNL     1       2.712  -1.941   4.778  0.00  0.00    +0.030 A 
ATOM     10  C   UNL     1       1.753  -0.918   4.658  0.00  0.00    +0.090 A 
ATOM     11  N   UNL     1       1.654   0.029   5.598  0.00  0.00    -0.241 NA
ATOM     12  N   UNL     1      -0.967   2.094   4.449  0.00  0.00    -0.307 N 
ATOM     13  C   UNL     1      -0.679   2.769   5.595  0.00  0.00    +0.113 A 
ENDROOT
BRANCH   1  15
ATOM     14  N   UNL     1       1.997   3.425   7.548  0.00  0.00    -0.309 N 
ATOM     15  C   UNL     1       0.953   2.573   7.543  0.00  0.00    +0.250 C 
ATOM     16  O   UNL     1       0.503   2.156   8.595  0.00  0.00    -0.270 OA
ATOM     17  H   UNL     1       2.356   3.757   6.710  0.00  0.00    +0.149 HD
BRANCH  14  19
ATOM     18  C   UNL     1       3.622   2.815   9.271  0.00  0.00    +0.028 C 
ATOM     19  C   UNL     1       2.590   3.850   8.818  0.00  0.00    +0.070 C 
BRANCH  19  20
ATOM     20  C   UNL     1       3.276   5.205   8.633  0.00  0.00    +0.026 C 
BRANCH  20  21
ATOM     21  C   UNL     1       2.225   6.267   8.301  0.00  0.00    +0.037 C 
BRANCH  21  22
ATOM     22  C   UNL     1       2.900   7.602   8.119  0.00  0.00    -0.047 A 
ATOM     23  C   UNL     1       3.067   8.446   9.201  0.00  0.00    +0.003 A 
ATOM     24  C   UNL     1       3.691   9.668   9.034  0.00  0.00    +0.000 A 
ATOM     25  C   UNL     1       4.138  10.051   7.784  0.00  0.00    +0.000 A 
ATOM     26  C   UNL     1       3.965   9.210   6.700  0.00  0.00    +0.000 A 
ATOM     27  C   UNL     1       3.346   7.985   6.868  0.00  0.00    +0.003 A 
ENDBRANCH  21  22
ENDBRANCH  20  21
ENDBRANCH  19  20
ENDBRANCH  14  19
ENDBRANCH   1  15
BRANCH  13  28
ATOM     28  N   UNL     1      -1.325   3.902   6.017  0.00  0.00    -0.344 N 
ATOM     29  H   UNL     1      -2.045   4.277   5.486  0.00  0.00    +0.144 HD
ATOM     30  H   UNL     1      -1.063   4.328   6.848  0.00  0.00    +0.144 HD
ENDBRANCH  13  28
BRANCH  12  31
ATOM     31  C   UNL     1      -2.011   2.478   3.495  0.00  0.00    +0.164 C 
BRANCH  31  32
ATOM     32  C   UNL     1      -1.429   3.408   2.462  0.00  0.00    +0.014 A 
ATOM     33  C   UNL     1      -1.532   4.776   2.627  0.00  0.00    +0.009 A 
ATOM     34  C   UNL     1      -1.003   5.630   1.677  0.00  0.00    +0.001 A 
ATOM     35  C   UNL     1      -0.367   5.117   0.561  0.00  0.00    +0.004 A 
ATOM     36  C   UNL     1      -0.258   3.751   0.393  0.00  0.00    +0.046 A 
ATOM     37  C   UNL     1      -0.787   2.892   1.346  0.00  0.00    +0.125 A 
BRANCH  37  38
ATOM     38  O   UNL     1      -0.682   1.547   1.184  0.00  0.00    -0.495 OA
ATOM     39  C   UNL     1      -0.013   1.086   0.008  0.00  0.00    +0.277 C 
ENDBRANCH  37  38
ENDBRANCH  31  32
ENDBRANCH  12  31
TORSDOF 9
