REMARK  Name = ZINC38999354
REMARK  9 active torsions:
REMARK  status: ('A' for Active; 'I' for Inactive)
REMARK    1  A    between atoms: C_1  and  C_2
REMARK    2  A    between atoms: C_2  and  O_3
REMARK    3  A    between atoms: O_3  and  C_4
REMARK    4  A    between atoms: C_4  and  C_6
REMARK    5  A    between atoms: C_8  and  N_16
REMARK    6  A    between atoms: C_17  and  C_19
REMARK    7  A    between atoms: C_19  and  C_20
REMARK    8  A    between atoms: C_19  and  C_26
REMARK    9  A    between atoms: C_19  and  O_32
REMARK                            x       y       z     vdW  Elec       q    Type
REMARK                         _______ _______ _______ _____ _____    ______ ____
ROOT
ATOM      1  N   UNL     1      -3.732  -0.489  -2.195  0.00  0.00    -0.283 N 
ATOM      2  C   UNL     1      -4.274  -1.171  -3.223  0.00  0.00    +0.258 C 
ATOM      3  O   UNL     1      -4.663  -2.307  -3.060  0.00  0.00    -0.272 OA
ATOM      4  H   UNL     1      -3.469   0.437  -2.311  0.00  0.00    +0.155 HD
ENDROOT
BRANCH   1   6
ATOM      5  C   UNL     1      -3.982  -2.500  -0.605  0.00  0.00    +0.234 C 
ATOM      6  C   UNL     1      -3.552  -1.102  -0.991  0.00  0.00    +0.053 C 
ATOM      7  C   UNL     1      -2.938  -0.574   0.132  0.00  0.00    +0.018 A 
ATOM      8  C   UNL     1      -2.337   0.681   0.391  0.00  0.00    +0.011 A 
ATOM      9  C   UNL     1      -1.802   0.931   1.611  0.00  0.00    +0.001 A 
ATOM     10  C   UNL     1      -1.826  -0.024   2.631  0.00  0.00    +0.002 A 
ATOM     11  C   UNL     1      -2.385  -1.246   2.455  0.00  0.00    +0.026 A 
ATOM     12  C   UNL     1      -2.966  -1.583   1.205  0.00  0.00    +0.045 A 
ATOM     13  N   UNL     1      -3.560  -2.684   0.787  0.00  0.00    -0.367 N 
ATOM     14  H   UNL     1      -3.697  -3.486   1.315  0.00  0.00    +0.161 HD
BRANCH   5  15
ATOM     15  C   UNL     1      -5.479  -2.632  -0.716  0.00  0.00    +0.336 C 
ATOM     16  O   UNL     1      -6.193  -2.115   0.109  0.00  0.00    -0.248 OA
BRANCH  15  17
ATOM     17  O   UNL     1      -6.018  -3.325  -1.731  0.00  0.00    -0.463 OA
BRANCH  17  19
ATOM     18  C   UNL     1      -7.870  -4.231  -2.992  0.00  0.00    +0.048 C 
ATOM     19  C   UNL     1      -7.444  -3.409  -1.774  0.00  0.00    +0.229 C 
ENDBRANCH  17  19
ENDBRANCH  15  17
ENDBRANCH   5  15
ENDBRANCH   1   6
BRANCH   2  20
ATOM     20  C   UNL     1      -4.397  -0.520  -4.577  0.00  0.00    +0.192 C 
BRANCH  20  21
ATOM     21  C   UNL     1      -3.105  -0.689  -5.335  0.00  0.00    -0.003 A 
ATOM     22  C   UNL     1      -2.426  -1.892  -5.284  0.00  0.00    +0.007 A 
ATOM     23  C   UNL     1      -1.241  -2.047  -5.979  0.00  0.00    +0.000 A 
ATOM     24  C   UNL     1      -0.735  -0.999  -6.725  0.00  0.00    +0.000 A 
ATOM     25  C   UNL     1      -1.415   0.204  -6.776  0.00  0.00    +0.000 A 
ATOM     26  C   UNL     1      -2.602   0.358  -6.085  0.00  0.00    +0.007 A 
ENDBRANCH  20  21
BRANCH  20  27
ATOM     27  C   UNL     1      -5.519  -1.168  -5.346  0.00  0.00    -0.003 A 
ATOM     28  C   UNL     1      -6.644  -0.436  -5.676  0.00  0.00    +0.007 A 
ATOM     29  C   UNL     1      -7.673  -1.031  -6.382  0.00  0.00    +0.000 A 
ATOM     30  C   UNL     1      -7.577  -2.358  -6.758  0.00  0.00    +0.000 A 
ATOM     31  C   UNL     1      -6.451  -3.089  -6.428  0.00  0.00    +0.000 A 
ATOM     32  C   UNL     1      -5.420  -2.494  -5.727  0.00  0.00    +0.007 A 
ENDBRANCH  20  27
BRANCH  20  33
ATOM     33  O   UNL     1      -4.674   0.872  -4.412  0.00  0.00    -0.371 OA
ATOM     34  H   UNL     1      -5.493   1.056  -3.932  0.00  0.00    +0.212 HD
ENDBRANCH  20  33
ENDBRANCH   2  20
TORSDOF 8
