REMARK  Name = ZINC19656061
REMARK  3 active torsions:
REMARK  status: ('A' for Active; 'I' for Inactive)
REMARK    1  A    between atoms: C_8  and  C_29
REMARK    2  A    between atoms: C_12  and  C_14
REMARK    3  A    between atoms: N_22  and  C_23
REMARK                            x       y       z     vdW  Elec       q    Type
REMARK                         _______ _______ _______ _____ _____    ______ ____
ROOT
ATOM      1  C   UNL     1      -9.488  -0.109   2.289  0.00  0.00    +0.000 A 
ATOM      2  C   UNL     1     -10.246   0.373   1.238  0.00  0.00    +0.000 A 
ATOM      3  C   UNL     1      -9.967   1.616   0.708  0.00  0.00    +0.005 A 
ATOM      4  C   UNL     1      -8.934   2.387   1.224  0.00  0.00    -0.027 A 
ATOM      5  C   UNL     1      -8.183   1.911   2.275  0.00  0.00    -0.040 A 
ATOM      6  C   UNL     1      -8.466   0.658   2.807  0.00  0.00    +0.004 A 
ATOM      7  C   UNL     1      -7.059   2.696   2.898  0.00  0.00    +0.067 C 
ATOM      8  C   UNL     1      -6.562   3.783   1.946  0.00  0.00    +0.167 C 
ATOM      9  N   UNL     1      -7.739   4.496   1.420  0.00  0.00    -0.281 N 
ATOM     10  C   UNL     1      -8.674   3.730   0.590  0.00  0.00    +0.144 C 
ATOM     11  C   UNL     1      -7.947   5.799   1.692  0.00  0.00    +0.248 C 
ATOM     12  O   UNL     1      -7.207   6.388   2.456  0.00  0.00    -0.270 OA
ENDROOT
BRANCH  11  13
ATOM     13  C   UNL     1      -9.076   6.513   1.061  0.00  0.00    +0.039 A 
ATOM     14  C   UNL     1      -9.001   6.884  -0.290  0.00  0.00    +0.015 A 
ATOM     15  C   UNL     1     -10.037   7.538  -0.886  0.00  0.00    +0.030 A 
ATOM     16  C   UNL     1     -11.179   7.855  -0.152  0.00  0.00    +0.089 A 
ATOM     17  C   UNL     1     -11.270   7.496   1.205  0.00  0.00    +0.113 A 
ATOM     18  C   UNL     1     -10.205   6.820   1.809  0.00  0.00    +0.044 A 
ATOM     19  N   UNL     1     -12.471   7.923   1.661  0.00  0.00    -0.129 NA
ATOM     20  N   UNL     1     -13.122   8.506   0.717  0.00  0.00    -0.064 NA
ATOM     21  N   UNL     1     -12.354   8.494  -0.457  0.00  0.00    -0.241 N 
BRANCH  21  22
ATOM     22  C   UNL     1     -12.734   9.056  -1.756  0.00  0.00    +0.110 C 
ATOM     23  C   UNL     1     -12.986  10.558  -1.608  0.00  0.00    +0.027 C 
ATOM     24  C   UNL     1     -13.382  11.144  -2.964  0.00  0.00    +0.002 C 
ATOM     25  C   UNL     1     -14.656  10.460  -3.463  0.00  0.00    +0.000 C 
ATOM     26  C   UNL     1     -14.404   8.958  -3.611  0.00  0.00    +0.002 C 
ATOM     27  C   UNL     1     -14.008   8.371  -2.255  0.00  0.00    +0.027 C 
ENDBRANCH  21  22
ENDBRANCH  11  13
BRANCH   8  28
ATOM     28  C   UNL     1      -5.673   4.746   2.690  0.00  0.00    +0.231 C 
ATOM     29  O   UNL     1      -4.698   5.216   2.144  0.00  0.00    -0.274 OA
ATOM     30  N   UNL     1      -5.962   5.085   3.962  0.00  0.00    -0.328 N 
ATOM     31  H   UNL     1      -5.313   5.788   4.505  0.00  0.00    +0.145 HD
ATOM     32  H   UNL     1      -6.846   4.659   4.458  0.00  0.00    +0.145 HD
ENDBRANCH   8  28
TORSDOF 3
