REMARK  Name = ZINC62819207
REMARK  2 active torsions:
REMARK  status: ('A' for Active; 'I' for Inactive)
REMARK    1  A    between atoms: N_11  and  C_12
REMARK    2  A    between atoms: C_17  and  C_18
REMARK                            x       y       z     vdW  Elec       q    Type
REMARK                         _______ _______ _______ _____ _____    ______ ____
ROOT
ATOM      1  C   UNL     1      -0.099   1.136   0.013  0.00  0.00    +0.000 A 
ATOM      2  C   UNL     1       1.045   1.914   0.042  0.00  0.00    +0.002 A 
ATOM      3  C   UNL     1       2.291   1.318   0.006  0.00  0.00    +0.023 A 
ATOM      4  C   UNL     1       2.389  -0.065  -0.053  0.00  0.00    +0.035 A 
ATOM      5  C   UNL     1       1.241  -0.841  -0.060  0.00  0.00    -0.043 A 
ATOM      6  C   UNL     1      -0.002  -0.243  -0.040  0.00  0.00    +0.003 A 
ATOM      7  C   UNL     1       1.358  -2.354  -0.057  0.00  0.00    -0.045 C 
ATOM      8  N   UNL     1       1.896  -2.797  -1.344  0.00  0.00    +0.383 N 
ATOM      9  C   UNL     1       3.356  -2.791  -1.345  0.00  0.00    -0.063 C 
ATOM     10  C   UNL     1       3.969  -1.413  -1.365  0.00  0.00    +0.092 C 
ATOM     11  N   UNL     1       3.639  -0.689  -0.125  0.00  0.00    -0.301 N 
ATOM     12  H   UNL     1       1.570  -3.732  -1.534  0.00  0.00    -0.085 HD
ATOM     13  H   UNL     1       1.564  -2.180  -2.070  0.00  0.00    -0.085 HD
ENDROOT
BRANCH  11  14
ATOM     14  C   UNL     1       4.537  -0.628   0.934  0.00  0.00    +0.048 A 
ATOM     15  C   UNL     1       4.407  -1.499   2.009  0.00  0.00    +0.024 A 
ATOM     16  C   UNL     1       5.300  -1.437   3.060  0.00  0.00    +0.003 A 
ATOM     17  C   UNL     1       6.330  -0.510   3.054  0.00  0.00    +0.021 A 
ATOM     18  C   UNL     1       6.475   0.362   1.995  0.00  0.00    +0.055 A 
ATOM     19  C   UNL     1       5.582   0.309   0.920  0.00  0.00    +0.076 A 
ATOM     20 CL   UNL     1       7.767   1.521   1.995  0.00  0.00    -0.083 Cl
BRANCH  19  21
ATOM     21  C   UNL     1       5.734   1.234  -0.217  0.00  0.00    +0.245 C 
ATOM     22  O   UNL     1       5.270   2.356  -0.154  0.00  0.00    -0.270 OA
ATOM     23  N   UNL     1       6.386   0.836  -1.327  0.00  0.00    -0.325 N 
ATOM     24  H   UNL     1       6.756  -0.060  -1.377  0.00  0.00    +0.145 HD
ATOM     25  H   UNL     1       6.486   1.444  -2.075  0.00  0.00    +0.145 HD
ENDBRANCH  19  21
ENDBRANCH  11  14
TORSDOF 2
