REMARK  Name = ZINC22851896
REMARK  5 active torsions:
REMARK  status: ('A' for Active; 'I' for Inactive)
REMARK    1  A    between atoms: C_1  and  C_2
REMARK    2  A    between atoms: N_5  and  C_8
REMARK    3  A    between atoms: C_8  and  C_10
REMARK    4  A    between atoms: C_8  and  C_17
REMARK    5  A    between atoms: C_23  and  C_25
REMARK                            x       y       z     vdW  Elec       q    Type
REMARK                         _______ _______ _______ _____ _____    ______ ____
ROOT
ATOM      1  C   UNL     1      -0.013   1.086   0.008  0.00  0.00    +0.006 C 
ENDROOT
BRANCH   1   2
ATOM      2  C   UNL     1      -0.742   1.585  -1.213  0.00  0.00    +0.050 A 
ATOM      3  C   UNL     1      -1.538   0.914  -2.053  0.00  0.00    +0.282 A 
ATOM      4  N   UNL     1      -2.121   1.548  -3.123  0.00  0.00    -0.169 N 
ATOM      5  C   UNL     1      -1.849   2.879  -3.283  0.00  0.00    +0.200 A 
ATOM      6  S   UNL     1      -0.774   3.229  -1.912  0.00  0.00    -0.050 S 
ATOM      7  N   UNL     1      -2.471   3.333  -4.335  0.00  0.00    -0.197 NA
ATOM      8  C   UNL     1      -3.167   2.337  -4.901  0.00  0.00    +0.218 A 
ATOM      9  N   UNL     1      -2.986   1.236  -4.204  0.00  0.00    -0.138 NA
ATOM     10  O   UNL     1      -1.774  -0.409  -1.845  0.00  0.00    -0.265 OA
BRANCH   8  11
ATOM     11  C   UNL     1      -4.003   2.457  -6.114  0.00  0.00    +0.173 A 
ATOM     12  C   UNL     1      -4.196   3.589  -6.842  0.00  0.00    +0.053 A 
ATOM     13  C   UNL     1      -5.057   3.247  -7.904  0.00  0.00    +0.042 A 
ATOM     14  C   UNL     1      -5.344   1.937  -7.773  0.00  0.00    +0.196 A 
ATOM     15  O   UNL     1      -4.701   1.462  -6.694  0.00  0.00    -0.460 OA
ENDBRANCH   8  11
ENDBRANCH   1   2
BRANCH   1  20
ATOM     16  C   UNL     1       5.603   2.151   0.078  0.00  0.00    +0.007 C 
ATOM     17  C   UNL     1       4.247   1.442   0.111  0.00  0.00    -0.018 C 
ATOM     18  C   UNL     1       3.500   1.705  -1.199  0.00  0.00    -0.015 C 
ATOM     19  C   UNL     1       2.121   1.045  -1.136  0.00  0.00    -0.077 C 
ATOM     20  N   UNL     1       1.365   1.594  -0.002  0.00  0.00    +0.387 N 
ATOM     21  C   UNL     1       2.040   1.313   1.271  0.00  0.00    -0.077 C 
ATOM     22  C   UNL     1       3.417   1.981   1.280  0.00  0.00    -0.015 C 
ATOM     23  H   UNL     1       1.323   2.687  -0.126  0.00  0.00    -0.080 HD
ENDBRANCH   1  20
BRANCH   1  24
ATOM     24  C   UNL     1      -0.718   1.572   1.248  0.00  0.00    -0.055 A 
ATOM     25  C   UNL     1      -0.510   2.862   1.700  0.00  0.00    +0.002 A 
ATOM     26  C   UNL     1      -1.161   3.310   2.835  0.00  0.00    +0.002 A 
ATOM     27  C   UNL     1      -2.011   2.465   3.524  0.00  0.00    +0.020 A 
ATOM     28  C   UNL     1      -2.215   1.173   3.074  0.00  0.00    +0.041 A 
ATOM     29  C   UNL     1      -1.568   0.726   1.936  0.00  0.00    +0.022 A 
ATOM     30 CL   UNL     1      -3.282   0.111   3.939  0.00  0.00    -0.084 Cl
ENDBRANCH   1  24
TORSDOF 4
