REMARK  Name = ZINC03532379
REMARK  9 active torsions:
REMARK  status: ('A' for Active; 'I' for Inactive)
REMARK    1  A    between atoms: C_1  and  C_2
REMARK    2  A    between atoms: C_2  and  C_3
REMARK    3  A    between atoms: C_3  and  C_5
REMARK    4  A    between atoms: C_3  and  C_6
REMARK    5  A    between atoms: C_9  and  N_12
REMARK    6  A    between atoms: C_22  and  S_23
REMARK    7  A    between atoms: S_23  and  C_24
REMARK    8  A    between atoms: C_24  and  C_26
REMARK    9  A    between atoms: C_24  and  C_27
REMARK                            x       y       z     vdW  Elec       q    Type
REMARK                         _______ _______ _______ _____ _____    ______ ____
ROOT
ATOM      1  N   UNL     1      -2.429   1.040   0.020  0.00  0.00    -0.255 N 
ATOM      2  C   UNL     1      -2.410  -0.308  -0.095  0.00  0.00    +0.267 A 
ATOM      3  O   UNL     1      -1.361  -0.918  -0.201  0.00  0.00    -0.267 OA
ATOM      4  C   UNL     1      -3.700  -1.010  -0.083  0.00  0.00    +0.065 A 
ATOM      5  C   UNL     1      -3.786  -2.397  -0.191  0.00  0.00    +0.015 A 
ATOM      6  C   UNL     1      -5.013  -3.000  -0.180  0.00  0.00    +0.001 A 
ATOM      7  C   UNL     1      -6.173  -2.245  -0.061  0.00  0.00    +0.002 A 
ATOM      8  C   UNL     1      -6.119  -0.884   0.046  0.00  0.00    +0.028 A 
ATOM      9  C   UNL     1      -4.879  -0.238   0.037  0.00  0.00    +0.079 A 
ATOM     10  N   UNL     1      -4.779   1.107   0.141  0.00  0.00    -0.223 NA
ATOM     11  C   UNL     1      -3.615   1.710   0.132  0.00  0.00    +0.177 A 
ENDROOT
BRANCH   1  15
ATOM     12  C   UNL     1       1.158   3.162   0.012  0.00  0.00    -0.044 A 
ATOM     13  C   UNL     1       0.624   2.714   1.207  0.00  0.00    +0.006 A 
ATOM     14  C   UNL     1      -0.567   2.014   1.213  0.00  0.00    +0.026 A 
ATOM     15  C   UNL     1      -1.224   1.754   0.017  0.00  0.00    +0.052 A 
ATOM     16  C   UNL     1      -0.687   2.210  -1.180  0.00  0.00    +0.026 A 
ATOM     17  C   UNL     1       0.503   2.910  -1.179  0.00  0.00    +0.006 A 
BRANCH  12  18
ATOM     18  C   UNL     1       2.457   3.926   0.009  0.00  0.00    +0.016 C 
ATOM     19  C   UNL     1       2.230   5.315  -0.589  0.00  0.00    +0.012 C 
BRANCH  18  21
ATOM     20  C   UNL     1       4.843   3.880  -0.732  0.00  0.00    +0.004 C 
ATOM     21  C   UNL     1       3.490   3.171  -0.830  0.00  0.00    +0.004 C 
ENDBRANCH  18  21
ENDBRANCH  12  18
ENDBRANCH   1  15
BRANCH  11  22
ATOM     22  S   UNL     1      -3.578   3.466   0.273  0.00  0.00    -0.075 S 
BRANCH  22  23
ATOM     23  C   UNL     1      -5.351   3.810   0.388  0.00  0.00    +0.137 C 
ATOM     24  C   UNL     1      -6.033   3.416  -0.924  0.00  0.00    +0.029 C 
BRANCH  23  25
ATOM     25  C   UNL     1      -5.562   5.281   0.642  0.00  0.00    +0.233 C 
ATOM     26  O   UNL     1      -4.720   6.082   0.299  0.00  0.00    -0.274 OA
ATOM     27  N   UNL     1      -6.688   5.705   1.250  0.00  0.00    -0.239 N 
ATOM     28  C   UNL     1      -6.877   7.020   1.477  0.00  0.00    +0.303 C 
ATOM     29  O   UNL     1      -6.032   7.823   1.134  0.00  0.00    -0.253 OA
ATOM     30  N   UNL     1      -8.002   7.444   2.085  0.00  0.00    -0.313 N 
ATOM     31  H   UNL     1      -7.453   4.978   1.561  0.00  0.00    +0.159 HD
ATOM     32  H   UNL     1      -8.156   8.517   2.271  0.00  0.00    +0.146 HD
ATOM     33  H   UNL     1      -8.767   6.716   2.396  0.00  0.00    +0.146 HD
ENDBRANCH  23  25
ENDBRANCH  22  23
ENDBRANCH  11  22
TORSDOF 6
