REMARK  Name = ZINC45638172
REMARK  9 active torsions:
REMARK  status: ('A' for Active; 'I' for Inactive)
REMARK    1  A    between atoms: C_1  and  C_2
REMARK    2  A    between atoms: C_11  and  N_29
REMARK    3  A    between atoms: C_13  and  S_15
REMARK    4  A    between atoms: S_15  and  C_16
REMARK    5  A    between atoms: C_16  and  C_17
REMARK    6  A    between atoms: N_19  and  C_20
REMARK    7  A    between atoms: C_24  and  C_25
REMARK    8  A    between atoms: C_25  and  O_27
REMARK    9  A    between atoms: O_27  and  C_28
REMARK                            x       y       z     vdW  Elec       q    Type
REMARK                         _______ _______ _______ _____ _____    ______ ____
ROOT
ATOM      1  C   UNL     1       1.056   1.186  -0.328  0.00  0.00    +0.008 C 
ATOM      2  C   UNL     1       0.822  -0.326  -0.289  0.00  0.00    -0.009 C 
ATOM      3  C   UNL     1      -0.674  -0.610  -0.127  0.00  0.00    +0.008 C 
ATOM      4  C   UNL     1      -0.944  -2.100  -0.335  0.00  0.00    +0.037 C 
ATOM      5  C   UNL     1      -0.023  -2.902   0.582  0.00  0.00    -0.025 A 
ATOM      6  C   UNL     1       1.085  -2.335   1.109  0.00  0.00    -0.004 A 
ATOM      7  S   UNL     1       1.840  -3.607   2.090  0.00  0.00    -0.073 S 
ATOM      8  C   UNL     1       0.673  -4.896   1.795  0.00  0.00    +0.115 A 
ATOM      9  C   UNL     1      -0.277  -4.290   0.933  0.00  0.00    +0.051 A 
ATOM     10  C   UNL     1      -1.370  -5.098   0.507  0.00  0.00    +0.129 A 
ATOM     11  N   UNL     1      -1.386  -6.347   0.966  0.00  0.00    -0.207 NA
ATOM     12  C   UNL     1      -0.462  -6.850   1.772  0.00  0.00    +0.191 A 
ATOM     13  N   UNL     1       0.586  -6.146   2.206  0.00  0.00    -0.214 NA
ATOM     14  C   UNL     1       1.573  -0.933   0.905  0.00  0.00    +0.046 C 
ENDROOT
BRANCH  10  15
ATOM     15  N   UNL     1      -2.356  -4.613  -0.333  0.00  0.00    -0.343 N 
ATOM     16  H   UNL     1      -2.203  -3.803  -0.844  0.00  0.00    +0.144 HD
ATOM     17  H   UNL     1      -3.201  -5.083  -0.412  0.00  0.00    +0.144 HD
ENDBRANCH  10  15
BRANCH  12  18
ATOM     18  S   UNL     1      -0.624  -8.525   2.293  0.00  0.00    -0.077 S 
BRANCH  18  19
ATOM     19  C   UNL     1      -2.148  -9.090   1.489  0.00  0.00    +0.173 C 
BRANCH  19  20
ATOM     20  C   UNL     1      -2.407 -10.528   1.857  0.00  0.00    +0.228 C 
ATOM     21  O   UNL     1      -1.638 -11.114   2.590  0.00  0.00    -0.275 OA
ATOM     22  N   UNL     1      -3.492 -11.164   1.371  0.00  0.00    -0.284 N 
ATOM     23  H   UNL     1      -4.062 -10.723   0.722  0.00  0.00    +0.155 HD
BRANCH  22  24
ATOM     24  C   UNL     1      -3.796 -12.455   1.804  0.00  0.00    +0.055 A 
ATOM     25  C   UNL     1      -3.127 -13.059   2.849  0.00  0.00    +0.032 A 
ATOM     26  C   UNL     1      -3.475 -14.315   3.215  0.00  0.00    +0.048 A 
ATOM     27  S   UNL     1      -4.717 -14.728   2.162  0.00  0.00    -0.088 S 
ATOM     28  C   UNL     1      -4.800 -13.222   1.212  0.00  0.00    +0.117 A 
BRANCH  28  29
ATOM     29  C   UNL     1      -5.659 -12.891   0.138  0.00  0.00    +0.347 C 
ATOM     30  O   UNL     1      -5.571 -11.802  -0.399  0.00  0.00    -0.244 OA
BRANCH  29  31
ATOM     31  O   UNL     1      -6.577 -13.783  -0.292  0.00  0.00    -0.464 OA
ATOM     32  C   UNL     1      -7.411 -13.382  -1.381  0.00  0.00    +0.280 C 
ENDBRANCH  29  31
ENDBRANCH  28  29
ENDBRANCH  22  24
ENDBRANCH  19  20
ENDBRANCH  18  19
ENDBRANCH  12  18
TORSDOF 7
