REMARK  Name = ZINC09685638
REMARK  6 active torsions:
REMARK  status: ('A' for Active; 'I' for Inactive)
REMARK    1  A    between atoms: C_1  and  C_2
REMARK    2  A    between atoms: C_7  and  S_8
REMARK    3  A    between atoms: S_8  and  N_11
REMARK    4  A    between atoms: N_11  and  C_12
REMARK    5  A    between atoms: C_15  and  C_18
REMARK    6  A    between atoms: C_18  and  C_20
REMARK                            x       y       z     vdW  Elec       q    Type
REMARK                         _______ _______ _______ _____ _____    ______ ____
ROOT
ATOM      1  C   UNL     1       0.292   1.391  -0.081  0.00  0.00    +0.046 C 
ATOM      2  C   UNL     1       0.196  -0.112  -0.129  0.00  0.00    -0.023 A 
ATOM      3  C   UNL     1       0.366  -0.847   1.024  0.00  0.00    +0.016 A 
ATOM      4  C   UNL     1       0.277  -2.236   0.980  0.00  0.00    +0.011 A 
ATOM      5  C   UNL     1       0.013  -2.883  -0.242  0.00  0.00    +0.049 A 
ATOM      6  C   UNL     1      -0.155  -2.123  -1.393  0.00  0.00    +0.055 A 
ATOM      7  C   UNL     1      -0.068  -0.749  -1.332  0.00  0.00    +0.113 A 
ATOM      8  N   UNL     1      -0.022  -4.245  -0.001  0.00  0.00    -0.357 N 
ATOM      9  H   UNL     1      -0.189  -4.920  -0.676  0.00  0.00    +0.166 HD
ATOM     10  C   UNL     1       0.205  -4.502   1.294  0.00  0.00    +0.028 A 
ATOM     11  C   UNL     1       0.397  -3.307   1.972  0.00  0.00    +0.046 A 
ATOM     12  C   UNL     1       0.654  -3.251   3.363  0.00  0.00    +0.165 C 
ATOM     13  O   UNL     1       0.856  -2.193   3.922  0.00  0.00    -0.292 OA
ATOM     14  C   UNL     1       0.668  -4.557   4.127  0.00  0.00    +0.080 C 
ATOM     15  C   UNL     1       1.171  -5.686   3.227  0.00  0.00    +0.014 C 
ATOM     16  C   UNL     1       0.265  -5.838   1.998  0.00  0.00    +0.054 C 
ENDROOT
BRANCH   7  17
ATOM     17  S   UNL     1      -0.289   0.206  -2.796  0.00  0.00    +0.073 S 
ATOM     18  O   UNL     1       0.802   1.114  -2.857  0.00  0.00    -0.150 OA
ATOM     19  O   UNL     1      -0.576  -0.713  -3.841  0.00  0.00    -0.150 OA
BRANCH  17  20
ATOM     20  N   UNL     1      -1.653   1.121  -2.583  0.00  0.00    -0.216 N 
ATOM     21  H   UNL     1      -1.595   2.089  -2.596  0.00  0.00    +0.174 HD
BRANCH  20  22
ATOM     22  C   UNL     1      -2.881   0.501  -2.386  0.00  0.00    +0.048 A 
ATOM     23  C   UNL     1      -3.266  -0.555  -3.209  0.00  0.00    +0.025 A 
ATOM     24  C   UNL     1      -4.470  -1.170  -3.016  0.00  0.00    +0.013 A 
ATOM     25  C   UNL     1      -5.322  -0.730  -1.994  0.00  0.00    +0.017 A 
ATOM     26  C   UNL     1      -4.933   0.335  -1.172  0.00  0.00    +0.013 A 
ATOM     27  C   UNL     1      -3.725   0.941  -1.369  0.00  0.00    +0.025 A 
BRANCH  25  28
ATOM     28  C   UNL     1      -6.619  -1.385  -1.786  0.00  0.00    +0.160 C 
ATOM     29  O   UNL     1      -7.356  -1.004  -0.901  0.00  0.00    -0.292 OA
ATOM     30  C   UNL     1      -7.036  -2.531  -2.671  0.00  0.00    +0.091 C 
ENDBRANCH  25  28
ENDBRANCH  20  22
ENDBRANCH  17  20
ENDBRANCH   7  17
TORSDOF 4
