REMARK  Name = ZINC09244932
REMARK  8 active torsions:
REMARK  status: ('A' for Active; 'I' for Inactive)
REMARK    1  A    between atoms: C_1  and  C_2
REMARK    2  A    between atoms: C_2  and  C_3
REMARK    3  A    between atoms: C_12  and  C_13
REMARK    4  A    between atoms: C_13  and  C_15
REMARK    5  A    between atoms: C_15  and  C_17
REMARK    6  A    between atoms: C_15  and  O_23
REMARK    7  A    between atoms: O_23  and  C_24
REMARK    8  A    between atoms: C_24  and  C_26
REMARK                            x       y       z     vdW  Elec       q    Type
REMARK                         _______ _______ _______ _____ _____    ______ ____
ROOT
ATOM      1  C   UNL     1       3.672   2.182  -0.023  0.00  0.00    +0.277 C 
ENDROOT
BRANCH   1   2
ATOM      2  C   UNL     1       2.377   1.411  -0.015  0.00  0.00    +0.000 A 
ATOM      3  C   UNL     1       1.171   2.086   0.002  0.00  0.00    +0.008 A 
ATOM      4  C   UNL     1      -0.017   1.378   0.010  0.00  0.00    +0.000 A 
ATOM      5  C   UNL     1       0.002  -0.004   0.002  0.00  0.00    +0.000 A 
ATOM      6  C   UNL     1       1.208  -0.679  -0.013  0.00  0.00    +0.000 A 
ATOM      7  C   UNL     1       2.396   0.029  -0.022  0.00  0.00    +0.008 A 
ENDBRANCH   1   2
BRANCH   1   8
ATOM      8  C   UNL     1       4.053   2.538   1.391  0.00  0.00    +0.210 C 
ATOM      9  O   UNL     1       3.829   3.652   1.818  0.00  0.00    -0.288 OA
BRANCH   8  19
ATOM     10  C   UNL     1       6.168   0.388   5.302  0.00  0.00    -0.024 A 
ATOM     11  C   UNL     1       6.120   1.450   6.178  0.00  0.00    +0.005 A 
ATOM     12  C   UNL     1       5.573   2.664   5.788  0.00  0.00    +0.001 A 
ATOM     13  C   UNL     1       5.068   2.821   4.515  0.00  0.00    +0.011 A 
ATOM     14  C   UNL     1       5.110   1.755   3.621  0.00  0.00    +0.011 A 
ATOM     15  C   UNL     1       5.663   0.527   4.013  0.00  0.00    +0.050 A 
ATOM     16  N   UNL     1       5.573  -0.335   2.939  0.00  0.00    -0.360 N 
ATOM     17  H   UNL     1       5.883  -1.254   2.942  0.00  0.00    +0.165 HD
ATOM     18  C   UNL     1       4.989   0.273   1.889  0.00  0.00    +0.095 A 
ATOM     19  C   UNL     1       4.675   1.573   2.222  0.00  0.00    +0.047 A 
BRANCH  10  21
ATOM     20  C   UNL     1       8.236  -0.981   5.317  0.00  0.00    +0.009 C 
ATOM     21  C   UNL     1       6.766  -0.924   5.740  0.00  0.00    +0.034 C 
ENDBRANCH  10  21
ENDBRANCH   8  19
ENDBRANCH   1   8
BRANCH   1  22
ATOM     22  O   UNL     1       3.507   3.397  -0.800  0.00  0.00    -0.444 OA
BRANCH  22  23
ATOM     23  C   UNL     1       3.780   3.322  -2.118  0.00  0.00    +0.361 C 
ATOM     24  O   UNL     1       4.147   2.271  -2.603  0.00  0.00    -0.243 OA
BRANCH  23  25
ATOM     25  C   UNL     1       3.635   4.517  -2.970  0.00  0.00    +0.175 A 
ATOM     26  C   UNL     1       3.937   4.447  -4.409  0.00  0.00    +0.021 A 
ATOM     27  C   UNL     1       4.355   3.277  -5.035  0.00  0.00    +0.011 A 
ATOM     28  C   UNL     1       4.613   3.289  -6.389  0.00  0.00    +0.001 A 
ATOM     29  C   UNL     1       4.454   4.452  -7.133  0.00  0.00    +0.001 A 
ATOM     30  C   UNL     1       4.035   5.620  -6.534  0.00  0.00    +0.014 A 
ATOM     31  C   UNL     1       3.769   5.628  -5.168  0.00  0.00    +0.050 A 
ATOM     32  C   UNL     1       3.319   6.829  -4.449  0.00  0.00    +0.272 A 
ATOM     33  O   UNL     1       3.159   7.883  -5.037  0.00  0.00    -0.266 OA
ATOM     34  N   UNL     1       3.088   6.736  -3.124  0.00  0.00    -0.242 N 
ATOM     35  H   UNL     1       2.791   7.530  -2.653  0.00  0.00    +0.192 HD
ATOM     36  N   UNL     1       3.239   5.656  -2.454  0.00  0.00    -0.164 NA
ENDBRANCH  23  25
ENDBRANCH  22  23
ENDBRANCH   1  22
TORSDOF 7
