REMARK  Name = ZINC39444025
REMARK  11 active torsions:
REMARK  status: ('A' for Active; 'I' for Inactive)
REMARK    1  A    between atoms: C_1  and  C_2
REMARK    2  A    between atoms: C_2  and  C_3
REMARK    3  A    between atoms: C_3  and  C_4
REMARK    4  A    between atoms: C_6  and  C_18
REMARK    5  A    between atoms: C_8  and  C_16
REMARK    6  A    between atoms: C_9  and  N_15
REMARK    7  A    between atoms: C_21  and  O_34
REMARK    8  A    between atoms: C_22  and  C_24
REMARK    9  A    between atoms: C_24  and  O_25
REMARK   10  A    between atoms: O_25  and  C_26
REMARK   11  A    between atoms: O_34  and  C_35
REMARK                            x       y       z     vdW  Elec       q    Type
REMARK                         _______ _______ _______ _____ _____    ______ ____
ROOT
ATOM      1  C   UNL     1      -2.880  -2.608   3.107  0.00  0.00    -0.034 A 
ATOM      2  C   UNL     1      -3.576  -3.799   3.018  0.00  0.00    +0.008 A 
ATOM      3  C   UNL     1      -4.856  -3.892   3.528  0.00  0.00    +0.046 A 
ATOM      4  C   UNL     1      -5.444  -2.789   4.130  0.00  0.00    +0.126 A 
ATOM      5  C   UNL     1      -4.743  -1.595   4.219  0.00  0.00    +0.032 A 
ATOM      6  C   UNL     1      -3.461  -1.509   3.712  0.00  0.00    +0.015 A 
ENDROOT
BRANCH   1   9
ATOM      7  C   UNL     1      -1.413  -2.041   0.005  0.00  0.00    +0.069 C 
ATOM      8  C   UNL     1      -1.491  -2.797   1.073  0.00  0.00    +0.030 C 
ATOM      9  C   UNL     1      -1.483  -2.509   2.549  0.00  0.00    +0.098 C 
ATOM     10  C   UNL     1      -0.593  -3.572   3.166  0.00  0.00    +0.097 C 
ATOM     11  C   UNL     1      -0.140  -4.621   2.448  0.00  0.00    +0.195 C 
ATOM     12  O   UNL     1      -0.367  -4.862   1.145  0.00  0.00    -0.448 OA
ATOM     13  C   UNL     1      -1.503  -4.232   0.545  0.00  0.00    +0.343 C 
ATOM     14  N   UNL     1      -1.327  -4.028  -0.896  0.00  0.00    -0.138 NA
ATOM     15  N   UNL     1      -1.316  -2.809  -1.110  0.00  0.00    -0.155 NA
BRANCH  11  16
ATOM     16  N   UNL     1       0.634  -5.537   3.117  0.00  0.00    -0.329 N 
ATOM     17  H   UNL     1       0.829  -5.411   4.059  0.00  0.00    +0.145 HD
ATOM     18  H   UNL     1       0.985  -6.309   2.648  0.00  0.00    +0.145 HD
ENDBRANCH  11  16
BRANCH  10  19
ATOM     19  C   UNL     1      -0.224  -3.459   4.545  0.00  0.00    +0.101 C 
ATOM     20  N   UNL     1       0.069  -3.369   5.639  0.00  0.00    -0.191 NA
ENDBRANCH  10  19
BRANCH   7  21
ATOM     21  C   UNL     1      -1.433  -0.534   0.013  0.00  0.00    +0.057 C 
BRANCH  21  23
ATOM     22  C   UNL     1      -0.019   1.526   0.010  0.00  0.00    +0.004 C 
ATOM     23  C   UNL     1       0.002  -0.004   0.002  0.00  0.00    +0.003 C 
ENDBRANCH  21  23
ENDBRANCH   7  21
ENDBRANCH   1   9
BRANCH   4  24
ATOM     24  O   UNL     1      -6.704  -2.877   4.632  0.00  0.00    -0.495 OA
ATOM     25  C   UNL     1      -7.365  -4.138   4.505  0.00  0.00    +0.277 C 
ENDBRANCH   4  24
BRANCH   5  26
ATOM     26  C   UNL     1      -5.378  -0.395   4.872  0.00  0.00    +0.268 C 
BRANCH  26  27
ATOM     27  O   UNL     1      -4.464   0.704   4.841  0.00  0.00    -0.484 OA
BRANCH  27  28
ATOM     28  C   UNL     1      -4.885   1.873   5.394  0.00  0.00    +0.156 A 
ATOM     29  C   UNL     1      -6.147   1.958   5.960  0.00  0.00    +0.051 A 
ATOM     30  C   UNL     1      -6.574   3.146   6.522  0.00  0.00    +0.042 A 
ATOM     31  C   UNL     1      -5.742   4.253   6.520  0.00  0.00    +0.126 A 
ATOM     32  C   UNL     1      -4.480   4.171   5.955  0.00  0.00    +0.080 A 
ATOM     33  C   UNL     1      -4.048   2.981   5.398  0.00  0.00    +0.168 A 
ATOM     34  F   UNL     1      -2.815   2.899   4.852  0.00  0.00    -0.202 F 
ATOM     35  F   UNL     1      -6.161   5.413   7.069  0.00  0.00    -0.205 F 
ENDBRANCH  27  28
ENDBRANCH  26  27
ENDBRANCH   5  26
TORSDOF 9
