REMARK  Name = ZINC21319301
REMARK  9 active torsions:
REMARK  status: ('A' for Active; 'I' for Inactive)
REMARK    1  A    between atoms: C_1  and  O_2
REMARK    2  A    between atoms: O_2  and  C_3
REMARK    3  A    between atoms: C_6  and  C_9
REMARK    4  A    between atoms: C_9  and  S_10
REMARK    5  A    between atoms: S_10  and  C_11
REMARK    6  A    between atoms: N_15  and  N_16
REMARK    7  A    between atoms: N_17  and  N_18
REMARK    8  A    between atoms: C_19  and  C_20
REMARK    9  A    between atoms: C_25  and  O_26
REMARK                            x       y       z     vdW  Elec       q    Type
REMARK                         _______ _______ _______ _____ _____    ______ ____
ROOT
ATOM      1  C   UNL     1      -0.809   3.844   1.366  0.00  0.00    +0.210 A 
ATOM      2  N   UNL     1      -0.263   4.523   0.386  0.00  0.00    -0.119 NA
ATOM      3  N   UNL     1      -0.430   5.887   0.658  0.00  0.00    -0.109 NA
ATOM      4  C   UNL     1      -1.073   5.997   1.795  0.00  0.00    +0.254 A 
ATOM      5  N   UNL     1      -1.329   4.736   2.260  0.00  0.00    -0.211 N 
ATOM      6  N   UNL     1      -1.436   7.183   2.416  0.00  0.00    -0.204 N 
ATOM      7  H   UNL     1      -1.975   7.160   3.374  0.00  0.00    +0.177 HD
ENDROOT
BRANCH   5   8
ATOM      8  N   UNL     1      -1.986   4.425   3.416  0.00  0.00    -0.294 N 
ATOM      9  H   UNL     1      -2.366   5.226   4.066  0.00  0.00    +0.163 HD
ATOM     10  H   UNL     1      -2.135   3.372   3.697  0.00  0.00    +0.163 HD
ENDBRANCH   5   8
BRANCH   6  11
ATOM     11  N   UNL     1      -1.114   8.411   1.822  0.00  0.00    -0.187 NA
ATOM     12  C   UNL     1      -1.453   9.522   2.403  0.00  0.00    +0.142 C 
BRANCH  12  13
ATOM     13  C   UNL     1      -1.115  10.813   1.778  0.00  0.00    +0.037 A 
ATOM     14  C   UNL     1      -1.478  12.010   2.400  0.00  0.00    +0.028 A 
ATOM     15  C   UNL     1      -1.158  13.216   1.810  0.00  0.00    +0.019 A 
ATOM     16  C   UNL     1      -0.477  13.243   0.603  0.00  0.00    +0.019 A 
ATOM     17  C   UNL     1      -0.113  12.065  -0.021  0.00  0.00    +0.047 A 
ATOM     18  C   UNL     1      -0.422  10.847   0.560  0.00  0.00    +0.126 A 
ATOM     19 BR   UNL     1      -1.650  14.836   2.651  0.00  0.00    -0.050 Br
BRANCH  18  20
ATOM     20  O   UNL     1      -0.060   9.688  -0.050  0.00  0.00    -0.506 OA
ATOM     21  H   UNL     1       0.484   9.717  -1.006  0.00  0.00    +0.292 HD
ENDBRANCH  18  20
ENDBRANCH  12  13
ENDBRANCH   6  11
BRANCH   1  22
ATOM     22  S   UNL     1      -0.867   2.088   1.503  0.00  0.00    -0.080 S 
BRANCH  22  23
ATOM     23  C   UNL     1      -0.018   1.503   0.010  0.00  0.00    +0.112 C 
BRANCH  23  27
ATOM     24  C   UNL     1       0.040  -2.770  -0.013  0.00  0.00    +0.120 A 
ATOM     25  C   UNL     1      -1.015  -2.086  -0.600  0.00  0.00    +0.046 A 
ATOM     26  C   UNL     1      -1.032  -0.705  -0.591  0.00  0.00    +0.008 A 
ATOM     27  C   UNL     1       0.002  -0.004   0.002  0.00  0.00    -0.037 A 
ATOM     28  C   UNL     1       1.057  -0.683   0.582  0.00  0.00    +0.008 A 
ATOM     29  C   UNL     1       1.076  -2.064   0.581  0.00  0.00    +0.046 A 
BRANCH  24  31
ATOM     30  C   UNL     1       1.175  -4.766   0.602  0.00  0.00    +0.277 C 
ATOM     31  O   UNL     1       0.058  -4.129  -0.020  0.00  0.00    -0.495 OA
ENDBRANCH  24  31
ENDBRANCH  23  27
ENDBRANCH  22  23
ENDBRANCH   1  22
TORSDOF 8
