REMARK  Name = ZINC10440852
REMARK  12 active torsions:
REMARK  status: ('A' for Active; 'I' for Inactive)
REMARK    1  A    between atoms: C_1  and  C_2
REMARK    2  A    between atoms: C_2  and  C_3
REMARK    3  A    between atoms: C_3  and  C_4
REMARK    4  A    between atoms: C_4  and  N_5
REMARK    5  A    between atoms: N_5  and  C_6
REMARK    6  A    between atoms: C_7  and  N_22
REMARK    7  A    between atoms: N_8  and  C_15
REMARK    8  A    between atoms: C_15  and  C_16
REMARK    9  A    between atoms: C_23  and  C_25
REMARK   10  A    between atoms: C_25  and  C_27
REMARK   11  A    between atoms: C_25  and  S_28
REMARK   12  A    between atoms: S_28  and  C_29
REMARK                            x       y       z     vdW  Elec       q    Type
REMARK                         _______ _______ _______ _____ _____    ______ ____
ROOT
ATOM      1  C   UNL     1      -2.853   2.762  -2.274  0.00  0.00    +0.140 A 
ATOM      2  C   UNL     1      -3.873   2.050  -2.871  0.00  0.00    +0.128 A 
ATOM      3  N   UNL     1      -4.487   2.565  -3.989  0.00  0.00    -0.276 N 
ATOM      4  C   UNL     1      -4.091   3.745  -4.500  0.00  0.00    +0.331 A 
ATOM      5  O   UNL     1      -4.642   4.181  -5.492  0.00  0.00    -0.246 OA
ATOM      6  N   UNL     1      -3.095   4.450  -3.934  0.00  0.00    -0.273 N 
ATOM      7  H   UNL     1      -2.820   5.325  -4.334  0.00  0.00    +0.173 HD
ATOM      8  C   UNL     1      -2.465   3.993  -2.835  0.00  0.00    +0.277 A 
ATOM      9  O   UNL     1      -1.563   4.641  -2.330  0.00  0.00    -0.266 OA
ENDROOT
BRANCH   1  10
ATOM     10  N   UNL     1      -2.207   2.262  -1.123  0.00  0.00    -0.263 N 
ATOM     11  C   UNL     1      -0.905   1.912  -1.179  0.00  0.00    +0.233 C 
ATOM     12  O   UNL     1      -0.315   1.939  -2.239  0.00  0.00    -0.274 OA
BRANCH  11  13
ATOM     13  C   UNL     1      -0.185   1.489   0.075  0.00  0.00    +0.134 C 
ATOM     14  C   UNL     1      -0.423  -0.002   0.321  0.00  0.00    +0.029 C 
BRANCH  13  15
ATOM     15  S   UNL     1       1.593   1.793  -0.118  0.00  0.00    -0.113 S 
BRANCH  15  16
ATOM     16  C   UNL     1       1.728   3.550  -0.116  0.00  0.00    +0.009 A 
ATOM     17  C   UNL     1       0.604   4.334   0.115  0.00  0.00    +0.016 A 
ATOM     18  C   UNL     1       0.714   5.710   0.120  0.00  0.00    +0.021 A 
ATOM     19  C   UNL     1       1.940   6.309  -0.114  0.00  0.00    +0.041 A 
ATOM     20  C   UNL     1       3.060   5.531  -0.349  0.00  0.00    +0.021 A 
ATOM     21  C   UNL     1       2.957   4.154  -0.351  0.00  0.00    +0.016 A 
ATOM     22 CL   UNL     1       2.072   8.040  -0.112  0.00  0.00    -0.084 Cl
ENDBRANCH  15  16
ENDBRANCH  13  15
ENDBRANCH  11  13
BRANCH  10  23
ATOM     23  C   UNL     1      -2.950   2.123   0.132  0.00  0.00    +0.114 C 
BRANCH  23  24
ATOM     24  C   UNL     1      -2.883   3.438   0.912  0.00  0.00    +0.019 C 
BRANCH  24  26
ATOM     25  C   UNL     1      -3.592   4.607   3.003  0.00  0.00    +0.004 C 
ATOM     26  C   UNL     1      -3.659   3.293   2.223  0.00  0.00    -0.002 C 
ENDBRANCH  24  26
ENDBRANCH  23  24
ENDBRANCH  10  23
ENDBRANCH   1  10
BRANCH   2  27
ATOM     27  N   UNL     1      -4.275   0.842  -2.352  0.00  0.00    -0.343 N 
ATOM     28  H   UNL     1      -3.853   0.494  -1.551  0.00  0.00    +0.144 HD
ATOM     29  H   UNL     1      -4.980   0.338  -2.787  0.00  0.00    +0.144 HD
ENDBRANCH   2  27
BRANCH   3  30
ATOM     30  C   UNL     1      -5.574   1.822  -4.630  0.00  0.00    +0.163 C 
BRANCH  30  31
ATOM     31  C   UNL     1      -5.003   0.894  -5.671  0.00  0.00    -0.028 A 
ATOM     32  C   UNL     1      -4.849   1.329  -6.974  0.00  0.00    +0.005 A 
ATOM     33  C   UNL     1      -4.320   0.479  -7.928  0.00  0.00    +0.000 A 
ATOM     34  C   UNL     1      -3.956  -0.808  -7.581  0.00  0.00    +0.000 A 
ATOM     35  C   UNL     1      -4.115  -1.244  -6.279  0.00  0.00    +0.000 A 
ATOM     36  C   UNL     1      -4.638  -0.393  -5.324  0.00  0.00    +0.005 A 
ENDBRANCH  30  31
ENDBRANCH   3  30
TORSDOF 10
