REMARK  Name = ZINC36495392
REMARK  11 active torsions:
REMARK  status: ('A' for Active; 'I' for Inactive)
REMARK    1  A    between atoms: C_1  and  C_2
REMARK    2  A    between atoms: C_4  and  C_15
REMARK    3  A    between atoms: C_12  and  C_13
REMARK    4  A    between atoms: C_12  and  C_14
REMARK    5  A    between atoms: N_17  and  C_18
REMARK    6  A    between atoms: N_17  and  C_24
REMARK    7  A    between atoms: C_18  and  C_19
REMARK    8  A    between atoms: C_24  and  C_26
REMARK    9  A    between atoms: C_24  and  C_33
REMARK   10  A    between atoms: C_30  and  O_32
REMARK   11  A    between atoms: N_35  and  C_36
REMARK                            x       y       z     vdW  Elec       q    Type
REMARK                         _______ _______ _______ _____ _____    ______ ____
ROOT
ATOM      1  C   UNL     1      -1.599  -0.972  -2.983  0.00  0.00    +0.220 C 
ATOM      2  O   UNL     1      -2.679  -1.438  -2.690  0.00  0.00    -0.275 OA
ATOM      3  N   UNL     1      -0.642  -1.764  -3.505  0.00  0.00    -0.278 N 
ENDROOT
BRANCH   1   6
ATOM      4  C   UNL     1      -2.780   2.419  -3.517  0.00  0.00    +0.008 C 
ATOM      5  C   UNL     1      -2.623   1.261  -2.538  0.00  0.00    +0.001 C 
ATOM      6  C   UNL     1      -1.326   0.495  -2.764  0.00  0.00    +0.079 C 
ATOM      7  C   UNL     1      -0.310   0.695  -1.646  0.00  0.00    +0.017 C 
ATOM      8  C   UNL     1      -0.979   1.066  -0.320  0.00  0.00    -0.004 C 
ATOM      9  C   UNL     1      -2.397   0.494  -0.163  0.00  0.00    +0.008 C 
ATOM     10  C   UNL     1      -2.813   1.673  -1.083  0.00  0.00    -0.001 C 
ATOM     11  C   UNL     1      -1.677   2.438  -0.409  0.00  0.00    -0.029 C 
ATOM     12  C   UNL     1      -0.934   3.478  -1.242  0.00  0.00    +0.011 C 
ATOM     13  C   UNL     1      -2.053   3.007   0.973  0.00  0.00    +0.011 C 
ENDBRANCH   1   6
BRANCH   3  14
ATOM     14  C   UNL     1       0.710  -1.240  -3.713  0.00  0.00    +0.183 C 
BRANCH  14  15
ATOM     15  C   UNL     1       0.728  -0.372  -4.944  0.00  0.00    +0.122 A 
ATOM     16  C   UNL     1       0.560   0.963  -4.968  0.00  0.00    +0.046 A 
ATOM     17  C   UNL     1       0.650   1.363  -6.321  0.00  0.00    +0.041 A 
ATOM     18  C   UNL     1       0.868   0.249  -7.043  0.00  0.00    +0.195 A 
ATOM     19  O   UNL     1       0.920  -0.798  -6.204  0.00  0.00    -0.466 OA
ENDBRANCH  14  15
ENDBRANCH   3  14
BRANCH   3  20
ATOM     20  C   UNL     1      -0.953  -3.150  -3.863  0.00  0.00    +0.193 C 
BRANCH  20  21
ATOM     21  C   UNL     1      -0.466  -4.072  -2.775  0.00  0.00    -0.015 A 
ATOM     22  C   UNL     1       0.758  -3.844  -2.173  0.00  0.00    +0.006 A 
ATOM     23  C   UNL     1       1.208  -4.688  -1.175  0.00  0.00    +0.004 A 
ATOM     24  C   UNL     1       0.436  -5.762  -0.776  0.00  0.00    +0.045 A 
ATOM     25  C   UNL     1      -0.792  -5.993  -1.378  0.00  0.00    +0.117 A 
ATOM     26  C   UNL     1      -1.244  -5.141  -2.376  0.00  0.00    +0.051 A 
BRANCH  25  27
ATOM     27  O   UNL     1      -1.553  -7.049  -0.988  0.00  0.00    -0.507 OA
ATOM     28  H   UNL     1      -2.167  -6.846  -0.268  0.00  0.00    +0.292 HD
ENDBRANCH  25  27
ENDBRANCH  20  21
BRANCH  20  29
ATOM     29  C   UNL     1      -0.271  -3.499  -5.160  0.00  0.00    +0.238 C 
ATOM     30  O   UNL     1       0.750  -2.929  -5.481  0.00  0.00    -0.273 OA
ATOM     31  N   UNL     1      -0.795  -4.445  -5.964  0.00  0.00    -0.311 N 
ATOM     32  H   UNL     1      -1.612  -4.902  -5.708  0.00  0.00    +0.149 HD
BRANCH  31  33
ATOM     33  C   UNL     1      -0.132  -4.785  -7.226  0.00  0.00    +0.073 C 
ATOM     34  C   UNL     1      -0.586  -3.814  -8.318  0.00  0.00    +0.022 C 
ATOM     35  C   UNL     1       0.107  -4.168  -9.635  0.00  0.00    +0.002 C 
ATOM     36  C   UNL     1      -0.263  -5.597 -10.037  0.00  0.00    +0.000 C 
ATOM     37  C   UNL     1       0.191  -6.568  -8.945  0.00  0.00    +0.002 C 
ATOM     38  C   UNL     1      -0.502  -6.214  -7.628  0.00  0.00    +0.022 C 
ENDBRANCH  31  33
ENDBRANCH  20  29
ENDBRANCH   3  20
TORSDOF 8
