REMARK  Name = ZINC07065514
REMARK  5 active torsions:
REMARK  status: ('A' for Active; 'I' for Inactive)
REMARK    1  A    between atoms: C_1  and  C_2
REMARK    2  A    between atoms: C_8  and  C_10
REMARK    3  A    between atoms: C_10  and  C_12
REMARK    4  A    between atoms: C_10  and  S_13
REMARK    5  A    between atoms: S_13  and  C_14
REMARK                            x       y       z     vdW  Elec       q    Type
REMARK                         _______ _______ _______ _____ _____    ______ ____
ROOT
ATOM      1  C   UNL     1       1.381   8.081   0.767  0.00  0.00    +0.171 A 
ATOM      2  N   UNL     1       0.833   9.231   1.257  0.00  0.00    -0.301 N 
ATOM      3  H   UNL     1      -0.078   9.218   1.592  0.00  0.00    +0.171 HD
ATOM      4  C   UNL     1       1.532  10.380   1.288  0.00  0.00    +0.261 A 
ATOM      5  O   UNL     1       1.029  11.398   1.733  0.00  0.00    -0.267 OA
ATOM      6  C   UNL     1       2.872  10.393   0.787  0.00  0.00    +0.075 A 
ATOM      7  C   UNL     1       3.805  11.519   0.720  0.00  0.00    -0.023 A 
ATOM      8  C   UNL     1       5.024  11.274   0.200  0.00  0.00    -0.004 A 
ATOM      9  S   UNL     1       5.005   9.554  -0.227  0.00  0.00    -0.073 S 
ATOM     10  C   UNL     1       3.354   9.167   0.297  0.00  0.00    +0.117 A 
ATOM     11  N   UNL     1       2.613   8.066   0.299  0.00  0.00    -0.216 NA
ATOM     12  C   UNL     1       6.148  12.249   0.023  0.00  0.00    +0.043 C 
ATOM     13  C   UNL     1       5.588  13.669   0.182  0.00  0.00    +0.005 C 
ATOM     14  C   UNL     1       4.716  13.716   1.440  0.00  0.00    +0.005 C 
ATOM     15  C   UNL     1       3.433  12.915   1.213  0.00  0.00    +0.037 C 
ENDROOT
BRANCH   1  16
ATOM     16  S   UNL     1       0.427   6.600   0.753  0.00  0.00    -0.075 S 
BRANCH  16  17
ATOM     17  C   UNL     1       1.625   5.462   0.015  0.00  0.00    +0.137 C 
ATOM     18  C   UNL     1       1.920   5.894  -1.423  0.00  0.00    +0.029 C 
BRANCH  17  26
ATOM     19  C   UNL     1      -1.194  -0.921   0.008  0.00  0.00    +0.089 C 
ATOM     20  C   UNL     1       0.002  -0.004   0.002  0.00  0.00    +0.136 A 
ATOM     21  C   UNL     1      -0.016   1.348   0.009  0.00  0.00    +0.091 A 
ATOM     22  C   UNL     1       1.357   1.710  -0.002  0.00  0.00    +0.168 A 
ATOM     23  N   UNL     1       2.029   0.589  -0.014  0.00  0.00    -0.063 NA
ATOM     24  O   UNL     1       1.292  -0.370  -0.012  0.00  0.00    -0.358 OA
ATOM     25  N   UNL     1       1.883   3.002  -0.000  0.00  0.00    -0.267 N 
ATOM     26  C   UNL     1       1.057   4.066   0.013  0.00  0.00    +0.231 C 
ATOM     27  O   UNL     1      -0.145   3.900   0.024  0.00  0.00    -0.274 OA
ATOM     28  H   UNL     1       2.844   3.134  -0.009  0.00  0.00    +0.156 HD
ENDBRANCH  17  26
ENDBRANCH  16  17
ENDBRANCH   1  16
TORSDOF 3
