REMARK  Name = ZINC17078768
REMARK  6 active torsions:
REMARK  status: ('A' for Active; 'I' for Inactive)
REMARK    1  A    between atoms: C_1  and  C_2
REMARK    2  A    between atoms: C_7  and  C_8
REMARK    3  A    between atoms: C_8  and  O_10
REMARK    4  A    between atoms: O_10  and  C_11
REMARK    5  A    between atoms: C_16  and  C_18
REMARK    6  A    between atoms: C_20  and  C_25
REMARK                            x       y       z     vdW  Elec       q    Type
REMARK                         _______ _______ _______ _____ _____    ______ ____
ROOT
ATOM      1  C   UNL     1      -6.489  -2.516  -0.698  0.00  0.00    +0.047 C 
ATOM      2  C   UNL     1      -5.507  -1.935   0.287  0.00  0.00    -0.008 A 
ATOM      3  C   UNL     1      -4.430  -1.091  -0.006  0.00  0.00    +0.042 A 
ATOM      4  C   UNL     1      -3.788  -0.791   1.196  0.00  0.00    +0.028 A 
ATOM      5  N   UNL     1      -4.435  -1.422   2.176  0.00  0.00    -0.352 N 
ATOM      6  H   UNL     1      -4.199  -1.390   3.116  0.00  0.00    +0.166 HD
ATOM      7  C   UNL     1      -5.495  -2.130   1.641  0.00  0.00    +0.128 A 
ATOM      8  C   UNL     1      -2.578   0.105   1.275  0.00  0.00    +0.062 C 
ATOM      9  C   UNL     1      -2.514   0.979   0.020  0.00  0.00    +0.034 C 
ATOM     10  C   UNL     1      -2.590   0.117  -1.244  0.00  0.00    +0.088 C 
ATOM     11  C   UNL     1      -3.957  -0.550  -1.289  0.00  0.00    +0.166 C 
ATOM     12  O   UNL     1      -4.609  -0.630  -2.309  0.00  0.00    -0.292 OA
ENDROOT
BRANCH   9  13
ATOM     13  C   UNL     1      -1.219   1.750   0.017  0.00  0.00    -0.025 A 
ATOM     14  C   UNL     1      -0.013   1.076   0.008  0.00  0.00    +0.005 A 
ATOM     15  C   UNL     1       1.175   1.783   0.000  0.00  0.00    +0.000 A 
ATOM     16  C   UNL     1       1.157   3.166   0.007  0.00  0.00    +0.001 A 
ATOM     17  C   UNL     1      -0.048   3.841   0.021  0.00  0.00    +0.020 A 
ATOM     18  C   UNL     1      -1.238   3.134   0.029  0.00  0.00    +0.044 A 
ATOM     19 CL   UNL     1      -2.752   3.982   0.047  0.00  0.00    -0.083 Cl
ENDBRANCH   9  13
BRANCH   7  20
ATOM     20  C   UNL     1      -6.446  -2.951   2.397  0.00  0.00    +0.356 C 
ATOM     21  O   UNL     1      -7.344  -3.531   1.818  0.00  0.00    -0.243 OA
BRANCH  20  22
ATOM     22  O   UNL     1      -6.325  -3.062   3.736  0.00  0.00    -0.457 OA
BRANCH  22  23
ATOM     23  C   UNL     1      -7.302  -3.891   4.420  0.00  0.00    +0.180 C 
ATOM     24  C   UNL     1      -6.776  -5.336   4.541  0.00  0.00    +0.045 C 
ATOM     25  C   UNL     1      -7.271  -5.805   5.932  0.00  0.00    +0.004 C 
ATOM     26  C   UNL     1      -7.112  -4.531   6.798  0.00  0.00    +0.007 C 
ATOM     27  C   UNL     1      -7.517  -3.378   5.854  0.00  0.00    +0.027 C 
ATOM     28  C   UNL     1      -6.634  -2.156   6.112  0.00  0.00    +0.011 C 
ENDBRANCH  22  23
ENDBRANCH  20  22
ENDBRANCH   7  20
TORSDOF 4
