REMARK  Name = ZINC45348218
REMARK  6 active torsions:
REMARK  status: ('A' for Active; 'I' for Inactive)
REMARK    1  A    between atoms: C_1  and  N_2
REMARK    2  A    between atoms: C_6  and  C_7
REMARK    3  A    between atoms: N_9  and  N_10
REMARK    4  A    between atoms: N_13  and  C_14
REMARK    5  A    between atoms: C_14  and  C_16
REMARK    6  A    between atoms: C_14  and  C_22
REMARK                            x       y       z     vdW  Elec       q    Type
REMARK                         _______ _______ _______ _____ _____    ______ ____
ROOT
ATOM      1  N   UNL     1      -0.394   1.369   4.115  0.00  0.00    -0.218 N 
ATOM      2  C   UNL     1      -0.597   2.672   4.394  0.00  0.00    +0.316 C 
ATOM      3  O   UNL     1      -0.601   3.054   5.548  0.00  0.00    -0.251 OA
ATOM      4  N   UNL     1      -0.796   3.552   3.393  0.00  0.00    -0.291 N 
ATOM      5  H   UNL     1      -0.251   0.736   4.836  0.00  0.00    +0.174 HD
ATOM      6  H   UNL     1      -0.794   3.248   2.472  0.00  0.00    +0.151 HD
ENDROOT
BRANCH   1   9
ATOM      7  C   UNL     1      -0.187  -0.374   2.507  0.00  0.00    +0.277 C 
ATOM      8  O   UNL     1      -0.100  -1.183   3.412  0.00  0.00    -0.267 OA
ATOM      9  N   UNL     1      -0.390   0.929   2.785  0.00  0.00    -0.228 N 
ATOM     10  H   UNL     1      -0.534   1.563   2.065  0.00  0.00    +0.173 HD
BRANCH   7  16
ATOM     11  C   UNL     1       0.068  -3.305   1.538  0.00  0.00    +0.149 C 
ATOM     12  N   UNL     1       0.042  -2.118   0.680  0.00  0.00    -0.345 N 
ATOM     13  C   UNL     1       0.118  -2.119  -0.674  0.00  0.00    +0.101 A 
ATOM     14  C   UNL     1       0.062  -0.840  -1.117  0.00  0.00    +0.036 A 
ATOM     15  C   UNL     1      -0.054  -0.004  -0.001  0.00  0.00    +0.047 A 
ATOM     16  C   UNL     1      -0.072  -0.816   1.113  0.00  0.00    +0.107 A 
ATOM     17 BR   UNL     1       0.130  -0.283  -2.922  0.00  0.00    -0.049 Br
ENDBRANCH   7  16
ENDBRANCH   1   9
BRANCH   4  18
ATOM     18  C   UNL     1      -1.017   4.968   3.696  0.00  0.00    +0.108 C 
BRANCH  18  19
ATOM     19  C   UNL     1      -1.792   5.607   2.572  0.00  0.00    -0.027 A 
ATOM     20  C   UNL     1      -1.512   5.271   1.261  0.00  0.00    +0.005 A 
ATOM     21  C   UNL     1      -2.223   5.858   0.230  0.00  0.00    +0.000 A 
ATOM     22  C   UNL     1      -3.214   6.779   0.511  0.00  0.00    +0.000 A 
ATOM     23  C   UNL     1      -3.495   7.114   1.822  0.00  0.00    +0.000 A 
ATOM     24  C   UNL     1      -2.787   6.525   2.853  0.00  0.00    +0.005 A 
ENDBRANCH  18  19
BRANCH  18  25
ATOM     25  C   UNL     1       0.332   5.673   3.850  0.00  0.00    +0.014 C 
ATOM     26  C   UNL     1       1.588   4.884   3.476  0.00  0.00    +0.006 C 
ATOM     27  C   UNL     1       1.272   5.167   4.946  0.00  0.00    +0.006 C 
ENDBRANCH  18  25
ENDBRANCH   4  18
TORSDOF 5
