REMARK  Name = ZINC22294719
REMARK  8 active torsions:
REMARK  status: ('A' for Active; 'I' for Inactive)
REMARK    1  A    between atoms: C_1  and  C_2
REMARK    2  A    between atoms: C_5  and  C_33
REMARK    3  A    between atoms: N_8  and  C_10
REMARK    4  A    between atoms: C_10  and  C_11
REMARK    5  A    between atoms: N_16  and  C_17
REMARK    6  A    between atoms: C_17  and  C_19
REMARK    7  A    between atoms: C_19  and  N_20
REMARK    8  A    between atoms: N_29  and  C_32
REMARK                            x       y       z     vdW  Elec       q    Type
REMARK                         _______ _______ _______ _____ _____    ______ ____
ROOT
ATOM      1  C   UNL     1       1.688  -0.097   3.735  0.00  0.00    +0.008 A 
ATOM      2  C   UNL     1       0.997  -0.757   4.671  0.00  0.00    +0.067 A 
ATOM      3  S   UNL     1       0.539   0.555   5.787  0.00  0.00    -0.061 S 
ATOM      4  C   UNL     1       1.260   1.841   4.978  0.00  0.00    +0.163 A 
ATOM      5  N   UNL     1       1.829   1.246   3.895  0.00  0.00    -0.341 N 
ATOM      6  N   UNL     1       1.275   3.131   5.319  0.00  0.00    -0.155 NA
ATOM      7  H   UNL     1       2.323   1.772   3.247  0.00  0.00    +0.167 HD
ENDROOT
BRANCH   6   8
ATOM      8  C   UNL     1       0.663   3.532   6.426  0.00  0.00    +0.256 C 
ATOM      9  O   UNL     1       0.090   2.724   7.131  0.00  0.00    -0.272 OA
BRANCH   8  10
ATOM     10  C   UNL     1       0.680   4.989   6.810  0.00  0.00    +0.215 C 
BRANCH  10  11
ATOM     11  N   UNL     1      -0.058   5.173   8.062  0.00  0.00    -0.215 N 
ATOM     12  C   UNL     1      -1.382   5.425   8.133  0.00  0.00    +0.247 C 
ATOM     13  O   UNL     1      -2.157   5.539   7.208  0.00  0.00    -0.273 OA
ATOM     14  C   UNL     1      -1.694   5.535   9.607  0.00  0.00    +0.115 C 
ATOM     15  C   UNL     1      -2.228   6.925   9.936  0.00  0.00    +0.035 C 
ATOM     16  C   UNL     1      -2.509   7.024  11.437  0.00  0.00    +0.003 C 
ATOM     17  C   UNL     1      -3.533   5.959  11.835  0.00  0.00    +0.000 C 
ATOM     18  C   UNL     1      -2.973   4.570  11.522  0.00  0.00    +0.003 C 
ATOM     19  C   UNL     1      -2.694   4.460  10.021  0.00  0.00    +0.035 C 
ATOM     20  N   UNL     1      -0.399   5.313  10.264  0.00  0.00    -0.274 N 
ATOM     21  C   UNL     1       0.496   5.104   9.279  0.00  0.00    +0.312 C 
ATOM     22  O   UNL     1       1.675   4.883   9.473  0.00  0.00    -0.252 OA
ATOM     23  C   UNL     1      -0.134   5.313  11.704  0.00  0.00    +0.134 C 
ENDBRANCH  10  11
ENDBRANCH   8  10
ENDBRANCH   6   8
BRANCH   1  24
ATOM     24  C   UNL     1       2.290  -0.813   2.553  0.00  0.00    -0.024 C 
BRANCH  24  30
ATOM     25  C   UNL     1      -0.357   1.343   0.073  0.00  0.00    +0.005 C 
ATOM     26  C   UNL     1      -0.470  -0.182   0.089  0.00  0.00    -0.031 C 
ATOM     27  C   UNL     1       0.202  -0.758  -1.161  0.00  0.00    +0.003 C 
ATOM     28  C   UNL     1       1.694  -0.414  -1.131  0.00  0.00    -0.031 C 
ATOM     29  C   UNL     1       2.311  -0.957   0.161  0.00  0.00    -0.075 C 
ATOM     30  N   UNL     1       1.643  -0.349   1.318  0.00  0.00    +0.384 N 
ATOM     31  C   UNL     1       0.226  -0.733   1.336  0.00  0.00    -0.075 C 
ATOM     32  C   UNL     1       2.390  -1.050  -2.336  0.00  0.00    +0.005 C 
ATOM     33  H   UNL     1       1.718   0.656   1.259  0.00  0.00    -0.081 HD
ENDBRANCH  24  30
ENDBRANCH   1  24
TORSDOF 5
