REMARK  Name = ZINC04678329
REMARK  10 active torsions:
REMARK  status: ('A' for Active; 'I' for Inactive)
REMARK    1  A    between atoms: C_1  and  C_2
REMARK    2  A    between atoms: C_5  and  N_30
REMARK    3  A    between atoms: C_7  and  C_8
REMARK    4  A    between atoms: C_11  and  C_13
REMARK    5  A    between atoms: C_13  and  C_14
REMARK    6  A    between atoms: C_13  and  C_22
REMARK    7  A    between atoms: C_15  and  C_21
REMARK    8  A    between atoms: C_19  and  O_20
REMARK    9  A    between atoms: C_23  and  C_29
REMARK   10  A    between atoms: C_27  and  O_28
REMARK                            x       y       z     vdW  Elec       q    Type
REMARK                         _______ _______ _______ _____ _____    ______ ____
ROOT
ATOM      1  C   UNL     1       1.255   2.560   4.805  0.00  0.00    +0.129 C 
ENDROOT
BRANCH   1   2
ATOM      2  C   UNL     1       2.667   2.037   4.745  0.00  0.00    +0.051 A 
ATOM      3  C   UNL     1       3.057   0.702   4.890  0.00  0.00    +0.068 A 
ATOM      4  N   UNL     1       4.359   0.640   4.776  0.00  0.00    -0.176 NA
ATOM      5  N   UNL     1       4.844   1.935   4.554  0.00  0.00    -0.247 N 
ATOM      6  H   UNL     1       5.774   2.183   4.433  0.00  0.00    +0.192 HD
ATOM      7  C   UNL     1       3.787   2.777   4.534  0.00  0.00    +0.213 A 
ATOM      8  C   UNL     1       2.136  -0.465   5.136  0.00  0.00    +0.068 C 
BRANCH   7   9
ATOM      9  O   UNL     1       3.836   4.120   4.340  0.00  0.00    -0.492 OA
ATOM     10  H   UNL     1       4.010   4.628   5.144  0.00  0.00    +0.294 HD
ENDBRANCH   7   9
ENDBRANCH   1   2
BRANCH   1  11
ATOM     11  C   UNL     1       1.165   3.850   4.032  0.00  0.00    +0.051 A 
ATOM     12  C   UNL     1       0.693   5.028   4.500  0.00  0.00    +0.041 A 
ATOM     13  N   UNL     1       0.780   5.934   3.503  0.00  0.00    -0.278 N 
ATOM     14  N   UNL     1       1.323   5.294   2.382  0.00  0.00    -0.136 NA
ATOM     15  H   UNL     1       0.512   6.865   3.554  0.00  0.00    +0.189 HD
ATOM     16  C   UNL     1       1.560   4.044   2.699  0.00  0.00    +0.236 A 
ATOM     17  C   UNL     1       0.164   5.284   5.888  0.00  0.00    +0.065 C 
BRANCH  16  18
ATOM     18  O   UNL     1       2.093   3.099   1.879  0.00  0.00    -0.491 OA
ATOM     19  H   UNL     1       1.436   2.605   1.369  0.00  0.00    +0.294 HD
ENDBRANCH  16  18
ENDBRANCH   1  11
BRANCH   1  23
ATOM     20  C   UNL     1      -0.626   0.196   2.752  0.00  0.00    +0.136 A 
ATOM     21  C   UNL     1      -1.319   0.079   3.916  0.00  0.00    +0.050 A 
ATOM     22  C   UNL     1      -0.708   0.948   4.841  0.00  0.00    +0.046 A 
ATOM     23  C   UNL     1       0.317   1.546   4.203  0.00  0.00    +0.118 A 
ATOM     24  O   UNL     1       0.367   1.085   2.942  0.00  0.00    -0.459 OA
BRANCH  20  31
ATOM     25  C   UNL     1      -0.822   1.658   0.263  0.00  0.00    +0.044 C 
ATOM     26  C   UNL     1      -1.006   0.163   0.290  0.00  0.00    -0.040 A 
ATOM     27  C   UNL     1      -1.265  -0.523  -0.878  0.00  0.00    +0.006 A 
ATOM     28  C   UNL     1      -1.434  -1.896  -0.855  0.00  0.00    +0.033 A 
ATOM     29  C   UNL     1      -1.345  -2.591   0.338  0.00  0.00    +0.127 A 
ATOM     30  C   UNL     1      -1.086  -1.917   1.514  0.00  0.00    +0.044 A 
ATOM     31  C   UNL     1      -0.909  -0.532   1.497  0.00  0.00    +0.022 A 
BRANCH  29  32
ATOM     32  N   UNL     1      -1.528  -4.059   0.354  0.00  0.00    +0.056 N 
ATOM     33  O   UNL     1      -1.754  -4.651  -0.676  0.00  0.00    -0.126 OA
ATOM     34  O   UNL     1      -1.450  -4.667   1.396  0.00  0.00    -0.126 OA
ENDBRANCH  29  32
ENDBRANCH  20  31
ENDBRANCH   1  23
TORSDOF 7
