REMARK  Name = ZINC31166478
REMARK  9 active torsions:
REMARK  status: ('A' for Active; 'I' for Inactive)
REMARK    1  A    between atoms: C_1  and  C_2
REMARK    2  A    between atoms: C_8  and  C_36
REMARK    3  A    between atoms: C_12  and  O_22
REMARK    4  A    between atoms: C_24  and  O_32
REMARK    5  A    between atoms: C_26  and  O_31
REMARK    6  A    between atoms: C_28  and  C_29
REMARK    7  A    between atoms: C_28  and  C_30
REMARK    8  A    between atoms: O_32  and  C_33
REMARK    9  A    between atoms: C_33  and  C_35
REMARK                            x       y       z     vdW  Elec       q    Type
REMARK                         _______ _______ _______ _____ _____    ______ ____
ROOT
ATOM      1  C   UNL     1       0.019   1.908   0.107  0.00  0.00    +0.011 C 
ATOM      2  C   UNL     1       0.106   0.379   0.040  0.00  0.00    +0.031 C 
ATOM      3  C   UNL     1      -1.315  -0.181  -0.065  0.00  0.00    +0.007 C 
ATOM      4  C   UNL     1      -1.266  -1.712  -0.118  0.00  0.00    +0.005 C 
ATOM      5  C   UNL     1      -0.584  -2.219   1.152  0.00  0.00    +0.007 C 
ATOM      6  C   UNL     1       0.851  -1.717   1.214  0.00  0.00    +0.015 C 
ATOM      7  C   UNL     1       0.809  -0.179   1.266  0.00  0.00    +0.123 C 
ATOM      8  C   UNL     1       2.238   0.377   1.389  0.00  0.00    +0.091 C 
ATOM      9  C   UNL     1       2.064   1.501   2.395  0.00  0.00    +0.040 A 
ATOM     10  C   UNL     1       2.872   2.573   2.732  0.00  0.00    +0.124 A 
ATOM     11  C   UNL     1       2.465   3.472   3.704  0.00  0.00    +0.059 A 
ATOM     12  C   UNL     1       1.235   3.290   4.339  0.00  0.00    +0.048 A 
ATOM     13  C   UNL     1       0.429   2.208   3.987  0.00  0.00    +0.024 A 
ATOM     14  C   UNL     1       0.829   1.315   3.003  0.00  0.00    +0.133 A 
ATOM     15  O   UNL     1       0.173   0.244   2.476  0.00  0.00    -0.484 OA
ATOM     16  C   UNL     1      -0.801   2.289   4.856  0.00  0.00    +0.144 C 
ATOM     17  N   UNL     1      -0.642   3.493   5.680  0.00  0.00    -0.307 N 
ATOM     18  C   UNL     1       0.539   4.063   5.387  0.00  0.00    +0.245 C 
ATOM     19  O   UNL     1       0.972   5.071   5.910  0.00  0.00    -0.270 OA
ATOM     20  C   UNL     1       1.539  -2.230   2.476  0.00  0.00    +0.058 C 
ATOM     21  C   UNL     1       1.451  -3.744   2.600  0.00  0.00    +0.206 C 
ATOM     22  C   UNL     1       0.017  -4.238   2.545  0.00  0.00    +0.161 C 
ATOM     23  C   UNL     1      -0.763  -3.709   1.345  0.00  0.00    -0.002 C 
ATOM     24  C   UNL     1      -0.414  -4.512   0.092  0.00  0.00    +0.014 C 
ATOM     25  C   UNL     1      -2.260  -3.975   1.648  0.00  0.00    +0.014 C 
ATOM     26  C   UNL     1       1.664  -2.117  -0.016  0.00  0.00    +0.015 C 
ATOM     27  H   UNL     1      -1.284   3.823   6.328  0.00  0.00    +0.149 HD
ENDROOT
BRANCH  10  28
ATOM     28  O   UNL     1       4.067   2.744   2.108  0.00  0.00    -0.506 OA
ATOM     29  H   UNL     1       4.019   3.285   1.308  0.00  0.00    +0.292 HD
ENDBRANCH  10  28
BRANCH  22  30
ATOM     30  O   UNL     1      -0.665  -3.865   3.749  0.00  0.00    -0.388 OA
ATOM     31  H   UNL     1      -0.269  -4.227   4.554  0.00  0.00    +0.210 HD
ENDBRANCH  22  30
BRANCH  21  32
ATOM     32  O   UNL     1       2.263  -4.400   1.630  0.00  0.00    -0.459 OA
BRANCH  32  33
ATOM     33  C   UNL     1       2.770  -5.596   1.969  0.00  0.00    +0.304 C 
ATOM     34  O   UNL     1       2.531  -6.068   3.055  0.00  0.00    -0.251 OA
ATOM     35  C   UNL     1       3.638  -6.350   0.994  0.00  0.00    +0.136 C 
ENDBRANCH  32  33
ENDBRANCH  21  32
TORSDOF 4
