REMARK  Name = ZINC39665392
REMARK  8 active torsions:
REMARK  status: ('A' for Active; 'I' for Inactive)
REMARK    1  A    between atoms: C_1  and  C_2
REMARK    2  A    between atoms: C_2  and  C_4
REMARK    3  A    between atoms: C_2  and  O_33
REMARK    4  A    between atoms: C_4  and  N_5
REMARK    5  A    between atoms: C_6  and  C_8
REMARK    6  A    between atoms: C_19  and  C_21
REMARK    7  A    between atoms: C_24  and  C_26
REMARK    8  A    between atoms: O_33  and  C_34
REMARK                            x       y       z     vdW  Elec       q    Type
REMARK                         _______ _______ _______ _____ _____    ______ ____
ROOT
ATOM      1  C   UNL     1       1.650  -4.302  -2.640  0.00  0.00    +0.100 C 
ATOM      2  C   UNL     1       0.282  -4.939  -2.970  0.00  0.00    +0.121 C 
ATOM      3  N   UNL     1       0.277  -5.071  -4.446  0.00  0.00    -0.294 N 
ATOM      4  C   UNL     1       1.660  -5.483  -4.785  0.00  0.00    +0.115 C 
ATOM      5  C   UNL     1       2.553  -4.664  -3.831  0.00  0.00    -0.004 C 
ATOM      6  C   UNL     1       3.735  -5.506  -3.361  0.00  0.00    -0.010 C 
ATOM      7  C   UNL     1       4.649  -5.804  -4.553  0.00  0.00    -0.082 C 
ATOM      8  N   UNL     1       5.121  -4.543  -5.138  0.00  0.00    +0.379 N 
ATOM      9  C   UNL     1       3.985  -3.782  -5.671  0.00  0.00    -0.082 C 
ATOM     10  C   UNL     1       3.043  -3.398  -4.526  0.00  0.00    -0.010 C 
ATOM     11  C   UNL     1      -0.753  -4.862  -5.290  0.00  0.00    +0.282 C 
ATOM     12  O   UNL     1      -0.598  -5.013  -6.488  0.00  0.00    -0.267 OA
ATOM     13  H   UNL     1       5.586  -3.998  -4.427  0.00  0.00    -0.086 HD
ATOM     14  H   UNL     1       5.771  -4.742  -5.884  0.00  0.00    -0.086 HD
ENDROOT
BRANCH  11  15
ATOM     15  C   UNL     1      -2.059  -4.454  -4.766  0.00  0.00    +0.190 A 
ATOM     16  C   UNL     1      -3.192  -4.215  -5.514  0.00  0.00    +0.055 A 
ATOM     17  C   UNL     1      -4.199  -3.853  -4.614  0.00  0.00    +0.050 A 
ATOM     18  C   UNL     1      -3.651  -3.884  -3.364  0.00  0.00    +0.136 A 
ATOM     19  O   UNL     1      -2.364  -4.253  -3.467  0.00  0.00    -0.450 OA
BRANCH  18  20
ATOM     20  C   UNL     1      -4.359  -3.571  -2.106  0.00  0.00    +0.017 A 
ATOM     21  C   UNL     1      -5.707  -3.209  -2.132  0.00  0.00    +0.014 A 
ATOM     22  C   UNL     1      -6.363  -2.917  -0.954  0.00  0.00    +0.039 A 
ATOM     23  C   UNL     1      -5.686  -2.983   0.254  0.00  0.00    +0.123 A 
ATOM     24  C   UNL     1      -4.347  -3.341   0.285  0.00  0.00    +0.039 A 
ATOM     25  C   UNL     1      -3.683  -3.640  -0.886  0.00  0.00    +0.014 A 
ATOM     26  F   UNL     1      -6.333  -2.696   1.404  0.00  0.00    -0.205 F 
ENDBRANCH  18  20
ENDBRANCH  11  15
BRANCH   1  28
ATOM     27  N   UNL     1       2.348  -2.118  -1.711  0.00  0.00    -0.312 N 
ATOM     28  C   UNL     1       1.516  -2.806  -2.519  0.00  0.00    +0.218 C 
ATOM     29  O   UNL     1       0.661  -2.221  -3.148  0.00  0.00    -0.275 OA
ATOM     30  H   UNL     1       3.032  -2.586  -1.207  0.00  0.00    +0.149 HD
BRANCH  27  31
ATOM     31  C   UNL     1       2.217  -0.664  -1.593  0.00  0.00    +0.148 C 
BRANCH  31  33
ATOM     32  C   UNL     1       3.059   1.365  -0.401  0.00  0.00    +0.053 C 
ATOM     33  C   UNL     1       3.273  -0.134  -0.621  0.00  0.00    +0.187 C 
BRANCH  33  34
ATOM     34  O   UNL     1       4.576  -0.355  -1.166  0.00  0.00    -0.488 OA
BRANCH  34  35
ATOM     35  C   UNL     1       5.609  -0.429  -0.285  0.00  0.00    +0.121 A 
ATOM     36  C   UNL     1       6.883  -0.747  -0.734  0.00  0.00    +0.045 A 
ATOM     37  C   UNL     1       7.931  -0.821   0.163  0.00  0.00    +0.004 A 
ATOM     38  C   UNL     1       7.711  -0.580   1.506  0.00  0.00    +0.000 A 
ATOM     39  C   UNL     1       6.442  -0.263   1.956  0.00  0.00    +0.004 A 
ATOM     40  C   UNL     1       5.392  -0.181   1.062  0.00  0.00    +0.045 A 
ENDBRANCH  34  35
ENDBRANCH  33  34
ENDBRANCH  31  33
ENDBRANCH  27  31
ENDBRANCH   1  28
TORSDOF 7
