REMARK  Name = ZINC43458704
REMARK  3 active torsions:
REMARK  status: ('A' for Active; 'I' for Inactive)
REMARK    1  A    between atoms: N_7  and  C_8
REMARK    2  A    between atoms: C_8  and  C_9
REMARK    3  A    between atoms: C_18  and  N_19
REMARK                            x       y       z     vdW  Elec       q    Type
REMARK                         _______ _______ _______ _____ _____    ______ ____
ROOT
ATOM      1  C   UNL     1      -0.017   1.390   0.010  0.00  0.00    +0.025 A 
ATOM      2  C   UNL     1       1.159   2.107   0.002  0.00  0.00    +0.028 A 
ATOM      3  C   UNL     1       2.380   1.441  -0.013  0.00  0.00    +0.049 A 
ATOM      4  C   UNL     1       2.403   0.035  -0.021  0.00  0.00    +0.002 A 
ATOM      5  C   UNL     1       3.817  -0.347  -0.037  0.00  0.00    +0.027 A 
ATOM      6  C   UNL     1       4.532   0.790  -0.038  0.00  0.00    +0.087 A 
ATOM      7  N   UNL     1       3.691   1.869  -0.024  0.00  0.00    -0.342 N 
ATOM      8  C   UNL     1       1.206  -0.684  -0.013  0.00  0.00    +0.032 A 
ATOM      9  C   UNL     1       0.002  -0.004   0.002  0.00  0.00    +0.025 A 
ENDROOT
BRANCH   9  10
ATOM     10  N   UNL     1      -1.202  -0.718   0.010  0.00  0.00    -0.358 N 
ATOM     11  H   UNL     1      -2.047  -0.243   0.021  0.00  0.00    +0.142 HD
ATOM     12  H   UNL     1      -1.191  -1.688   0.005  0.00  0.00    +0.142 HD
ENDBRANCH   9  10
BRANCH   7  13
ATOM     13  C   UNL     1       4.120   3.270  -0.021  0.00  0.00    +0.160 C 
BRANCH  13  14
ATOM     14  C   UNL     1       4.162   3.779   1.397  0.00  0.00    +0.010 A 
ATOM     15  C   UNL     1       3.074   4.449   1.924  0.00  0.00    +0.046 A 
ATOM     16  C   UNL     1       3.113   4.916   3.226  0.00  0.00    +0.124 A 
ATOM     17  C   UNL     1       4.242   4.712   4.001  0.00  0.00    +0.041 A 
ATOM     18  C   UNL     1       5.330   4.042   3.475  0.00  0.00    +0.041 A 
ATOM     19  C   UNL     1       5.289   3.570   2.174  0.00  0.00    +0.128 A 
ATOM     20  F   UNL     1       6.351   2.911   1.660  0.00  0.00    -0.205 F 
ATOM     21  F   UNL     1       2.050   5.571   3.741  0.00  0.00    -0.205 F 
ENDBRANCH  13  14
ENDBRANCH   7  13
TORSDOF 3
