REMARK  Name = ZINC39630686
REMARK  11 active torsions:
REMARK  status: ('A' for Active; 'I' for Inactive)
REMARK    1  A    between atoms: C_1  and  C_2
REMARK    2  A    between atoms: C_2  and  C_3
REMARK    3  A    between atoms: C_2  and  C_4
REMARK    4  A    between atoms: C_2  and  C_32
REMARK    5  A    between atoms: C_4  and  N_5
REMARK    6  A    between atoms: C_6  and  C_8
REMARK    7  A    between atoms: C_19  and  C_21
REMARK    8  A    between atoms: C_24  and  C_28
REMARK    9  A    between atoms: C_32  and  N_33
REMARK   10  A    between atoms: N_33  and  C_34
REMARK   11  A    between atoms: N_33  and  C_35
REMARK                            x       y       z     vdW  Elec       q    Type
REMARK                         _______ _______ _______ _____ _____    ______ ____
ROOT
ATOM      1  C   UNL     1      -2.772   0.513   3.719  0.00  0.00    +0.100 C 
ATOM      2  C   UNL     1      -2.842   2.045   3.906  0.00  0.00    +0.121 C 
ATOM      3  N   UNL     1      -4.290   2.359   3.882  0.00  0.00    -0.296 N 
ATOM      4  C   UNL     1      -4.920   1.248   4.635  0.00  0.00    +0.115 C 
ATOM      5  C   UNL     1      -4.136  -0.007   4.201  0.00  0.00    -0.004 C 
ATOM      6  C   UNL     1      -4.864  -0.716   3.063  0.00  0.00    -0.010 C 
ATOM      7  C   UNL     1      -6.193  -1.273   3.583  0.00  0.00    -0.082 C 
ATOM      8  N   UNL     1      -5.936  -2.209   4.684  0.00  0.00    +0.379 N 
ATOM      9  C   UNL     1      -5.319  -1.499   5.811  0.00  0.00    -0.082 C 
ATOM     10  C   UNL     1      -3.954  -0.951   5.386  0.00  0.00    -0.010 C 
ATOM     11  C   UNL     1      -4.897   3.416   3.307  0.00  0.00    +0.249 C 
ATOM     12  O   UNL     1      -6.111   3.489   3.298  0.00  0.00    -0.270 OA
ATOM     13  H   UNL     1      -6.806  -2.621   4.984  0.00  0.00    -0.086 HD
ATOM     14  H   UNL     1      -5.314  -2.938   4.367  0.00  0.00    -0.086 HD
ENDROOT
BRANCH  11  15
ATOM     15  C   UNL     1      -4.088   4.485   2.688  0.00  0.00    +0.072 A 
ATOM     16  C   UNL     1      -2.793   4.739   3.145  0.00  0.00    +0.016 A 
ATOM     17  C   UNL     1      -2.043   5.739   2.562  0.00  0.00    +0.013 A 
ATOM     18  C   UNL     1      -2.570   6.491   1.526  0.00  0.00    +0.058 A 
ATOM     19  C   UNL     1      -3.851   6.248   1.067  0.00  0.00    +0.051 A 
ATOM     20  C   UNL     1      -4.613   5.245   1.638  0.00  0.00    +0.136 A 
ATOM     21  F   UNL     1      -5.863   5.003   1.186  0.00  0.00    -0.205 F 
BRANCH  18  22
ATOM     22  C   UNL     1      -1.743   7.582   0.896  0.00  0.00    +0.418 C 
ATOM     23  F   UNL     1      -1.009   7.053  -0.171  0.00  0.00    -0.166 F 
ATOM     24  F   UNL     1      -2.586   8.594   0.426  0.00  0.00    -0.166 F 
ATOM     25  F   UNL     1      -0.865   8.111   1.849  0.00  0.00    -0.166 F 
ENDBRANCH  18  22
ENDBRANCH  11  15
BRANCH   1  27
ATOM     26  N   UNL     1      -2.061  -1.032   1.922  0.00  0.00    -0.315 N 
ATOM     27  C   UNL     1      -2.564   0.171   2.266  0.00  0.00    +0.218 C 
ATOM     28  O   UNL     1      -2.849   0.977   1.406  0.00  0.00    -0.275 OA
ATOM     29  H   UNL     1      -1.833  -1.677   2.610  0.00  0.00    +0.149 HD
BRANCH  26  30
ATOM     30  C   UNL     1      -1.859  -1.365   0.510  0.00  0.00    +0.108 C 
BRANCH  30  32
ATOM     31  C   UNL     1       0.057  -2.842   1.132  0.00  0.00    +0.010 C 
ATOM     32  C   UNL     1      -1.282  -2.777   0.396  0.00  0.00    -0.034 C 
ATOM     33  C   UNL     1      -2.257  -3.778   1.022  0.00  0.00    +0.010 C 
BRANCH  32  34
ATOM     34  C   UNL     1      -1.071  -3.125  -1.079  0.00  0.00    -0.072 C 
BRANCH  34  35
ATOM     35  N   UNL     1      -0.633  -4.522  -1.195  0.00  0.00    +0.376 N 
ATOM     36  C   UNL     1      -1.808  -5.402  -1.238  0.00  0.00    -0.097 C 
ATOM     37  C   UNL     1       0.150  -4.689  -2.427  0.00  0.00    -0.097 C 
ATOM     38  H   UNL     1      -0.062  -4.763  -0.398  0.00  0.00    -0.083 HD
ENDBRANCH  34  35
ENDBRANCH  32  34
ENDBRANCH  30  32
ENDBRANCH  26  30
ENDBRANCH   1  27
TORSDOF 7
