REMARK  Name = ZINC01267706
REMARK  7 active torsions:
REMARK  status: ('A' for Active; 'I' for Inactive)
REMARK    1  A    between atoms: C_7  and  C_11
REMARK    2  A    between atoms: C_11  and  C_12
REMARK    3  A    between atoms: C_12  and  C_14
REMARK    4  A    between atoms: C_12  and  N_43
REMARK    5  A    between atoms: C_17  and  S_19
REMARK    6  A    between atoms: S_19  and  C_20
REMARK    7  A    between atoms: C_20  and  C_21
REMARK                            x       y       z     vdW  Elec       q    Type
REMARK                         _______ _______ _______ _____ _____    ______ ____
ROOT
ATOM      1  C   UNL     1       1.766   3.162   0.001  0.00  0.00    +0.019 C 
ENDROOT
BRANCH   1   2
ATOM      2  C   UNL     1       1.272   1.738  -0.001  0.00  0.00    +0.204 A 
ATOM      3  N   UNL     1       2.012   0.668  -0.014  0.00  0.00    -0.113 NA
ATOM      4  N   UNL     1       1.260  -0.376  -0.012  0.00  0.00    -0.101 NA
ATOM      5  C   UNL     1       0.002  -0.004   0.002  0.00  0.00    +0.278 A 
ATOM      6  O   UNL     1      -0.016   1.342   0.009  0.00  0.00    -0.417 OA
BRANCH   5   7
ATOM      7  S   UNL     1      -1.402  -1.068   0.010  0.00  0.00    -0.061 S 
BRANCH   7   8
ATOM      8  C   UNL     1      -0.576  -2.679  -0.007  0.00  0.00    +0.117 C 
BRANCH   8   9
ATOM      9  C   UNL     1      -1.611  -3.774  -0.003  0.00  0.00    -0.001 A 
ATOM     10  C   UNL     1      -2.070  -4.288   1.197  0.00  0.00    +0.046 A 
ATOM     11  C   UNL     1      -3.024  -5.290   1.200  0.00  0.00    +0.020 A 
ATOM     12  C   UNL     1      -3.510  -5.786   0.004  0.00  0.00    +0.003 A 
ATOM     13  C   UNL     1      -3.047  -5.277  -1.194  0.00  0.00    +0.020 A 
ATOM     14  C   UNL     1      -2.097  -4.271  -1.199  0.00  0.00    +0.046 A 
ATOM     15 CL   UNL     1      -1.516  -3.632  -2.705  0.00  0.00    -0.083 Cl
ATOM     16 CL   UNL     1      -1.455  -3.670   2.698  0.00  0.00    -0.083 Cl
ENDBRANCH   8   9
ENDBRANCH   7   8
ENDBRANCH   5   7
ENDBRANCH   1   2
BRANCH   1  19
ATOM     17  H   UNL     1       2.535   3.125   1.911  0.00  0.00    -0.089 HD
ATOM     18  H   UNL     1       3.630   2.690   0.736  0.00  0.00    -0.089 HD
ATOM     19  N   UNL     1       2.866   3.323   0.968  0.00  0.00    +0.386 N 
ATOM     20  H   UNL     1       3.210   4.290   0.930  0.00  0.00    -0.089 HD
ENDBRANCH   1  19
BRANCH   1  21
ATOM     21  C   UNL     1       2.272   3.528  -1.395  0.00  0.00    +0.030 C 
BRANCH  21  28
ATOM     22  C   UNL     1       6.175   5.852  -0.234  0.00  0.00    +0.001 A 
ATOM     23  C   UNL     1       6.067   7.222  -0.432  0.00  0.00    +0.002 A 
ATOM     24  C   UNL     1       4.904   7.772  -0.923  0.00  0.00    +0.026 A 
ATOM     25  C   UNL     1       3.824   6.948  -1.224  0.00  0.00    +0.047 A 
ATOM     26  C   UNL     1       3.935   5.562  -1.015  0.00  0.00    +0.003 A 
ATOM     27  C   UNL     1       5.126   5.025  -0.522  0.00  0.00    +0.010 A 
ATOM     28  C   UNL     1       2.652   4.986  -1.425  0.00  0.00    -0.023 A 
ATOM     29  C   UNL     1       1.876   6.005  -1.828  0.00  0.00    +0.087 A 
ATOM     30  N   UNL     1       2.559   7.185  -1.715  0.00  0.00    -0.360 N 
ATOM     31  H   UNL     1       2.206   8.058  -1.946  0.00  0.00    +0.165 HD
ENDBRANCH  21  28
ENDBRANCH   1  21
TORSDOF 7
