REMARK  Name = ZINC36264247
REMARK  4 active torsions:
REMARK  status: ('A' for Active; 'I' for Inactive)
REMARK    1  A    between atoms: C_5  and  S_8
REMARK    2  A    between atoms: S_8  and  N_11
REMARK    3  A    between atoms: N_11  and  C_12
REMARK    4  A    between atoms: C_15  and  N_17
REMARK                            x       y       z     vdW  Elec       q    Type
REMARK                         _______ _______ _______ _____ _____    ______ ____
ROOT
ATOM      1  S   UNL     1       1.233  -2.441  -0.022  0.00  0.00    +0.061 S 
ATOM      2  O   UNL     1      -0.012  -2.861  -0.562  0.00  0.00    -0.153 OA
ATOM      3  O   UNL     1       2.478  -2.827  -0.588  0.00  0.00    -0.153 OA
ENDROOT
BRANCH   1   8
ATOM      4  C   UNL     1      -0.017   1.379   0.010  0.00  0.00    +0.042 A 
ATOM      5  C   UNL     1       1.172   2.087   0.002  0.00  0.00    +0.044 A 
ATOM      6  C   UNL     1       2.379   1.412  -0.013  0.00  0.00    +0.042 A 
ATOM      7  C   UNL     1       2.398   0.029  -0.020  0.00  0.00    +0.070 A 
ATOM      8  C   UNL     1       1.209  -0.679  -0.012  0.00  0.00    +0.142 A 
ATOM      9  C   UNL     1       0.002  -0.004   0.002  0.00  0.00    +0.070 A 
ATOM     10 CL   UNL     1      -1.489  -0.892   0.012  0.00  0.00    -0.081 Cl
ATOM     11 CL   UNL     1       3.913  -0.819  -0.040  0.00  0.00    -0.081 Cl
ATOM     12 CL   UNL     1       1.148   3.823   0.011  0.00  0.00    -0.083 Cl
ENDBRANCH   1   8
BRANCH   1  13
ATOM     13  N   UNL     1       1.256  -2.940   1.557  0.00  0.00    -0.188 NA
ATOM     14  H   UNL     1       2.028  -3.414   1.905  0.00  0.00    +0.148 HD
BRANCH  13  15
ATOM     15  C   UNL     1       0.112  -2.665   2.429  0.00  0.00    +0.061 C 
ATOM     16  C   UNL     1       0.399  -2.391   3.907  0.00  0.00    +0.004 C 
ATOM     17  C   UNL     1      -0.241  -3.715   3.484  0.00  0.00    -0.055 C 
BRANCH  17  18
ATOM     18  N   UNL     1       0.593  -4.923   3.545  0.00  0.00    +0.381 N 
ATOM     19  H   UNL     1       1.549  -4.662   3.738  0.00  0.00    -0.090 HD
ATOM     20  H   UNL     1       0.255  -5.528   4.277  0.00  0.00    -0.090 HD
ATOM     21  H   UNL     1       0.549  -5.407   2.661  0.00  0.00    -0.090 HD
ENDBRANCH  17  18
ENDBRANCH  13  15
ENDBRANCH   1  13
TORSDOF 4
