REMARK  Name = ZINC39944493
REMARK  5 active torsions:
REMARK  status: ('A' for Active; 'I' for Inactive)
REMARK    1  A    between atoms: C_4  and  C_7
REMARK    2  A    between atoms: C_17  and  S_19
REMARK    3  A    between atoms: S_19  and  C_20
REMARK    4  A    between atoms: N_24  and  C_25
REMARK    5  A    between atoms: C_28  and  O_31
REMARK                            x       y       z     vdW  Elec       q    Type
REMARK                         _______ _______ _______ _____ _____    ______ ____
ROOT
ATOM      1  C   UNL     1       3.648  -0.649  -0.037  0.00  0.00    -0.009 C 
ATOM      2  C   UNL     1       4.861   0.036  -0.144  0.00  0.00    +0.003 A 
ATOM      3  C   UNL     1       4.888   1.444  -0.239  0.00  0.00    +0.030 A 
ATOM      4  C   UNL     1       6.083   2.086  -0.342  0.00  0.00    +0.042 A 
ATOM      5  C   UNL     1       7.286   1.381  -0.355  0.00  0.00    +0.022 A 
ATOM      6  C   UNL     1       7.323   0.023  -0.268  0.00  0.00    +0.025 A 
ATOM      7  C   UNL     1       6.126  -0.707  -0.158  0.00  0.00    +0.041 A 
ATOM      8  N   UNL     1       6.165  -2.041  -0.071  0.00  0.00    -0.284 N 
ATOM      9  C   UNL     1       5.089  -2.796   0.033  0.00  0.00    +0.235 C 
ATOM     10  O   UNL     1       5.200  -4.006   0.108  0.00  0.00    -0.274 OA
ATOM     11  C   UNL     1       3.718  -2.161   0.066  0.00  0.00    +0.171 C 
ATOM     12 CL   UNL     1       6.111   3.818  -0.459  0.00  0.00    -0.084 Cl
ATOM     13  H   UNL     1       7.032  -2.477  -0.085  0.00  0.00    +0.155 HD
ENDROOT
BRANCH   1  17
ATOM     14  C   UNL     1      -0.017   1.380   0.011  0.00  0.00    +0.000 A 
ATOM     15  C   UNL     1       0.781   1.429  -1.120  0.00  0.00    +0.001 A 
ATOM     16  C   UNL     1       1.988   0.766  -1.147  0.00  0.00    +0.008 A 
ATOM     17  C   UNL     1       2.408   0.038  -0.021  0.00  0.00    -0.020 A 
ATOM     18  C   UNL     1       1.591  -0.005   1.121  0.00  0.00    +0.008 A 
ATOM     19  C   UNL     1       0.388   0.665   1.126  0.00  0.00    +0.001 A 
ENDBRANCH   1  17
BRANCH  11  20
ATOM     20  S   UNL     1       2.754  -2.858  -1.303  0.00  0.00    -0.067 S 
BRANCH  20  21
ATOM     21  C   UNL     1       2.780  -4.594  -1.002  0.00  0.00    +0.215 A 
ATOM     22  N   UNL     1       3.370  -5.205   0.003  0.00  0.00    -0.101 NA
ATOM     23  N   UNL     1       3.194  -6.474  -0.076  0.00  0.00    -0.022 NA
ATOM     24  N   UNL     1       2.493  -6.767  -1.118  0.00  0.00    -0.038 NA
ATOM     25  N   UNL     1       2.191  -5.553  -1.759  0.00  0.00    -0.187 N 
BRANCH  25  26
ATOM     26  C   UNL     1       1.442  -5.372  -2.933  0.00  0.00    +0.070 A 
ATOM     27  C   UNL     1       0.637  -4.250  -3.077  0.00  0.00    +0.031 A 
ATOM     28  C   UNL     1      -0.099  -4.072  -4.231  0.00  0.00    +0.047 A 
ATOM     29  C   UNL     1      -0.034  -5.015  -5.247  0.00  0.00    +0.117 A 
ATOM     30  C   UNL     1       0.769  -6.137  -5.103  0.00  0.00    +0.047 A 
ATOM     31  C   UNL     1       1.510  -6.312  -3.951  0.00  0.00    +0.031 A 
BRANCH  29  32
ATOM     32  O   UNL     1      -0.759  -4.840  -6.384  0.00  0.00    -0.507 OA
ATOM     33  H   UNL     1      -0.293  -4.351  -7.076  0.00  0.00    +0.292 HD
ENDBRANCH  29  32
ENDBRANCH  25  26
ENDBRANCH  20  21
ENDBRANCH  11  20
TORSDOF 5
