REMARK  Name = ZINC09539779
REMARK  7 active torsions:
REMARK  status: ('A' for Active; 'I' for Inactive)
REMARK    1  A    between atoms: C_1  and  C_2
REMARK    2  A    between atoms: C_2  and  O_28
REMARK    3  A    between atoms: C_3  and  C_24
REMARK    4  A    between atoms: C_5  and  C_17
REMARK    5  A    between atoms: C_10  and  C_13
REMARK    6  A    between atoms: C_24  and  O_26
REMARK    7  A    between atoms: O_26  and  C_27
REMARK                            x       y       z     vdW  Elec       q    Type
REMARK                         _______ _______ _______ _____ _____    ______ ____
ROOT
ATOM      1  C   UNL     1      -0.019   1.526   0.010  0.00  0.00    +0.067 C 
ATOM      2  C   UNL     1       0.002  -0.004   0.002  0.00  0.00    +0.159 C 
ATOM      3  C   UNL     1       0.735  -0.501  -1.250  0.00  0.00    +0.175 C 
ATOM      4  C   UNL     1       2.233  -0.202  -1.130  0.00  0.00    +0.122 C 
ATOM      5  N   UNL     1       2.775  -0.950   0.021  0.00  0.00    -0.306 N 
ATOM      6  C   UNL     1       2.005  -0.933   1.178  0.00  0.00    +0.220 A 
ATOM      7  N   UNL     1       0.709  -0.491   1.185  0.00  0.00    -0.262 N 
ATOM      8  C   UNL     1       0.281  -0.612   2.467  0.00  0.00    +0.241 A 
ATOM      9  N   UNL     1       1.278  -1.100   3.159  0.00  0.00    -0.123 NA
ATOM     10  N   UNL     1       2.298  -1.291   2.393  0.00  0.00    -0.113 NA
ATOM     11  H   UNL     1       3.619  -1.426  -0.026  0.00  0.00    +0.150 HD
ENDROOT
BRANCH   4  12
ATOM     12  C   UNL     1       2.937  -0.631  -2.392  0.00  0.00    -0.026 A 
ATOM     13  C   UNL     1       3.250  -1.963  -2.590  0.00  0.00    +0.006 A 
ATOM     14  C   UNL     1       3.895  -2.357  -3.747  0.00  0.00    +0.015 A 
ATOM     15  C   UNL     1       4.228  -1.419  -4.707  0.00  0.00    +0.018 A 
ATOM     16  C   UNL     1       3.914  -0.086  -4.509  0.00  0.00    +0.015 A 
ATOM     17  C   UNL     1       3.264   0.306  -3.354  0.00  0.00    +0.006 A 
ATOM     18 BR   UNL     1       5.111  -1.958  -6.290  0.00  0.00    -0.050 Br
ENDBRANCH   4  12
BRANCH   8  19
ATOM     19  C   UNL     1      -1.083  -0.251   2.994  0.00  0.00    +0.453 C 
ATOM     20  F   UNL     1      -1.042  -0.190   4.391  0.00  0.00    -0.163 F 
ATOM     21  F   UNL     1      -1.466   0.994   2.484  0.00  0.00    -0.163 F 
ATOM     22  F   UNL     1      -2.009  -1.222   2.597  0.00  0.00    -0.163 F 
ENDBRANCH   8  19
BRANCH   3  23
ATOM     23  C   UNL     1       0.533  -1.988  -1.391  0.00  0.00    +0.317 C 
ATOM     24  O   UNL     1      -0.128  -2.588  -0.577  0.00  0.00    -0.250 OA
BRANCH  23  25
ATOM     25  O   UNL     1       1.087  -2.646  -2.422  0.00  0.00    -0.468 OA
ATOM     26  C   UNL     1       0.854  -4.054  -2.493  0.00  0.00    +0.280 C 
ENDBRANCH  23  25
ENDBRANCH   3  23
BRANCH   2  27
ATOM     27  O   UNL     1      -1.338  -0.501   0.005  0.00  0.00    -0.369 OA
ATOM     28  H   UNL     1      -1.857  -0.228   0.774  0.00  0.00    +0.212 HD
ENDBRANCH   2  27
TORSDOF 5
