REMARK  Name = ZINC57531299
REMARK  5 active torsions:
REMARK  status: ('A' for Active; 'I' for Inactive)
REMARK    1  A    between atoms: C_3  and  C_9
REMARK    2  A    between atoms: C_11  and  C_23
REMARK    3  A    between atoms: C_13  and  C_18
REMARK    4  A    between atoms: C_13  and  O_22
REMARK    5  A    between atoms: C_23  and  C_25
REMARK                            x       y       z     vdW  Elec       q    Type
REMARK                         _______ _______ _______ _____ _____    ______ ____
ROOT
ATOM      1  C   UNL     1       3.671   2.186  -0.023  0.00  0.00    +0.121 C 
ATOM      2  C   UNL     1       4.252   2.229   1.395  0.00  0.00    +0.145 C 
ATOM      3  C   UNL     1       5.503   3.115   1.383  0.00  0.00    +0.243 C 
ATOM      4  N   UNL     1       5.153   4.432   0.848  0.00  0.00    -0.264 N 
ATOM      5  C   UNL     1       4.158   4.583  -0.039  0.00  0.00    +0.302 C 
ATOM      6  O   UNL     1       3.915   5.698  -0.459  0.00  0.00    -0.253 OA
ATOM      7  N   UNL     1       3.421   3.553  -0.482  0.00  0.00    -0.292 N 
ATOM      8  H   UNL     1       5.650   5.212   1.142  0.00  0.00    +0.153 HD
ATOM      9  H   UNL     1       2.708   3.717  -1.119  0.00  0.00    +0.151 HD
ENDROOT
BRANCH   1  12
ATOM     10  C   UNL     1      -0.017   1.378   0.010  0.00  0.00    +0.002 A 
ATOM     11  C   UNL     1       1.171   2.086   0.002  0.00  0.00    +0.007 A 
ATOM     12  C   UNL     1       2.378   1.413  -0.013  0.00  0.00    -0.007 A 
ATOM     13  C   UNL     1       2.398   0.030  -0.021  0.00  0.00    +0.064 A 
ATOM     14  C   UNL     1       1.209  -0.679  -0.013  0.00  0.00    +0.060 A 
ATOM     15  C   UNL     1       0.002  -0.004   0.002  0.00  0.00    +0.021 A 
ATOM     16 CL   UNL     1       1.234  -2.415  -0.023  0.00  0.00    -0.082 Cl
ATOM     17 CL   UNL     1       3.914  -0.816  -0.041  0.00  0.00    -0.082 Cl
ENDBRANCH   1  12
BRANCH   3  18
ATOM     18  C   UNL     1       6.035   3.267   2.809  0.00  0.00    +0.436 C 
ATOM     19  F   UNL     1       6.362   2.007   3.321  0.00  0.00    -0.166 F 
ATOM     20  F   UNL     1       7.177   4.076   2.797  0.00  0.00    -0.166 F 
ATOM     21  F   UNL     1       5.054   3.857   3.613  0.00  0.00    -0.166 F 
ENDBRANCH   3  18
BRANCH   3  22
ATOM     22  O   UNL     1       6.505   2.516   0.559  0.00  0.00    -0.364 OA
ATOM     23  H   UNL     1       7.325   3.025   0.505  0.00  0.00    +0.212 HD
ENDBRANCH   3  22
BRANCH   2  24
ATOM     24  C   UNL     1       3.231   2.802   2.343  0.00  0.00    +0.179 C 
ATOM     25  O   UNL     1       2.363   3.541   1.926  0.00  0.00    -0.291 OA
BRANCH  24  26
ATOM     26  C   UNL     1       3.283   2.478   3.717  0.00  0.00    +0.055 A 
ATOM     27  C   UNL     1       2.443   2.889   4.748  0.00  0.00    +0.019 A 
ATOM     28  C   UNL     1       2.749   2.403   5.993  0.00  0.00    +0.008 A 
ATOM     29  C   UNL     1       3.818   1.577   6.136  0.00  0.00    +0.046 A 
ATOM     30  S   UNL     1       4.437   1.429   4.581  0.00  0.00    -0.094 S 
ENDBRANCH  24  26
ENDBRANCH   2  24
TORSDOF 5
