REMARK  Name = ZINC38799896
REMARK  6 active torsions:
REMARK  status: ('A' for Active; 'I' for Inactive)
REMARK    1  A    between atoms: C_7  and  C_10
REMARK    2  A    between atoms: N_11  and  N_12
REMARK    3  A    between atoms: C_23  and  C_28
REMARK    4  A    between atoms: C_25  and  N_27
REMARK    5  A    between atoms: N_30  and  C_31
REMARK    6  A    between atoms: C_31  and  C_32
REMARK                            x       y       z     vdW  Elec       q    Type
REMARK                         _______ _______ _______ _____ _____    ______ ____
ROOT
ATOM      1  N   UNL     1       0.328  -5.567  -0.239  0.00  0.00    -0.219 N 
ATOM      2  C   UNL     1      -1.050  -5.457  -0.350  0.00  0.00    +0.162 A 
ATOM      3  C   UNL     1      -1.674  -6.713  -0.286  0.00  0.00    +0.095 A 
ATOM      4  N   UNL     1      -2.978  -6.828  -0.371  0.00  0.00    -0.246 NA
ATOM      5  C   UNL     1      -3.737  -5.737  -0.522  0.00  0.00    +0.090 A 
ATOM      6  C   UNL     1      -5.135  -5.831  -0.615  0.00  0.00    +0.030 A 
ATOM      7  C   UNL     1      -5.880  -4.702  -0.767  0.00  0.00    +0.002 A 
ATOM      8  C   UNL     1      -5.274  -3.448  -0.833  0.00  0.00    +0.002 A 
ATOM      9  C   UNL     1      -3.922  -3.318  -0.747  0.00  0.00    +0.030 A 
ATOM     10  C   UNL     1      -3.120  -4.462  -0.588  0.00  0.00    +0.091 A 
ATOM     11  N   UNL     1      -1.791  -4.365  -0.500  0.00  0.00    -0.227 NA
ATOM     12  C   UNL     1      -0.600  -7.766  -0.115  0.00  0.00    +0.131 C 
ATOM     13  C   UNL     1       0.716  -6.972  -0.093  0.00  0.00    +0.058 C 
ENDROOT
BRANCH  13  14
ATOM     14  N   UNL     1       1.578  -7.380  -1.211  0.00  0.00    +0.392 N 
ATOM     15  H   UNL     1       2.450  -6.875  -1.164  0.00  0.00    -0.087 HD
ATOM     16  H   UNL     1       1.758  -8.371  -1.152  0.00  0.00    -0.087 HD
ATOM     17  H   UNL     1       1.116  -7.173  -2.084  0.00  0.00    -0.087 HD
ENDBRANCH  13  14
BRANCH  12  18
ATOM     18  C   UNL     1      -0.614  -8.726  -1.276  0.00  0.00    +0.222 C 
ATOM     19  O   UNL     1      -1.006  -8.357  -2.363  0.00  0.00    -0.275 OA
ATOM     20  N   UNL     1      -0.191  -9.994  -1.107  0.00  0.00    -0.310 N 
ATOM     21  H   UNL     1       0.122 -10.289  -0.238  0.00  0.00    +0.149 HD
BRANCH  20  22
ATOM     22  C   UNL     1      -0.205 -10.927  -2.237  0.00  0.00    +0.146 C 
BRANCH  22  23
ATOM     23  C   UNL     1       0.313 -12.269  -1.786  0.00  0.00    +0.007 A 
ATOM     24  C   UNL     1      -0.374 -13.323  -1.282  0.00  0.00    +0.013 A 
ATOM     25  C   UNL     1       0.317 -14.468  -0.933  0.00  0.00    +0.008 A 
ATOM     26  C   UNL     1       1.661 -14.502  -1.104  0.00  0.00    +0.045 A 
ATOM     27  S   UNL     1       1.988 -12.885  -1.784  0.00  0.00    -0.100 S 
ENDBRANCH  22  23
ENDBRANCH  20  22
ENDBRANCH  12  18
BRANCH   1  29
ATOM     28  C   UNL     1       2.428  -4.775  -0.044  0.00  0.00    +0.136 C 
ATOM     29  N   UNL     1       1.150  -4.574  -0.266  0.00  0.00    -0.188 NA
BRANCH  28  36
ATOM     30  C   UNL     1       6.924  -4.555   0.502  0.00  0.00    +0.001 A 
ATOM     31  C   UNL     1       7.455  -3.287   0.255  0.00  0.00    +0.002 A 
ATOM     32  C   UNL     1       6.672  -2.243  -0.113  0.00  0.00    +0.026 A 
ATOM     33  C   UNL     1       5.271  -2.427  -0.254  0.00  0.00    +0.043 A 
ATOM     34  N   UNL     1       4.312  -1.589  -0.593  0.00  0.00    -0.380 N 
ATOM     35  C   UNL     1       3.027  -2.295  -0.587  0.00  0.00    +0.150 C 
ATOM     36  C   UNL     1       3.336  -3.721  -0.188  0.00  0.00    +0.000 C 
ATOM     37  C   UNL     1       4.718  -3.765   0.008  0.00  0.00    +0.004 A 
ATOM     38  C   UNL     1       5.594  -4.804   0.387  0.00  0.00    +0.010 A 
ATOM     39  H   UNL     1       4.436  -0.652  -0.811  0.00  0.00    +0.160 HD
ENDBRANCH  28  36
ENDBRANCH   1  29
TORSDOF 6
