REMARK  Name = ZINC14991001
REMARK  9 active torsions:
REMARK  status: ('A' for Active; 'I' for Inactive)
REMARK    1  A    between atoms: C_5  and  C_7
REMARK    2  A    between atoms: C_7  and  C_9
REMARK    3  A    between atoms: C_7  and  N_31
REMARK    4  A    between atoms: C_9  and  N_10
REMARK    5  A    between atoms: C_11  and  C_17
REMARK    6  A    between atoms: C_17  and  C_18
REMARK    7  A    between atoms: C_18  and  N_19
REMARK    8  A    between atoms: N_19  and  C_20
REMARK    9  A    between atoms: C_20  and  C_21
REMARK                            x       y       z     vdW  Elec       q    Type
REMARK                         _______ _______ _______ _____ _____    ______ ____
ROOT
ATOM      1  N   UNL     1      -0.791   3.219   3.326  0.00  0.00    -0.297 N 
ATOM      2  C   UNL     1      -2.017   3.825   2.793  0.00  0.00    +0.075 C 
ATOM      3  C   UNL     1      -1.643   5.287   2.463  0.00  0.00    +0.031 C 
ATOM      4  C   UNL     1      -0.463   5.537   3.430  0.00  0.00    +0.098 C 
ATOM      5  C   UNL     1       0.095   4.157   3.702  0.00  0.00    +0.216 C 
ATOM      6  O   UNL     1       1.183   3.930   4.186  0.00  0.00    -0.276 OA
ENDROOT
BRANCH   1   7
ATOM      7  C   UNL     1      -0.565   1.776   3.440  0.00  0.00    +0.133 C 
BRANCH   7   8
ATOM      8  C   UNL     1      -0.024   1.238   2.113  0.00  0.00    +0.123 C 
BRANCH   8  13
ATOM      9  C   UNL     1       2.611   3.665   0.943  0.00  0.00    +0.003 A 
ATOM     10  C   UNL     1       3.749   2.970   1.323  0.00  0.00    +0.020 A 
ATOM     11  C   UNL     1       3.613   1.742   1.942  0.00  0.00    +0.111 A 
ATOM     12  N   UNL     1       2.419   1.232   2.173  0.00  0.00    -0.258 NA
ATOM     13  C   UNL     1       1.316   1.865   1.826  0.00  0.00    +0.060 A 
ATOM     14  C   UNL     1       1.374   3.095   1.197  0.00  0.00    +0.025 A 
ENDBRANCH   8  13
BRANCH   8  15
ATOM     15  N   UNL     1       0.126  -0.220   2.201  0.00  0.00    -0.288 NA
ATOM     16  C   UNL     1       0.545  -0.785   0.910  0.00  0.00    +0.113 C 
ATOM     17  C   UNL     1       0.747  -2.295   1.060  0.00  0.00    +0.175 C 
ATOM     18  O   UNL     1      -0.462  -2.887   1.543  0.00  0.00    -0.377 OA
ATOM     19  C   UNL     1      -0.898  -2.362   2.799  0.00  0.00    +0.175 C 
ATOM     20  C   UNL     1      -1.117  -0.852   2.667  0.00  0.00    +0.113 C 
ENDBRANCH   8  15
ENDBRANCH   7   8
ENDBRANCH   1   7
BRANCH   2  21
ATOM     21  C   UNL     1      -2.462   3.093   1.526  0.00  0.00    +0.003 C 
BRANCH  21  22
ATOM     22  C   UNL     1      -3.778   3.693   1.026  0.00  0.00    -0.080 C 
BRANCH  22  23
ATOM     23  N   UNL     1      -4.269   2.913  -0.118  0.00  0.00    +0.382 N 
ATOM     24  H   UNL     1      -3.523   2.939  -0.926  0.00  0.00    -0.085 HD
ATOM     25  H   UNL     1      -4.435   1.871   0.193  0.00  0.00    -0.085 HD
BRANCH  23  26
ATOM     26  C   UNL     1      -5.534   3.461  -0.625  0.00  0.00    -0.045 C 
BRANCH  26  27
ATOM     27  C   UNL     1      -6.005   2.637  -1.796  0.00  0.00    -0.042 A 
ATOM     28  C   UNL     1      -7.053   1.749  -1.637  0.00  0.00    +0.052 A 
ATOM     29  C   UNL     1      -7.491   0.994  -2.712  0.00  0.00    +0.167 A 
ATOM     30  C   UNL     1      -6.866   1.123  -3.951  0.00  0.00    +0.168 A 
ATOM     31  C   UNL     1      -5.813   2.010  -4.102  0.00  0.00    +0.069 A 
ATOM     32  C   UNL     1      -5.384   2.765  -3.025  0.00  0.00    +0.046 A 
ATOM     33 CL   UNL     1      -4.064   3.876  -3.217  0.00  0.00    -0.083 Cl
ATOM     34  O   UNL     1      -7.470   0.276  -4.835  0.00  0.00    -0.453 OA
ATOM     35  C   UNL     1      -8.200  -0.666  -4.027  0.00  0.00    +0.466 C 
ATOM     36  O   UNL     1      -8.487   0.067  -2.821  0.00  0.00    -0.453 OA
ENDBRANCH  26  27
ENDBRANCH  23  26
ENDBRANCH  22  23
ENDBRANCH  21  22
ENDBRANCH   2  21
TORSDOF 9
