REMARK  Name = ZINC06911008
REMARK  4 active torsions:
REMARK  status: ('A' for Active; 'I' for Inactive)
REMARK    1  A    between atoms: C_1  and  N_2
REMARK    2  A    between atoms: N_2  and  C_3
REMARK    3  A    between atoms: N_2  and  C_4
REMARK    4  A    between atoms: C_7  and  C_10
REMARK                            x       y       z     vdW  Elec       q    Type
REMARK                         _______ _______ _______ _____ _____    ______ ____
ROOT
ATOM      1  C   UNL     1      -0.006  -2.813  -4.924  0.00  0.00    +0.090 C 
ATOM      2  C   UNL     1      -1.253  -2.468  -5.685  0.00  0.00    +0.042 A 
ATOM      3  C   UNL     1      -2.481  -3.047  -5.330  0.00  0.00    +0.126 A 
ATOM      4  N   UNL     1      -3.578  -2.731  -6.010  0.00  0.00    -0.208 NA
ATOM      5  C   UNL     1      -3.532  -1.872  -7.024  0.00  0.00    +0.180 A 
ATOM      6  S   UNL     1      -4.971  -1.493  -7.871  0.00  0.00    -0.011 S 
ATOM      7  N   UNL     1      -2.374  -1.296  -7.396  0.00  0.00    -0.322 N 
ATOM      8  C   UNL     1      -1.216  -1.591  -6.729  0.00  0.00    +0.110 A 
ATOM      9  N   UNL     1      -0.028  -1.016  -7.106  0.00  0.00    -0.304 N 
ATOM     10  C   UNL     1       1.166  -1.574  -6.736  0.00  0.00    +0.017 C 
ATOM     11  C   UNL     1       1.229  -2.442  -5.706  0.00  0.00    +0.024 C 
ATOM     12  C   UNL     1       2.449  -3.031  -5.330  0.00  0.00    +0.162 C 
ATOM     13  O   UNL     1       2.474  -3.806  -4.394  0.00  0.00    -0.292 OA
ATOM     14  C   UNL     1       3.724  -2.721  -6.065  0.00  0.00    +0.080 C 
ATOM     15  C   UNL     1       3.389  -2.356  -7.515  0.00  0.00    +0.014 C 
ATOM     16  C   UNL     1       2.406  -1.188  -7.504  0.00  0.00    +0.051 C 
ATOM     17  N   UNL     1      -2.548  -3.940  -4.281  0.00  0.00    -0.343 N 
ATOM     18  H   UNL     1      -0.034  -0.206  -7.640  0.00  0.00    +0.153 HD
ATOM     19  H   UNL     1      -3.398  -4.338  -4.038  0.00  0.00    +0.144 HD
ATOM     20  H   UNL     1      -1.746  -4.169  -3.787  0.00  0.00    +0.144 HD
ATOM     21  H   UNL     1      -2.360  -0.670  -8.138  0.00  0.00    +0.169 HD
ENDROOT
BRANCH   1  25
ATOM     22  C   UNL     1       0.000  -0.696  -1.211  0.00  0.00    +0.029 A 
ATOM     23  C   UNL     1       0.013  -2.085  -1.221  0.00  0.00    +0.023 A 
ATOM     24  C   UNL     1       0.010  -2.766  -2.422  0.00  0.00    +0.006 A 
ATOM     25  C   UNL     1      -0.005  -2.066  -3.615  0.00  0.00    -0.035 A 
ATOM     26  C   UNL     1      -0.018  -0.684  -3.609  0.00  0.00    +0.006 A 
ATOM     27  C   UNL     1      -0.021   0.004  -2.411  0.00  0.00    +0.023 A 
BRANCH  22  29
ATOM     28  C   UNL     1      -0.018   1.461   0.010  0.00  0.00    +0.129 C 
ATOM     29  N   UNL     1       0.002  -0.004   0.002  0.00  0.00    -0.336 N 
ATOM     30  C   UNL     1       0.024  -0.743   1.267  0.00  0.00    +0.129 C 
ENDBRANCH  22  29
ENDBRANCH   1  25
TORSDOF 2
