REMARK  Name = ZINC10437218
REMARK  7 active torsions:
REMARK  status: ('A' for Active; 'I' for Inactive)
REMARK    1  A    between atoms: C_1  and  C_2
REMARK    2  A    between atoms: C_9  and  C_11
REMARK    3  A    between atoms: C_11  and  O_13
REMARK    4  A    between atoms: O_13  and  C_14
REMARK    5  A    between atoms: C_14  and  C_15
REMARK    6  A    between atoms: N_17  and  N_18
REMARK    7  A    between atoms: C_24  and  C_27
REMARK                            x       y       z     vdW  Elec       q    Type
REMARK                         _______ _______ _______ _____ _____    ______ ____
ROOT
ATOM      1  C   UNL     1       2.040  -8.884   2.824  0.00  0.00    +0.267 C 
ATOM      2  O   UNL     1       1.856  -8.980   1.629  0.00  0.00    -0.271 OA
ATOM      3  N   UNL     1       2.298  -9.985   3.557  0.00  0.00    -0.221 N 
ATOM      4  H   UNL     1       2.446  -9.907   4.513  0.00  0.00    +0.174 HD
ENDROOT
BRANCH   3   5
ATOM      5  N   UNL     1       2.352 -11.241   2.939  0.00  0.00    -0.137 N 
ATOM      6  C   UNL     1       1.381 -12.173   3.029  0.00  0.00    +0.263 C 
ATOM      7  O   UNL     1       0.335 -12.087   3.637  0.00  0.00    -0.271 OA
ATOM      8  C   UNL     1       1.871 -13.347   2.213  0.00  0.00    +0.114 C 
ATOM      9  C   UNL     1       0.918 -13.625   1.056  0.00  0.00    +0.035 C 
ATOM     10  C   UNL     1       1.448 -14.797   0.226  0.00  0.00    +0.006 C 
ATOM     11  C   UNL     1       1.573 -16.036   1.115  0.00  0.00    -0.014 C 
ATOM     12  C   UNL     1       2.550 -15.749   2.257  0.00  0.00    +0.006 C 
ATOM     13  C   UNL     1       2.024 -14.581   3.096  0.00  0.00    +0.035 C 
ATOM     14  C   UNL     1       2.092 -17.210   0.284  0.00  0.00    +0.007 C 
ATOM     15  N   UNL     1       3.179 -12.909   1.709  0.00  0.00    -0.284 N 
ATOM     16  C   UNL     1       3.372 -11.663   2.182  0.00  0.00    +0.326 C 
ATOM     17  O   UNL     1       4.362 -10.998   1.950  0.00  0.00    -0.251 OA
ATOM     18  H   UNL     1       3.783 -13.416   1.144  0.00  0.00    +0.151 HD
ENDBRANCH   3   5
BRANCH   1  19
ATOM     19  C   UNL     1       1.982  -7.532   3.488  0.00  0.00    +0.329 C 
BRANCH  19  20
ATOM     20  O   UNL     1       1.696  -6.532   2.509  0.00  0.00    -0.451 OA
BRANCH  20  21
ATOM     21  C   UNL     1       1.609  -5.257   2.942  0.00  0.00    +0.346 C 
ATOM     22  O   UNL     1       1.771  -5.004   4.121  0.00  0.00    -0.244 OA
BRANCH  21  30
ATOM     23  C   UNL     1      -0.019   1.526   0.010  0.00  0.00    +0.008 C 
ATOM     24  C   UNL     1       0.002  -0.004   0.002  0.00  0.00    -0.009 C 
ATOM     25  C   UNL     1       0.716  -0.496  -1.260  0.00  0.00    +0.009 C 
ATOM     26  C   UNL     1       0.494  -2.009  -1.395  0.00  0.00    +0.043 C 
ATOM     27  C   UNL     1       0.790  -2.652  -0.071  0.00  0.00    -0.006 A 
ATOM     28  C   UNL     1       0.909  -2.022   1.133  0.00  0.00    -0.036 A 
ATOM     29  C   UNL     1       1.189  -2.822   2.230  0.00  0.00    +0.026 A 
ATOM     30  C   UNL     1       1.319  -4.180   1.995  0.00  0.00    +0.097 A 
ATOM     31  S   UNL     1       1.041  -4.274   0.236  0.00  0.00    -0.086 S 
ATOM     32  C   UNL     1       0.739  -0.509   1.243  0.00  0.00    +0.039 C 
ENDBRANCH  21  30
ENDBRANCH  20  21
ENDBRANCH  19  20
ENDBRANCH   1  19
TORSDOF 5
