REMARK  Name = ZINC08586206
REMARK  13 active torsions:
REMARK  status: ('A' for Active; 'I' for Inactive)
REMARK    1  A    between atoms: C_1  and  C_2
REMARK    2  A    between atoms: C_7  and  C_13
REMARK    3  A    between atoms: C_8  and  O_12
REMARK    4  A    between atoms: C_13  and  C_15
REMARK    5  A    between atoms: C_13  and  N_61
REMARK    6  A    between atoms: N_19  and  C_20
REMARK    7  A    between atoms: C_20  and  C_21
REMARK    8  A    between atoms: C_21  and  O_22
REMARK    9  A    between atoms: O_22  and  C_23
REMARK   10  A    between atoms: C_24  and  C_25
REMARK   11  A    between atoms: C_24  and  N_61
REMARK   12  A    between atoms: C_30  and  C_31
REMARK   13  A    between atoms: C_30  and  N_61
REMARK                            x       y       z     vdW  Elec       q    Type
REMARK                         _______ _______ _______ _____ _____    ______ ____
ROOT
ATOM      1  C   UNL     1       3.883  -1.476   0.727  0.00  0.00    +0.040 C 
ENDROOT
BRANCH   1   8
ATOM      2  C   UNL     1      -2.320   2.317   3.887  0.00  0.00    +0.044 C 
ATOM      3  C   UNL     1      -1.102   1.794   3.170  0.00  0.00    -0.048 A 
ATOM      4  C   UNL     1      -0.420   2.623   2.282  0.00  0.00    +0.004 A 
ATOM      5  C   UNL     1       0.684   2.180   1.619  0.00  0.00    +0.010 A 
ATOM      6  C   UNL     1       1.142   0.871   1.832  0.00  0.00    +0.001 A 
ATOM      7  C   UNL     1       2.281   0.376   1.165  0.00  0.00    +0.017 A 
ATOM      8  C   UNL     1       2.671  -0.905   1.418  0.00  0.00    +0.008 A 
ATOM      9  C   UNL     1       1.944  -1.691   2.322  0.00  0.00    +0.215 A 
ATOM     10  N   UNL     1       0.882  -1.224   2.942  0.00  0.00    -0.213 NA
ATOM     11  C   UNL     1       0.451   0.025   2.734  0.00  0.00    +0.075 A 
ATOM     12  C   UNL     1      -0.681   0.521   3.404  0.00  0.00    +0.031 A 
BRANCH   9  13
ATOM     13  O   UNL     1       2.345  -2.963   2.563  0.00  0.00    -0.492 OA
ATOM     14  H   UNL     1       1.950  -3.619   1.972  0.00  0.00    +0.294 HD
ENDBRANCH   9  13
ENDBRANCH   1   8
BRANCH   1  15
ATOM     15  C   UNL     1       5.042  -1.508   1.690  0.00  0.00    +0.143 A 
ATOM     16  N   UNL     1       5.482  -0.512   2.418  0.00  0.00    -0.115 NA
ATOM     17  N   UNL     1       6.483  -0.937   3.110  0.00  0.00    -0.023 NA
ATOM     18  N   UNL     1       6.697  -2.176   2.836  0.00  0.00    -0.044 NA
ATOM     19  N   UNL     1       5.829  -2.565   1.964  0.00  0.00    -0.228 N 
BRANCH  19  20
ATOM     20  C   UNL     1       5.720  -3.905   1.383  0.00  0.00    +0.175 C 
BRANCH  20  21
ATOM     21  C   UNL     1       6.687  -4.030   0.204  0.00  0.00    +0.183 C 
BRANCH  21  22
ATOM     22  O   UNL     1       6.581  -5.337  -0.364  0.00  0.00    -0.381 OA
ATOM     23  C   UNL     1       7.448  -5.559  -1.478  0.00  0.00    +0.194 C 
ENDBRANCH  21  22
ENDBRANCH  20  21
ENDBRANCH  19  20
ENDBRANCH   1  15
BRANCH   1  24
ATOM     24  N   UNL     1       4.206  -0.620  -0.434  0.00  0.00    +0.397 N 
ATOM     25  H   UNL     1       3.384  -0.049  -0.666  0.00  0.00    -0.079 HD
BRANCH  24  26
ATOM     26  C   UNL     1       4.553  -1.459  -1.600  0.00  0.00    -0.001 C 
BRANCH  26  27
ATOM     27  C   UNL     1       3.291  -2.082  -2.140  0.00  0.00    +0.089 A 
ATOM     28  C   UNL     1       2.527  -1.580  -3.127  0.00  0.00    +0.042 A 
ATOM     29  C   UNL     1       1.452  -2.480  -3.310  0.00  0.00    +0.041 A 
ATOM     30  C   UNL     1       1.624  -3.478  -2.425  0.00  0.00    +0.195 A 
ATOM     31  O   UNL     1       2.743  -3.234  -1.723  0.00  0.00    -0.470 OA
ENDBRANCH  26  27
ENDBRANCH  24  26
BRANCH  24  32
ATOM     32  C   UNL     1       5.334   0.276  -0.102  0.00  0.00    -0.034 C 
BRANCH  32  33
ATOM     33  C   UNL     1       4.782   1.532   0.520  0.00  0.00    -0.027 A 
ATOM     34  C   UNL     1       4.401   1.754   1.802  0.00  0.00    +0.009 A 
ATOM     35  C   UNL     1       3.920   3.001   2.153  0.00  0.00    +0.008 A 
ATOM     36  C   UNL     1       3.842   3.966   1.205  0.00  0.00    +0.045 A 
ATOM     37  S   UNL     1       4.468   3.119  -0.237  0.00  0.00    -0.103 S 
ENDBRANCH  32  33
ENDBRANCH  24  32
ENDBRANCH   1  24
TORSDOF 11
