REMARK  Name = ZINC34906284
REMARK  13 active torsions:
REMARK  status: ('A' for Active; 'I' for Inactive)
REMARK    1  A    between atoms: C_1  and  C_2
REMARK    2  A    between atoms: C_2  and  C_3
REMARK    3  A    between atoms: C_2  and  C_4
REMARK    4  A    between atoms: C_7  and  O_10
REMARK    5  A    between atoms: O_10  and  C_11
REMARK    6  A    between atoms: C_11  and  C_12
REMARK    7  A    between atoms: C_14  and  C_17
REMARK    8  A    between atoms: N_19  and  C_20
REMARK    9  A    between atoms: C_26  and  N_28
REMARK   10  A    between atoms: N_31  and  C_32
REMARK   11  A    between atoms: C_32  and  C_33
REMARK   12  A    between atoms: C_32  and  C_34
REMARK   13  A    between atoms: C_32  and  C_35
REMARK                            x       y       z     vdW  Elec       q    Type
REMARK                         _______ _______ _______ _____ _____    ______ ____
ROOT
ATOM      1  C   UNL     1     -10.643  -2.537  -1.452  0.00  0.00    +0.263 C 
ATOM      2  O   UNL     1     -11.702  -3.073  -1.184  0.00  0.00    -0.269 OA
ATOM      3  N   UNL     1     -10.629  -1.380  -2.144  0.00  0.00    -0.305 N 
ATOM      4  H   UNL     1      -9.785  -0.953  -2.357  0.00  0.00    +0.149 HD
ENDROOT
BRANCH   3   5
ATOM      5  C   UNL     1     -11.889  -0.769  -2.574  0.00  0.00    +0.093 C 
ATOM      6  C   UNL     1     -12.330  -1.388  -3.902  0.00  0.00    +0.024 C 
ATOM      7  C   UNL     1     -11.255  -1.139  -4.962  0.00  0.00    +0.002 C 
ATOM      8  C   UNL     1     -11.055   0.367  -5.142  0.00  0.00    +0.002 C 
ATOM      9  C   UNL     1     -10.615   0.986  -3.814  0.00  0.00    +0.024 C 
ATOM     10  C   UNL     1     -11.690   0.737  -2.754  0.00  0.00    +0.095 C 
BRANCH  10  11
ATOM     11  N   UNL     1     -11.268   1.330  -1.483  0.00  0.00    -0.295 N 
ATOM     12  C   UNL     1     -11.507   2.633  -1.234  0.00  0.00    +0.300 C 
ATOM     13  O   UNL     1     -12.073   3.317  -2.066  0.00  0.00    -0.253 OA
ATOM     14  N   UNL     1     -11.119   3.179  -0.065  0.00  0.00    -0.295 N 
ATOM     15  H   UNL     1     -10.816   0.785  -0.820  0.00  0.00    +0.151 HD
ATOM     16  H   UNL     1     -10.668   2.633   0.599  0.00  0.00    +0.151 HD
BRANCH  14  17
ATOM     17  C   UNL     1     -11.380   4.595   0.205  0.00  0.00    +0.028 C 
ATOM     18  C   UNL     1     -12.886   4.854   0.158  0.00  0.00    +0.031 C 
ATOM     19  C   UNL     1     -10.843   4.957   1.591  0.00  0.00    +0.031 C 
ATOM     20  C   UNL     1     -10.681   5.452  -0.852  0.00  0.00    +0.031 C 
ENDBRANCH  14  17
ENDBRANCH  10  11
ENDBRANCH   3   5
BRANCH   1  23
ATOM     21  C   UNL     1      -7.113  -3.201  -0.875  0.00  0.00    +0.116 A 
ATOM     22  N   UNL     1      -8.191  -2.596  -1.292  0.00  0.00    -0.236 NA
ATOM     23  C   UNL     1      -9.376  -3.151  -1.020  0.00  0.00    +0.133 A 
ATOM     24  C   UNL     1      -9.344  -4.325  -0.315  0.00  0.00    +0.080 A 
ATOM     25  S   UNL     1      -7.696  -4.568  -0.094  0.00  0.00    -0.076 S 
BRANCH  21  26
ATOM     26  C   UNL     1      -5.679  -2.776  -1.058  0.00  0.00    +0.291 C 
BRANCH  26  27
ATOM     27  O   UNL     1      -5.282  -1.955   0.043  0.00  0.00    -0.485 OA
BRANCH  27  31
ATOM     28  C   UNL     1      -1.412  -0.526   0.013  0.00  0.00    -0.045 A 
ATOM     29  C   UNL     1      -2.258  -0.203   1.057  0.00  0.00    +0.007 A 
ATOM     30  C   UNL     1      -3.555  -0.681   1.070  0.00  0.00    +0.046 A 
ATOM     31  C   UNL     1      -4.007  -1.484   0.033  0.00  0.00    +0.121 A 
ATOM     32  C   UNL     1      -3.156  -1.805  -1.015  0.00  0.00    +0.046 A 
ATOM     33  C   UNL     1      -1.862  -1.321  -1.025  0.00  0.00    +0.007 A 
BRANCH  28  35
ATOM     34  C   UNL     1      -0.019   1.526   0.010  0.00  0.00    +0.012 C 
ATOM     35  C   UNL     1       0.002  -0.004   0.002  0.00  0.00    +0.013 C 
ATOM     36  C   UNL     1       0.742  -0.511   1.242  0.00  0.00    +0.012 C 
ENDBRANCH  28  35
ENDBRANCH  27  31
ENDBRANCH  26  27
ENDBRANCH  21  26
ENDBRANCH   1  23
TORSDOF 8
