REMARK  Name = ZINC28710363
REMARK  12 active torsions:
REMARK  status: ('A' for Active; 'I' for Inactive)
REMARK    1  A    between atoms: C_1  and  C_2
REMARK    2  A    between atoms: N_10  and  C_11
REMARK    3  A    between atoms: C_11  and  C_12
REMARK    4  A    between atoms: C_16  and  C_18
REMARK    5  A    between atoms: N_20  and  C_21
REMARK    6  A    between atoms: N_24  and  C_27
REMARK    7  A    between atoms: C_27  and  C_28
REMARK    8  A    between atoms: C_28  and  C_30
REMARK    9  A    between atoms: C_28  and  O_34
REMARK   10  A    between atoms: C_30  and  C_31
REMARK   11  A    between atoms: C_30  and  C_32
REMARK   12  A    between atoms: C_30  and  C_33
REMARK                            x       y       z     vdW  Elec       q    Type
REMARK                         _______ _______ _______ _____ _____    ______ ____
ROOT
ATOM      1  C   UNL     1       0.284   2.245  -0.090  0.00  0.00    +0.046 C 
ATOM      2  C   UNL     1       0.277   0.744  -0.227  0.00  0.00    -0.025 A 
ATOM      3  C   UNL     1       0.314   0.164  -1.475  0.00  0.00    +0.005 A 
ATOM      4  C   UNL     1       0.308  -1.216  -1.610  0.00  0.00    +0.002 A 
ATOM      5  C   UNL     1       0.264  -2.027  -0.494  0.00  0.00    +0.028 A 
ATOM      6  C   UNL     1       0.227  -1.460   0.770  0.00  0.00    +0.069 A 
ATOM      7  C   UNL     1       0.239  -0.063   0.913  0.00  0.00    +0.068 A 
ATOM      8  N   UNL     1       0.204   0.204   2.245  0.00  0.00    -0.327 N 
ATOM      9  C   UNL     1       0.177  -0.919   2.917  0.00  0.00    +0.175 A 
ATOM     10  N   UNL     1       0.181  -1.978   2.054  0.00  0.00    -0.307 N 
ATOM     11  N   UNL     1       0.138  -1.019   4.292  0.00  0.00    -0.314 N 
ATOM     12  H   UNL     1       0.120  -1.891   4.715  0.00  0.00    +0.149 HD
ATOM     13  H   UNL     1       0.199   1.091   2.638  0.00  0.00    +0.169 HD
ENDROOT
BRANCH  11  14
ATOM     14  C   UNL     1       0.124   0.194   5.114  0.00  0.00    +0.070 C 
ATOM     15  C   UNL     1       1.560   0.673   5.346  0.00  0.00    +0.003 C 
ATOM     16  C   UNL     1       1.542   1.892   6.269  0.00  0.00    -0.077 C 
ATOM     17  N   UNL     1       0.933   1.529   7.554  0.00  0.00    +0.381 N 
ATOM     18  C   UNL     1      -0.466   1.137   7.349  0.00  0.00    -0.077 C 
ATOM     19  C   UNL     1      -0.526  -0.112   6.467  0.00  0.00    +0.003 C 
ATOM     20  H   UNL     1       1.441   0.757   7.960  0.00  0.00    -0.082 HD
BRANCH  17  21
ATOM     21  C   UNL     1       0.989   2.680   8.465  0.00  0.00    -0.047 C 
BRANCH  21  22
ATOM     22  C   UNL     1       2.448   2.990   8.806  0.00  0.00    +0.103 C 
BRANCH  22  23
ATOM     23  C   UNL     1       2.507   4.194   9.748  0.00  0.00    -0.013 C 
ATOM     24  C   UNL     1       1.740   3.874  11.033  0.00  0.00    +0.013 C 
ATOM     25  C   UNL     1       3.966   4.503  10.090  0.00  0.00    +0.013 C 
ATOM     26  C   UNL     1       1.875   5.408   9.065  0.00  0.00    +0.013 C 
ENDBRANCH  22  23
BRANCH  22  27
ATOM     27  O   UNL     1       3.039   1.856   9.444  0.00  0.00    -0.393 OA
ATOM     28  H   UNL     1       2.602   1.596  10.267  0.00  0.00    +0.210 HD
ENDBRANCH  22  27
ENDBRANCH  21  22
ENDBRANCH  17  21
ENDBRANCH  11  14
BRANCH  10  29
ATOM     29  C   UNL     1       0.156  -3.396   2.419  0.00  0.00    +0.182 C 
BRANCH  29  30
ATOM     30  C   UNL     1       1.568  -3.895   2.591  0.00  0.00    +0.083 A 
ATOM     31  C   UNL     1       2.319  -4.228   1.474  0.00  0.00    +0.200 A 
ATOM     32  C   UNL     1       3.621  -4.687   1.647  0.00  0.00    +0.054 A 
ATOM     33  C   UNL     1       4.116  -4.793   2.937  0.00  0.00    +0.024 A 
ATOM     34  C   UNL     1       3.306  -4.442   4.001  0.00  0.00    +0.013 A 
ATOM     35  N   UNL     1       2.078  -4.006   3.802  0.00  0.00    -0.358 N 
ATOM     36  C   UNL     1       3.836  -4.555   5.408  0.00  0.00    +0.063 C 
ATOM     37  O   UNL     1       1.791  -4.108   0.227  0.00  0.00    -0.286 OA
ATOM     38  H   UNL     1       1.533  -3.763   4.567  0.00  0.00    +0.165 HD
ENDBRANCH  29  30
ENDBRANCH  10  29
TORSDOF 7
