REMARK  Name = ZINC15319050
REMARK  4 active torsions:
REMARK  status: ('A' for Active; 'I' for Inactive)
REMARK    1  A    between atoms: C_6  and  C_7
REMARK    2  A    between atoms: C_10  and  C_36
REMARK    3  A    between atoms: C_14  and  C_17
REMARK    4  A    between atoms: N_22  and  C_25
REMARK                            x       y       z     vdW  Elec       q    Type
REMARK                         _______ _______ _______ _____ _____    ______ ____
ROOT
ATOM      1  C   UNL     1      -0.150  -2.623  -1.140  0.00  0.00    +0.104 C 
ATOM      2  C   UNL     1      -1.054  -3.145  -2.263  0.00  0.00    +0.063 C 
ATOM      3  C   UNL     1      -2.523  -2.887  -1.909  0.00  0.00    +0.215 C 
ATOM      4  N   UNL     1      -2.775  -3.367  -0.547  0.00  0.00    -0.238 N 
ATOM      5  C   UNL     1      -1.796  -3.587   0.364  0.00  0.00    +0.130 A 
ATOM      6  C   UNL     1      -2.399  -4.034   1.525  0.00  0.00    +0.096 A 
ATOM      7  C   UNL     1      -3.794  -4.071   1.272  0.00  0.00    +0.149 A 
ATOM      8  N   UNL     1      -3.998  -3.675   0.046  0.00  0.00    -0.177 NA
ATOM      9  N   UNL     1      -0.455  -3.371   0.096  0.00  0.00    -0.322 N 
ATOM     10  H   UNL     1       0.245  -3.694   0.685  0.00  0.00    +0.148 HD
ENDROOT
BRANCH   6  11
ATOM     11  C   UNL     1      -1.725  -4.398   2.777  0.00  0.00    +0.251 C 
ATOM     12  O   UNL     1      -0.758  -3.763   3.155  0.00  0.00    -0.270 OA
ATOM     13  N   UNL     1      -2.177  -5.436   3.508  0.00  0.00    -0.301 N 
ATOM     14  C   UNL     1      -3.267  -6.292   3.013  0.00  0.00    +0.089 C 
ATOM     15  C   UNL     1      -2.827  -7.755   3.132  0.00  0.00    -0.059 C 
ATOM     16  N   UNL     1      -2.419  -8.032   4.515  0.00  0.00    +0.385 N 
ATOM     17  C   UNL     1      -1.234  -7.234   4.856  0.00  0.00    -0.059 C 
ATOM     18  C   UNL     1      -1.591  -5.749   4.821  0.00  0.00    +0.089 C 
ATOM     19  H   UNL     1      -3.174  -7.795   5.141  0.00  0.00    -0.081 HD
BRANCH  16  20
ATOM     20  C   UNL     1      -2.102  -9.459   4.654  0.00  0.00    -0.065 C 
ATOM     21  C   UNL     1      -0.961  -9.824   3.702  0.00  0.00    -0.009 C 
ATOM     22  C   UNL     1      -0.631 -11.311   3.847  0.00  0.00    -0.012 C 
ATOM     23  C   UNL     1      -0.206 -11.601   5.288  0.00  0.00    +0.007 C 
ATOM     24  C   UNL     1      -1.347 -11.237   6.240  0.00  0.00    -0.012 C 
ATOM     25  C   UNL     1      -1.677  -9.750   6.095  0.00  0.00    -0.009 C 
ATOM     26  C   UNL     1      -2.584 -12.069   5.896  0.00  0.00    +0.007 C 
ATOM     27  C   UNL     1      -3.009 -11.779   4.455  0.00  0.00    -0.012 C 
ATOM     28  C   UNL     1      -1.868 -12.143   3.503  0.00  0.00    +0.007 C 
ATOM     29  C   UNL     1      -3.339 -10.292   4.310  0.00  0.00    -0.009 C 
ENDBRANCH  16  20
ENDBRANCH   6  11
BRANCH   1  35
ATOM     30  C   UNL     1       2.038  -1.776  -2.009  0.00  0.00    +0.008 A 
ATOM     31  C   UNL     1       3.363  -1.965  -2.353  0.00  0.00    +0.038 A 
ATOM     32  C   UNL     1       3.946  -3.212  -2.202  0.00  0.00    +0.123 A 
ATOM     33  C   UNL     1       3.200  -4.268  -1.708  0.00  0.00    +0.038 A 
ATOM     34  C   UNL     1       1.875  -4.077  -1.364  0.00  0.00    +0.008 A 
ATOM     35  C   UNL     1       1.294  -2.831  -1.515  0.00  0.00    -0.027 A 
ATOM     36  F   UNL     1       5.241  -3.398  -2.539  0.00  0.00    -0.205 F 
ENDBRANCH   1  35
BRANCH   3  37
ATOM     37  C   UNL     1      -3.426  -3.634  -2.893  0.00  0.00    +0.412 C 
ATOM     38  F   UNL     1      -3.164  -5.006  -2.818  0.00  0.00    -0.168 F 
ATOM     39  F   UNL     1      -4.766  -3.397  -2.569  0.00  0.00    -0.168 F 
ATOM     40  F   UNL     1      -3.174  -3.182  -4.193  0.00  0.00    -0.168 F 
ENDBRANCH   3  37
TORSDOF 4
