REMARK  Name = ZINC07737472
REMARK  8 active torsions:
REMARK  status: ('A' for Active; 'I' for Inactive)
REMARK    1  A    between atoms: C_1  and  C_2
REMARK    2  A    between atoms: C_5  and  N_9
REMARK    3  A    between atoms: C_6  and  C_8
REMARK    4  A    between atoms: C_13  and  C_15
REMARK    5  A    between atoms: C_15  and  S_16
REMARK    6  A    between atoms: S_16  and  C_17
REMARK    7  A    between atoms: C_20  and  C_23
REMARK    8  A    between atoms: N_21  and  N_22
REMARK                            x       y       z     vdW  Elec       q    Type
REMARK                         _______ _______ _______ _____ _____    ______ ____
ROOT
ATOM      1  N   UNL     1      -9.369   2.713   0.624  0.00  0.00    -0.269 N 
ATOM      2  C   UNL     1      -8.128   2.338   0.991  0.00  0.00    +0.310 C 
ATOM      3  O   UNL     1      -7.923   1.940   2.121  0.00  0.00    -0.252 OA
ATOM      4  N   UNL     1      -7.114   2.403   0.105  0.00  0.00    -0.239 N 
ATOM      5  C   UNL     1      -5.873   2.028   0.472  0.00  0.00    +0.231 C 
ATOM      6  O   UNL     1      -5.668   1.631   1.599  0.00  0.00    -0.274 OA
ATOM      7  H   UNL     1      -9.518   3.107  -0.250  0.00  0.00    +0.156 HD
ATOM      8  H   UNL     1      -7.278   2.721  -0.797  0.00  0.00    +0.159 HD
ENDROOT
BRANCH   1  13
ATOM      9  C   UNL     1     -13.722   1.993   4.191  0.00  0.00    +0.044 C 
ATOM     10  C   UNL     1     -12.566   2.184   3.243  0.00  0.00    -0.050 A 
ATOM     11  C   UNL     1     -11.443   1.384   3.353  0.00  0.00    +0.005 A 
ATOM     12  C   UNL     1     -10.382   1.557   2.487  0.00  0.00    +0.024 A 
ATOM     13  C   UNL     1     -10.443   2.536   1.503  0.00  0.00    +0.038 A 
ATOM     14  C   UNL     1     -11.569   3.341   1.398  0.00  0.00    -0.029 A 
ATOM     15  C   UNL     1     -12.630   3.159   2.264  0.00  0.00    +0.008 A 
ATOM     16  C   UNL     1     -11.637   4.408   0.336  0.00  0.00    +0.045 C 
ENDBRANCH   1  13
BRANCH   5  17
ATOM     17  C   UNL     1      -4.740   2.101  -0.519  0.00  0.00    +0.173 C 
BRANCH  17  18
ATOM     18  S   UNL     1      -3.212   1.533   0.269  0.00  0.00    -0.075 S 
BRANCH  18  19
ATOM     19  C   UNL     1      -2.088   1.719  -1.075  0.00  0.00    +0.209 A 
ATOM     20  N   UNL     1      -2.376   2.157  -2.278  0.00  0.00    -0.121 NA
ATOM     21  N   UNL     1      -1.316   2.162  -3.006  0.00  0.00    -0.132 NA
ATOM     22  C   UNL     1      -0.296   1.737  -2.314  0.00  0.00    +0.154 A 
ATOM     23  N   UNL     1      -0.752   1.435  -1.061  0.00  0.00    -0.228 N 
BRANCH  22  24
ATOM     24  C   UNL     1       1.122   1.602  -2.805  0.00  0.00    +0.059 C 
ATOM     25  C   UNL     1       1.641   2.971  -3.250  0.00  0.00    +0.011 C 
ATOM     26  C   UNL     1       3.080   2.833  -3.748  0.00  0.00    +0.001 C 
ATOM     27  C   UNL     1       3.120   1.864  -4.932  0.00  0.00    +0.000 C 
ATOM     28  C   UNL     1       2.601   0.495  -4.487  0.00  0.00    +0.001 C 
ATOM     29  C   UNL     1       1.161   0.633  -3.989  0.00  0.00    +0.011 C 
ENDBRANCH  22  24
BRANCH  23  30
ATOM     30  N   UNL     1      -0.022   0.954  -0.011  0.00  0.00    -0.295 N 
ATOM     31  H   UNL     1      -0.014  -0.056  -0.009  0.00  0.00    +0.163 HD
ATOM     32  H   UNL     1       0.916   1.323  -0.024  0.00  0.00    +0.163 HD
ENDBRANCH  23  30
ENDBRANCH  18  19
ENDBRANCH  17  18
ENDBRANCH   5  17
TORSDOF 6
