REMARK  Name = ZINC20805477
REMARK  14 active torsions:
REMARK  status: ('A' for Active; 'I' for Inactive)
REMARK    1  A    between atoms: C_1  and  C_2
REMARK    2  A    between atoms: C_3  and  C_11
REMARK    3  A    between atoms: C_4  and  C_10
REMARK    4  A    between atoms: N_5  and  C_7
REMARK    5  A    between atoms: C_7  and  C_8
REMARK    6  A    between atoms: C_7  and  C_9
REMARK    7  A    between atoms: N_12  and  N_13
REMARK    8  A    between atoms: C_17  and  S_20
REMARK    9  A    between atoms: N_18  and  N_19
REMARK   10  A    between atoms: S_20  and  C_21
REMARK   11  A    between atoms: C_21  and  C_22
REMARK   12  A    between atoms: N_24  and  C_25
REMARK   13  A    between atoms: C_30  and  S_31
REMARK   14  A    between atoms: S_31  and  C_32
REMARK                            x       y       z     vdW  Elec       q    Type
REMARK                         _______ _______ _______ _____ _____    ______ ____
ROOT
ATOM      1  N   UNL     1      -1.152   2.160  -0.048  0.00  0.00    -0.204 N 
ATOM      2  C   UNL     1      -0.019   1.361  -0.047  0.00  0.00    +0.254 A 
ATOM      3  N   UNL     1       1.222   1.783  -0.054  0.00  0.00    -0.109 NA
ATOM      4  N   UNL     1       2.061   0.661  -0.057  0.00  0.00    -0.119 NA
ATOM      5  C   UNL     1       1.305  -0.410  -0.052  0.00  0.00    +0.210 A 
ATOM      6  N   UNL     1       0.000  -0.006  -0.045  0.00  0.00    -0.211 N 
ATOM      7  H   UNL     1      -2.151   1.699  -0.046  0.00  0.00    +0.177 HD
ENDROOT
BRANCH   6   8
ATOM      8  N   UNL     1      -1.093  -0.825  -0.038  0.00  0.00    -0.294 N 
ATOM      9  H   UNL     1      -0.963  -1.917  -0.037  0.00  0.00    +0.163 HD
ATOM     10  H   UNL     1      -2.104  -0.391  -0.033  0.00  0.00    +0.163 HD
ENDBRANCH   6   8
BRANCH   1  12
ATOM     11  C   UNL     1      -2.086   4.304  -0.050  0.00  0.00    +0.141 C 
ATOM     12  N   UNL     1      -1.026   3.556  -0.050  0.00  0.00    -0.187 NA
BRANCH  11  15
ATOM     13  C   UNL     1       0.644   5.918  -0.053  0.00  0.00    +0.068 C 
ATOM     14  C   UNL     1      -0.744   6.504  -0.054  0.00  0.00    +0.069 A 
ATOM     15  C   UNL     1      -1.952   5.774  -0.052  0.00  0.00    +0.038 A 
ATOM     16  C   UNL     1      -2.983   6.688  -0.058  0.00  0.00    +0.045 A 
ATOM     17  N   UNL     1      -2.431   7.918  -0.055  0.00  0.00    -0.265 N 
ATOM     18  N   UNL     1      -1.039   7.776  -0.056  0.00  0.00    -0.175 NA
ATOM     19  C   UNL     1      -4.457   6.371  -0.063  0.00  0.00    +0.066 C 
BRANCH  17  20
ATOM     20  C   UNL     1      -3.164   9.187  -0.057  0.00  0.00    +0.101 C 
ATOM     21  C   UNL     1      -2.793   9.992   1.190  0.00  0.00    +0.032 C 
ATOM     22  C   UNL     1      -2.796   9.987  -1.308  0.00  0.00    +0.032 C 
ENDBRANCH  17  20
ENDBRANCH  11  15
ENDBRANCH   1  12
BRANCH   5  23
ATOM     23  S   UNL     1       1.873  -2.078  -0.052  0.00  0.00    -0.075 S 
BRANCH  23  24
ATOM     24  C   UNL     1       3.681  -1.926  -0.062  0.00  0.00    +0.173 C 
BRANCH  24  25
ATOM     25  C   UNL     1       4.300  -3.300  -0.063  0.00  0.00    +0.228 C 
ATOM     26  O   UNL     1       3.592  -4.285  -0.058  0.00  0.00    -0.275 OA
ATOM     27  N   UNL     1       5.641  -3.435  -0.070  0.00  0.00    -0.284 N 
ATOM     28  H   UNL     1       6.283  -2.545  -0.149  0.00  0.00    +0.155 HD
BRANCH  27  29
ATOM     29  C   UNL     1       6.218  -4.708   0.023  0.00  0.00    +0.047 A 
ATOM     30  C   UNL     1       5.597  -5.798  -0.567  0.00  0.00    +0.024 A 
ATOM     31  C   UNL     1       6.170  -7.053  -0.478  0.00  0.00    +0.002 A 
ATOM     32  C   UNL     1       7.359  -7.228   0.207  0.00  0.00    +0.001 A 
ATOM     33  C   UNL     1       7.983  -6.149   0.804  0.00  0.00    +0.016 A 
ATOM     34  C   UNL     1       7.417  -4.885   0.715  0.00  0.00    +0.029 A 
BRANCH  34  35
ATOM     35  S   UNL     1       8.210  -3.506   1.475  0.00  0.00    -0.127 S 
ATOM     36  C   UNL     1       9.696  -4.218   2.233  0.00  0.00    +0.090 C 
ENDBRANCH  34  35
ENDBRANCH  27  29
ENDBRANCH  24  25
ENDBRANCH  23  24
ENDBRANCH   5  23
TORSDOF 9
