REMARK  Name = ZINC13469679
REMARK  7 active torsions:
REMARK  status: ('A' for Active; 'I' for Inactive)
REMARK    1  A    between atoms: C_4  and  N_18
REMARK    2  A    between atoms: C_5  and  N_7
REMARK    3  A    between atoms: C_8  and  C_10
REMARK    4  A    between atoms: C_10  and  C_11
REMARK    5  A    between atoms: C_11  and  C_16
REMARK    6  A    between atoms: N_18  and  S_19
REMARK    7  A    between atoms: S_19  and  C_22
REMARK                            x       y       z     vdW  Elec       q    Type
REMARK                         _______ _______ _______ _____ _____    ______ ____
ROOT
ATOM      1  C   UNL     1       3.567   2.910  -0.427  0.00  0.00    +0.002 A 
ATOM      2  C   UNL     1       2.484   3.555   0.140  0.00  0.00    +0.002 A 
ATOM      3  C   UNL     1       1.270   2.904   0.259  0.00  0.00    +0.026 A 
ATOM      4  C   UNL     1       1.140   1.596  -0.182  0.00  0.00    +0.069 A 
ATOM      5  C   UNL     1       2.232   0.945  -0.754  0.00  0.00    +0.056 A 
ATOM      6  C   UNL     1       3.444   1.607  -0.874  0.00  0.00    +0.025 A 
ENDROOT
BRANCH   5   7
ATOM      7  N   UNL     1       2.105  -0.376  -1.208  0.00  0.00    -0.284 N 
ATOM      8  C   UNL     1       3.149  -1.223  -1.115  0.00  0.00    +0.218 C 
ATOM      9  O   UNL     1       4.223  -0.821  -0.721  0.00  0.00    -0.275 OA
ATOM     10  H   UNL     1       1.266  -0.679  -1.588  0.00  0.00    +0.155 HD
BRANCH   8  11
ATOM     11  C   UNL     1       2.981  -2.670  -1.501  0.00  0.00    +0.114 C 
BRANCH  11  12
ATOM     12  C   UNL     1       4.274  -3.431  -1.202  0.00  0.00    +0.080 C 
ATOM     13  C   UNL     1       4.128  -4.908  -1.623  0.00  0.00    +0.019 C 
ATOM     14  C   UNL     1       4.899  -5.692  -0.531  0.00  0.00    +0.001 C 
ATOM     15  C   UNL     1       4.559  -4.906   0.759  0.00  0.00    +0.001 C 
ATOM     16  C   UNL     1       4.549  -3.429   0.312  0.00  0.00    +0.019 C 
BRANCH  12  17
ATOM     17  C   UNL     1       5.428  -2.797  -1.936  0.00  0.00    +0.362 C 
ATOM     18  O   UNL     1       6.415  -2.454  -1.330  0.00  0.00    -0.246 OA
ATOM     19  O   UNL     1       5.358  -2.614  -3.264  0.00  0.00    -0.246 OA
ENDBRANCH  12  17
ENDBRANCH  11  12
ENDBRANCH   8  11
ENDBRANCH   5   7
BRANCH   4  20
ATOM     20  N   UNL     1      -0.086   0.933  -0.059  0.00  0.00    -0.214 N 
ATOM     21  H   UNL     1      -0.107  -0.017   0.137  0.00  0.00    +0.174 HD
BRANCH  20  22
ATOM     22  S   UNL     1      -1.503   1.769  -0.253  0.00  0.00    +0.072 S 
ATOM     23  O   UNL     1      -2.549   0.809  -0.214  0.00  0.00    -0.150 OA
ATOM     24  O   UNL     1      -1.448   2.873   0.639  0.00  0.00    -0.150 OA
BRANCH  22  25
ATOM     25  C   UNL     1      -1.493   2.438  -1.883  0.00  0.00    +0.109 A 
ATOM     26  C   UNL     1      -0.966   3.695  -2.111  0.00  0.00    +0.031 A 
ATOM     27  C   UNL     1      -0.953   4.218  -3.390  0.00  0.00    +0.040 A 
ATOM     28  C   UNL     1      -1.480   3.487  -4.442  0.00  0.00    +0.124 A 
ATOM     29  C   UNL     1      -2.013   2.231  -4.211  0.00  0.00    +0.040 A 
ATOM     30  C   UNL     1      -2.019   1.707  -2.932  0.00  0.00    +0.031 A 
ATOM     31  F   UNL     1      -1.473   4.000  -5.692  0.00  0.00    -0.205 F 
ENDBRANCH  22  25
ENDBRANCH  20  22
ENDBRANCH   4  20
TORSDOF 7
