REMARK  Name = ZINC02138804
REMARK  9 active torsions:
REMARK  status: ('A' for Active; 'I' for Inactive)
REMARK    1  A    between atoms: C_1  and  C_2
REMARK    2  A    between atoms: C_4  and  C_37
REMARK    3  A    between atoms: C_13  and  C_15
REMARK    4  A    between atoms: C_15  and  C_16
REMARK    5  A    between atoms: C_16  and  C_17
REMARK    6  A    between atoms: N_22  and  C_25
REMARK    7  A    between atoms: C_25  and  C_26
REMARK    8  A    between atoms: C_31  and  O_32
REMARK    9  A    between atoms: O_32  and  C_33
REMARK                            x       y       z     vdW  Elec       q    Type
REMARK                         _______ _______ _______ _____ _____    ______ ____
ROOT
ATOM      1  C   UNL     1      -6.202   1.851  -6.389  0.00  0.00    +0.044 C 
ATOM      2  C   UNL     1      -6.323   2.634  -5.106  0.00  0.00    -0.050 A 
ATOM      3  C   UNL     1      -6.949   3.866  -5.103  0.00  0.00    +0.008 A 
ATOM      4  C   UNL     1      -7.062   4.587  -3.932  0.00  0.00    -0.029 A 
ATOM      5  C   UNL     1      -6.545   4.078  -2.743  0.00  0.00    +0.039 A 
ATOM      6  C   UNL     1      -5.915   2.837  -2.759  0.00  0.00    -0.027 A 
ATOM      7  C   UNL     1      -5.806   2.120  -3.930  0.00  0.00    +0.008 A 
ATOM      8  C   UNL     1      -5.477   2.580  -1.345  0.00  0.00    +0.050 C 
ATOM      9  C   UNL     1      -6.096   1.293  -0.788  0.00  0.00    +0.088 C 
ATOM     10  C   UNL     1      -4.988   0.682   0.117  0.00  0.00    +0.073 C 
ATOM     11  C   UNL     1      -3.814   1.681   0.029  0.00  0.00    -0.057 C 
ATOM     12  C   UNL     1      -5.612   0.758   1.506  0.00  0.00    +0.224 C 
ATOM     13  O   UNL     1      -5.083   0.381   2.530  0.00  0.00    -0.275 OA
ATOM     14  N   UNL     1      -6.833   1.297   1.421  0.00  0.00    -0.237 N 
ATOM     15  C   UNL     1      -7.205   1.636   0.181  0.00  0.00    +0.225 C 
ATOM     16  O   UNL     1      -8.266   2.140  -0.119  0.00  0.00    -0.275 OA
ATOM     17  C   UNL     1      -5.927   3.789  -0.571  0.00  0.00    +0.211 C 
ATOM     18  O   UNL     1      -5.772   3.987   0.616  0.00  0.00    -0.277 OA
ATOM     19  N   UNL     1      -6.535   4.607  -1.450  0.00  0.00    -0.286 N 
ATOM     20  C   UNL     1      -7.747   5.929  -3.939  0.00  0.00    +0.045 C 
ATOM     21  H   UNL     1      -6.922   5.465  -1.214  0.00  0.00    +0.155 HD
ATOM     22  N   UNL     1      -4.041   2.387  -1.234  0.00  0.00    +0.394 N 
ATOM     23  H   UNL     1      -3.561   3.295  -1.224  0.00  0.00    -0.083 HD
ATOM     24  H   UNL     1      -3.696   1.826  -2.021  0.00  0.00    -0.083 HD
ENDROOT
BRANCH  11  25
ATOM     25  C   UNL     1      -2.479   0.934   0.019  0.00  0.00    -0.006 C 
BRANCH  25  26
ATOM     26  C   UNL     1      -1.330   1.944   0.019  0.00  0.00    +0.094 C 
BRANCH  26  27
ATOM     27  C   UNL     1      -0.014   1.209   0.009  0.00  0.00    +0.210 C 
ATOM     28  O   UNL     1       0.002  -0.004   0.002  0.00  0.00    -0.276 OA
ATOM     29  N   UNL     1       1.143   1.898   0.001  0.00  0.00    -0.329 N 
ATOM     30  H   UNL     1       1.990   1.425  -0.009  0.00  0.00    +0.145 HD
ATOM     31  H   UNL     1       1.130   2.868   0.007  0.00  0.00    +0.145 HD
ENDBRANCH  26  27
ENDBRANCH  25  26
ENDBRANCH  11  25
BRANCH  14  32
ATOM     32  C   UNL     1      -7.693   1.501   2.589  0.00  0.00    +0.155 C 
BRANCH  32  33
ATOM     33  C   UNL     1      -8.546   0.277   2.804  0.00  0.00    +0.012 A 
ATOM     34  C   UNL     1      -9.859   0.265   2.374  0.00  0.00    +0.009 A 
ATOM     35  C   UNL     1     -10.642  -0.857   2.571  0.00  0.00    +0.001 A 
ATOM     36  C   UNL     1     -10.113  -1.970   3.198  0.00  0.00    +0.004 A 
ATOM     37  C   UNL     1      -8.801  -1.964   3.630  0.00  0.00    +0.046 A 
ATOM     38  C   UNL     1      -8.012  -0.841   3.428  0.00  0.00    +0.125 A 
BRANCH  38  39
ATOM     39  O   UNL     1      -6.719  -0.834   3.847  0.00  0.00    -0.495 OA
ATOM     40  C   UNL     1      -6.236  -2.019   4.482  0.00  0.00    +0.277 C 
ENDBRANCH  38  39
ENDBRANCH  32  33
ENDBRANCH  14  32
TORSDOF 6
