REMARK  Name = ZINC09546125
REMARK  4 active torsions:
REMARK  status: ('A' for Active; 'I' for Inactive)
REMARK    1  A    between atoms: C_7  and  C_19
REMARK    2  A    between atoms: C_7  and  O_32
REMARK    3  A    between atoms: N_8  and  C_12
REMARK    4  A    between atoms: N_24  and  C_27
REMARK                            x       y       z     vdW  Elec       q    Type
REMARK                         _______ _______ _______ _____ _____    ______ ____
ROOT
ATOM      1  C   UNL     1       0.618   1.333   5.049  0.00  0.00    +0.001 A 
ATOM      2  C   UNL     1       1.778   1.358   5.803  0.00  0.00    +0.002 A 
ATOM      3  C   UNL     1       2.807   0.479   5.529  0.00  0.00    +0.024 A 
ATOM      4  C   UNL     1       2.677  -0.436   4.492  0.00  0.00    +0.043 A 
ATOM      5  C   UNL     1       1.507  -0.454   3.740  0.00  0.00    +0.033 A 
ATOM      6  C   UNL     1       0.484   0.423   4.014  0.00  0.00    +0.010 A 
ATOM      7  C   UNL     1       1.399  -1.463   2.619  0.00  0.00    +0.247 C 
ATOM      8  N   UNL     1       2.552  -2.355   2.412  0.00  0.00    -0.214 N 
ATOM      9  C   UNL     1       3.627  -2.234   3.212  0.00  0.00    +0.314 C 
ATOM     10  O   UNL     1       4.572  -2.977   3.030  0.00  0.00    -0.252 OA
ATOM     11  N   UNL     1       3.704  -1.334   4.201  0.00  0.00    -0.269 N 
ATOM     12  H   UNL     1       4.511  -1.304   4.738  0.00  0.00    +0.156 HD
ENDROOT
BRANCH   7  13
ATOM     13  C   UNL     1       1.158  -0.708   1.337  0.00  0.00    +0.272 C 
ATOM     14  O   UNL     1       0.070  -0.751   0.804  0.00  0.00    -0.270 OA
ATOM     15  N   UNL     1       2.152   0.014   0.783  0.00  0.00    -0.294 N 
ATOM     16  C   UNL     1       1.977   0.661  -0.526  0.00  0.00    +0.127 C 
ATOM     17  C   UNL     1       2.375   2.135  -0.398  0.00  0.00    +0.125 C 
ATOM     18  N   UNL     1       3.730   2.225   0.163  0.00  0.00    -0.314 N 
ATOM     19  C   UNL     1       3.783   1.669   1.521  0.00  0.00    +0.125 C 
ATOM     20  C   UNL     1       3.442   0.176   1.472  0.00  0.00    +0.127 C 
BRANCH  18  21
ATOM     21  C   UNL     1       4.190   3.537   0.143  0.00  0.00    +0.099 A 
ATOM     22  C   UNL     1       5.459   3.830   0.634  0.00  0.00    +0.042 A 
ATOM     23  C   UNL     1       5.904   5.139   0.609  0.00  0.00    +0.005 A 
ATOM     24  C   UNL     1       5.063   6.115   0.091  0.00  0.00    +0.018 A 
ATOM     25  C   UNL     1       3.817   5.754  -0.380  0.00  0.00    +0.084 A 
ATOM     26  N   UNL     1       3.349   4.477  -0.376  0.00  0.00    -0.350 N 
ATOM     27  H   UNL     1       2.420   4.236  -0.740  0.00  0.00    +0.166 HD
ENDBRANCH  18  21
ENDBRANCH   7  13
BRANCH   8  28
ATOM     28  C   UNL     1       2.531  -3.316   1.395  0.00  0.00    +0.041 A 
ATOM     29  C   UNL     1       1.944  -4.554   1.621  0.00  0.00    +0.025 A 
ATOM     30  C   UNL     1       1.919  -5.500   0.614  0.00  0.00    +0.022 A 
ATOM     31  C   UNL     1       2.488  -5.217  -0.616  0.00  0.00    +0.041 A 
ATOM     32  C   UNL     1       3.078  -3.986  -0.842  0.00  0.00    +0.022 A 
ATOM     33  C   UNL     1       3.101  -3.036   0.160  0.00  0.00    +0.025 A 
ATOM     34 CL   UNL     1       2.461  -6.410  -1.877  0.00  0.00    -0.084 Cl
ENDBRANCH   8  28
BRANCH   7  35
ATOM     35  O   UNL     1       0.251  -2.277   2.869  0.00  0.00    -0.360 OA
ATOM     36  H   UNL     1      -0.572  -1.778   2.964  0.00  0.00    +0.213 HD
ENDBRANCH   7  35
TORSDOF 4
