REMARK  Name = ZINC39528717
REMARK  8 active torsions:
REMARK  status: ('A' for Active; 'I' for Inactive)
REMARK    1  A    between atoms: C_1  and  C_2
REMARK    2  A    between atoms: C_2  and  C_3
REMARK    3  A    between atoms: C_5  and  C_26
REMARK    4  A    between atoms: C_8  and  N_9
REMARK    5  A    between atoms: C_13  and  S_16
REMARK    6  A    between atoms: S_16  and  O_19
REMARK    7  A    between atoms: O_19  and  C_20
REMARK    8  A    between atoms: C_31  and  O_32
REMARK                            x       y       z     vdW  Elec       q    Type
REMARK                         _______ _______ _______ _____ _____    ______ ____
ROOT
ATOM      1  N   UNL     1      -1.502  -0.314  -2.388  0.00  0.00    -0.331 N 
ATOM      2  C   UNL     1      -0.744  -1.307  -3.166  0.00  0.00    +0.086 C 
ATOM      3  C   UNL     1      -1.243  -1.273  -4.614  0.00  0.00    -0.061 C 
ATOM      4  N   UNL     1      -1.153   0.099  -5.130  0.00  0.00    +0.398 N 
ATOM      5  C   UNL     1      -2.060   0.976  -4.380  0.00  0.00    +0.133 C 
ATOM      6  C   UNL     1      -1.606   1.053  -2.922  0.00  0.00    +0.115 C 
ATOM      7  H   UNL     1      -0.206   0.432  -5.032  0.00  0.00    -0.083 HD
ATOM      8  H   UNL     1      -1.410   0.107  -6.106  0.00  0.00    -0.083 HD
ENDROOT
BRANCH   1  14
ATOM      9  C   UNL     1      -1.412  -0.526   0.013  0.00  0.00    -0.026 A 
ATOM     10  C   UNL     1      -2.013  -0.863   1.207  0.00  0.00    +0.014 A 
ATOM     11  C   UNL     1      -3.321  -1.345   1.216  0.00  0.00    -0.014 A 
ATOM     12  C   UNL     1      -4.018  -1.485   0.017  0.00  0.00    +0.010 A 
ATOM     13  C   UNL     1      -3.414  -1.147  -1.174  0.00  0.00    +0.024 A 
ATOM     14  C   UNL     1      -2.111  -0.661  -1.181  0.00  0.00    +0.033 A 
BRANCH  11  15
ATOM     15  C   UNL     1      -3.969  -1.709   2.500  0.00  0.00    +0.024 A 
ATOM     16  C   UNL     1      -3.312  -2.538   3.405  0.00  0.00    +0.012 A 
ATOM     17  C   UNL     1      -3.919  -2.874   4.598  0.00  0.00    +0.001 A 
ATOM     18  C   UNL     1      -5.180  -2.389   4.899  0.00  0.00    +0.004 A 
ATOM     19  C   UNL     1      -5.841  -1.565   4.007  0.00  0.00    +0.046 A 
ATOM     20  C   UNL     1      -5.240  -1.215   2.809  0.00  0.00    +0.125 A 
BRANCH  20  21
ATOM     21  O   UNL     1      -5.886  -0.401   1.935  0.00  0.00    -0.506 OA
ATOM     22  H   UNL     1      -6.441  -0.870   1.296  0.00  0.00    +0.292 HD
ENDBRANCH  20  21
ENDBRANCH  11  15
BRANCH   9  24
ATOM     23  C   UNL     1      -0.019   1.526   0.010  0.00  0.00    +0.009 C 
ATOM     24  C   UNL     1       0.002  -0.004   0.002  0.00  0.00    +0.033 C 
ENDBRANCH   9  24
ENDBRANCH   1  14
BRANCH   5  25
ATOM     25  S   UNL     1      -2.038   2.636  -5.110  0.00  0.00    +0.109 S 
ATOM     26  O   UNL     1      -3.039   3.448  -4.511  0.00  0.00    -0.138 OA
ATOM     27  O   UNL     1      -0.700   3.102  -5.226  0.00  0.00    -0.138 OA
BRANCH  25  28
ATOM     28  O   UNL     1      -2.506   2.439  -6.545  0.00  0.00    -0.347 OA
BRANCH  28  29
ATOM     29  C   UNL     1      -3.841   2.219  -6.666  0.00  0.00    +0.156 A 
ATOM     30  C   UNL     1      -4.340   0.925  -6.619  0.00  0.00    +0.048 A 
ATOM     31  C   UNL     1      -5.698   0.705  -6.742  0.00  0.00    +0.004 A 
ATOM     32  C   UNL     1      -6.560   1.773  -6.911  0.00  0.00    +0.000 A 
ATOM     33  C   UNL     1      -6.066   3.063  -6.958  0.00  0.00    +0.004 A 
ATOM     34  C   UNL     1      -4.709   3.289  -6.830  0.00  0.00    +0.048 A 
ENDBRANCH  28  29
ENDBRANCH  25  28
ENDBRANCH   5  25
TORSDOF 7
