REMARK  Name = ZINC57497790
REMARK  7 active torsions:
REMARK  status: ('A' for Active; 'I' for Inactive)
REMARK    1  A    between atoms: C_1  and  C_2
REMARK    2  A    between atoms: C_3  and  C_8
REMARK    3  A    between atoms: C_4  and  C_7
REMARK    4  A    between atoms: C_8  and  C_9
REMARK    5  A    between atoms: C_9  and  C_10
REMARK    6  A    between atoms: N_12  and  C_13
REMARK    7  A    between atoms: C_14  and  C_23
REMARK                            x       y       z     vdW  Elec       q    Type
REMARK                         _______ _______ _______ _____ _____    ______ ____
ROOT
ATOM      1  C   UNL     1       2.568   0.976  -6.452  0.00  0.00    +0.084 A 
ATOM      2  C   UNL     1       3.652   1.255  -7.266  0.00  0.00    +0.068 A 
ATOM      3  C   UNL     1       3.372   1.705  -8.623  0.00  0.00    -0.023 A 
ATOM      4  C   UNL     1       2.056   1.798  -8.908  0.00  0.00    -0.004 A 
ATOM      5  S   UNL     1       1.236   1.283  -7.425  0.00  0.00    -0.077 S 
ATOM      6  C   UNL     1       1.427   2.244 -10.191  0.00  0.00    +0.043 C 
ATOM      7  C   UNL     1       2.089   1.501 -11.360  0.00  0.00    +0.005 C 
ATOM      8  C   UNL     1       3.291   2.311 -11.834  0.00  0.00    +0.001 C 
ATOM      9  C   UNL     1       3.938   3.035 -10.654  0.00  0.00    +0.005 C 
ATOM     10  C   UNL     1       4.462   2.029  -9.634  0.00  0.00    +0.037 C 
ENDROOT
BRANCH   2  11
ATOM     11  C   UNL     1       5.027   1.103  -6.783  0.00  0.00    +0.244 C 
ATOM     12  O   UNL     1       5.605   0.040  -6.916  0.00  0.00    -0.270 OA
ATOM     13  N   UNL     1       5.652   2.140  -6.191  0.00  0.00    -0.325 N 
ATOM     14  H   UNL     1       5.192   2.987  -6.085  0.00  0.00    +0.145 HD
ATOM     15  H   UNL     1       6.562   2.039  -5.871  0.00  0.00    +0.145 HD
ENDBRANCH   2  11
BRANCH   1  18
ATOM     16  C   UNL     1       1.419   0.309  -4.491  0.00  0.00    +0.218 C 
ATOM     17  O   UNL     1       0.363   0.486  -5.062  0.00  0.00    -0.275 OA
ATOM     18  N   UNL     1       2.580   0.538  -5.136  0.00  0.00    -0.279 N 
ATOM     19  H   UNL     1       3.425   0.397  -4.680  0.00  0.00    +0.155 HD
BRANCH  16  20
ATOM     20  C   UNL     1       1.433  -0.167  -3.061  0.00  0.00    +0.101 C 
BRANCH  20  21
ATOM     21  C   UNL     1      -0.005  -0.348  -2.571  0.00  0.00    +0.049 C 
BRANCH  21  24
ATOM     22  C   UNL     1      -0.018   1.503   0.010  0.00  0.00    +0.069 C 
ATOM     23  C   UNL     1       0.002  -0.004   0.002  0.00  0.00    +0.084 A 
ATOM     24  C   UNL     1       0.008  -0.824  -1.141  0.00  0.00    +0.018 A 
ATOM     25  C   UNL     1       0.027  -2.108  -0.735  0.00  0.00    +0.138 A 
ATOM     26  O   UNL     1       0.034  -2.119   0.606  0.00  0.00    -0.359 OA
ATOM     27  N   UNL     1       0.023  -0.775   1.052  0.00  0.00    -0.083 NA
ATOM     28  C   UNL     1       0.039  -3.320  -1.631  0.00  0.00    +0.089 C 
ENDBRANCH  21  24
ENDBRANCH  20  21
ENDBRANCH  16  20
ENDBRANCH   1  18
TORSDOF 5
