REMARK  Name = ZINC12890386
REMARK  8 active torsions:
REMARK  status: ('A' for Active; 'I' for Inactive)
REMARK    1  A    between atoms: C_1  and  C_2
REMARK    2  A    between atoms: C_2  and  C_3
REMARK    3  A    between atoms: C_2  and  C_4
REMARK    4  A    between atoms: C_4  and  C_6
REMARK    5  A    between atoms: C_4  and  N_21
REMARK    6  A    between atoms: N_8  and  C_9
REMARK    7  A    between atoms: C_9  and  C_10
REMARK    8  A    between atoms: C_10  and  C_11
REMARK                            x       y       z     vdW  Elec       q    Type
REMARK                         _______ _______ _______ _____ _____    ______ ____
ROOT
ATOM      1  C   UNL     1       0.702  -0.490  -1.245  0.00  0.00    +0.163 C 
ENDROOT
BRANCH   1   2
ATOM      2  N   UNL     1       0.002  -0.009  -2.439  0.00  0.00    -0.287 N 
ATOM      3  C   UNL     1       0.274   1.216  -2.931  0.00  0.00    +0.308 C 
ATOM      4  O   UNL     1       1.039   1.953  -2.340  0.00  0.00    -0.252 OA
ATOM      5  N   UNL     1      -0.302   1.624  -4.079  0.00  0.00    -0.245 N 
ATOM      6  C   UNL     1      -1.310   0.796  -4.759  0.00  0.00    +0.211 C 
ATOM      7  C   UNL     1      -1.049   0.824  -6.243  0.00  0.00    +0.235 C 
ATOM      8  O   UNL     1      -1.364  -0.129  -6.924  0.00  0.00    -0.274 OA
ATOM      9  N   UNL     1      -0.470   1.893  -6.822  0.00  0.00    -0.283 N 
ATOM     10  C   UNL     1      -0.050   2.983  -6.052  0.00  0.00    +0.055 A 
ATOM     11  C   UNL     1       0.036   2.856  -4.662  0.00  0.00    +0.059 A 
ATOM     12  C   UNL     1       0.449   3.923  -3.886  0.00  0.00    +0.025 A 
ATOM     13  C   UNL     1       0.772   5.126  -4.490  0.00  0.00    +0.002 A 
ATOM     14  C   UNL     1       0.682   5.261  -5.863  0.00  0.00    +0.002 A 
ATOM     15  C   UNL     1       0.277   4.189  -6.651  0.00  0.00    +0.025 A 
ATOM     16  H   UNL     1      -0.657  -0.571  -2.875  0.00  0.00    +0.151 HD
ATOM     17  H   UNL     1      -0.342   1.907  -7.783  0.00  0.00    +0.155 HD
ENDBRANCH   1   2
BRANCH   1  18
ATOM     18  C   UNL     1       0.717  -1.997  -1.245  0.00  0.00    +0.234 C 
ATOM     19  O   UNL     1       0.195  -2.608  -2.153  0.00  0.00    -0.274 OA
ATOM     20  N   UNL     1       1.311  -2.665  -0.236  0.00  0.00    -0.313 N 
ATOM     21  H   UNL     1       1.728  -2.176   0.490  0.00  0.00    +0.149 HD
BRANCH  20  22
ATOM     22  C   UNL     1       1.325  -4.130  -0.236  0.00  0.00    +0.109 C 
BRANCH  22  23
ATOM     23  C   UNL     1       2.056  -4.633   1.011  0.00  0.00    +0.056 C 
BRANCH  23  24
ATOM     24  C   UNL     1       2.071  -6.139   1.011  0.00  0.00    -0.021 A 
ATOM     25  C   UNL     1       1.194  -6.947   1.628  0.00  0.00    +0.087 A 
ATOM     26  N   UNL     1       1.527  -8.255   1.405  0.00  0.00    -0.360 N 
ATOM     27  H   UNL     1       1.041  -9.020   1.749  0.00  0.00    +0.165 HD
ATOM     28  C   UNL     1       2.655  -8.323   0.618  0.00  0.00    +0.047 A 
ATOM     29  C   UNL     1       3.042  -7.001   0.332  0.00  0.00    +0.003 A 
ATOM     30  C   UNL     1       4.165  -6.760  -0.462  0.00  0.00    +0.010 A 
ATOM     31  C   UNL     1       4.882  -7.812  -0.959  0.00  0.00    +0.001 A 
ATOM     32  C   UNL     1       4.502  -9.118  -0.683  0.00  0.00    +0.002 A 
ATOM     33  C   UNL     1       3.403  -9.378   0.105  0.00  0.00    +0.026 A 
ENDBRANCH  23  24
ENDBRANCH  22  23
ENDBRANCH  20  22
ENDBRANCH   1  18
BRANCH   1  35
ATOM     34  C   UNL     1      -0.035   1.543   0.007  0.00  0.00    +0.009 C 
ATOM     35  C   UNL     1      -0.020   0.013   0.007  0.00  0.00    +0.012 C 
ATOM     36  C   UNL     1      -1.458  -0.512   0.012  0.00  0.00    +0.009 C 
ENDBRANCH   1  35
TORSDOF 6
