REMARK  Name = ZINC63142067
REMARK  10 active torsions:
REMARK  status: ('A' for Active; 'I' for Inactive)
REMARK    1  A    between atoms: C_1  and  N_2
REMARK    2  A    between atoms: N_2  and  C_3
REMARK    3  A    between atoms: N_2  and  C_4
REMARK    4  A    between atoms: C_4  and  C_5
REMARK    5  A    between atoms: C_5  and  C_6
REMARK    6  A    between atoms: C_6  and  N_7
REMARK    7  A    between atoms: C_27  and  C_29
REMARK    8  A    between atoms: C_32  and  C_35
REMARK    9  A    between atoms: C_35  and  O_37
REMARK   10  A    between atoms: O_37  and  C_38
REMARK                            x       y       z     vdW  Elec       q    Type
REMARK                         _______ _______ _______ _____ _____    ______ ____
ROOT
ATOM      1  N   UNL     1      -2.777  -4.025  -0.239  0.00  0.00    -0.291 N 
ATOM      2  C   UNL     1      -2.812  -4.687  -1.556  0.00  0.00    +0.203 C 
ATOM      3  C   UNL     1      -1.766  -5.782  -1.572  0.00  0.00    +0.234 C 
ATOM      4  O   UNL     1      -1.033  -5.946  -2.525  0.00  0.00    -0.274 OA
ATOM      5  N   UNL     1      -1.685  -6.580  -0.458  0.00  0.00    -0.279 N 
ATOM      6  C   UNL     1      -2.675  -6.320   0.566  0.00  0.00    +0.167 C 
ATOM      7  C   UNL     1      -2.723  -4.841   0.855  0.00  0.00    +0.237 C 
ATOM      8  O   UNL     1      -2.716  -4.404   1.987  0.00  0.00    -0.274 OA
ATOM      9  C   UNL     1      -2.637  -7.148   1.824  0.00  0.00    +0.065 C 
ATOM     10  C   UNL     1      -1.380  -7.974   1.856  0.00  0.00    -0.034 C 
ATOM     11  C   UNL     1      -0.536  -8.272   2.834  0.00  0.00    -0.001 A 
ATOM     12  C   UNL     1      -0.541  -7.941   4.269  0.00  0.00    +0.010 A 
ATOM     13  C   UNL     1       0.506  -8.411   4.997  0.00  0.00    +0.001 A 
ATOM     14  C   UNL     1       1.546  -9.168   4.448  0.00  0.00    +0.002 A 
ATOM     15  C   UNL     1       1.629  -9.523   3.141  0.00  0.00    +0.026 A 
ATOM     16  C   UNL     1       0.582  -9.091   2.275  0.00  0.00    +0.043 A 
ATOM     17  N   UNL     1       0.407  -9.293   1.004  0.00  0.00    -0.375 N 
ATOM     18  C   UNL     1      -0.852  -8.656   0.596  0.00  0.00    +0.131 C 
ATOM     19  C   UNL     1      -0.599  -7.548  -0.415  0.00  0.00    +0.133 C 
ATOM     20  H   UNL     1       1.008  -9.782   0.421  0.00  0.00    +0.160 HD
ENDROOT
BRANCH  19  21
ATOM     21  C   UNL     1       0.669  -6.844  -0.006  0.00  0.00    -0.025 A 
ATOM     22  C   UNL     1       0.632  -5.878   0.983  0.00  0.00    +0.006 A 
ATOM     23  C   UNL     1       1.789  -5.230   1.363  0.00  0.00    +0.015 A 
ATOM     24  C   UNL     1       3.000  -5.551   0.746  0.00  0.00    +0.059 A 
ATOM     25  C   UNL     1       3.030  -6.527  -0.252  0.00  0.00    +0.015 A 
ATOM     26  C   UNL     1       1.867  -7.172  -0.618  0.00  0.00    +0.006 A 
BRANCH  24  27
ATOM     27  C   UNL     1       4.243  -4.861   1.146  0.00  0.00    +0.339 C 
ATOM     28  O   UNL     1       4.214  -4.012   2.014  0.00  0.00    -0.245 OA
BRANCH  27  29
ATOM     29  O   UNL     1       5.410  -5.173   0.549  0.00  0.00    -0.464 OA
ATOM     30  C   UNL     1       6.572  -4.466   0.986  0.00  0.00    +0.280 C 
ENDBRANCH  27  29
ENDBRANCH  24  27
ENDBRANCH  19  21
BRANCH   1  31
ATOM     31  C   UNL     1      -2.794  -2.566  -0.111  0.00  0.00    +0.106 C 
BRANCH  31  32
ATOM     32  C   UNL     1      -1.358  -2.037  -0.122  0.00  0.00    +0.000 C 
BRANCH  32  33
ATOM     33  C   UNL     1      -1.376  -0.512   0.012  0.00  0.00    -0.078 C 
BRANCH  33  35
ATOM     34  C   UNL     1      -0.018   1.465   0.010  0.00  0.00    -0.097 C 
ATOM     35  N   UNL     1       0.002  -0.004   0.002  0.00  0.00    +0.376 N 
ATOM     36  C   UNL     1       0.713  -0.491   1.192  0.00  0.00    -0.097 C 
ATOM     37  H   UNL     1       0.474  -0.330  -0.828  0.00  0.00    -0.083 HD
ENDBRANCH  33  35
ENDBRANCH  32  33
ENDBRANCH  31  32
ENDBRANCH   1  31
TORSDOF 7
