REMARK  Name = ZINC03162481
REMARK  3 active torsions:
REMARK  status: ('A' for Active; 'I' for Inactive)
REMARK    1  A    between atoms: C_4  and  C_7
REMARK    2  A    between atoms: C_9  and  C_13
REMARK    3  A    between atoms: N_14  and  O_15
REMARK                            x       y       z     vdW  Elec       q    Type
REMARK                         _______ _______ _______ _____ _____    ______ ____
ROOT
ATOM      1  C   UNL     1       3.695  -0.684  -0.038  0.00  0.00    +0.138 A 
ATOM      2  C   UNL     1       3.852  -2.031  -0.052  0.00  0.00    +0.061 A 
ATOM      3  C   UNL     1       5.252  -2.279  -0.066  0.00  0.00    +0.054 A 
ATOM      4  C   UNL     1       5.862  -1.057  -0.059  0.00  0.00    +0.203 A 
ATOM      5  O   UNL     1       4.914  -0.110  -0.048  0.00  0.00    -0.443 OA
ATOM      6 CL   UNL     1       7.576  -0.779  -0.070  0.00  0.00    -0.042 Cl
ENDROOT
BRANCH   1  10
ATOM      7  C   UNL     1      -0.017   1.379   0.010  0.00  0.00    +0.000 A 
ATOM      8  C   UNL     1       1.168   2.094   0.002  0.00  0.00    +0.001 A 
ATOM      9  C   UNL     1       2.377   1.429  -0.013  0.00  0.00    +0.011 A 
ATOM     10  C   UNL     1       2.404   0.034  -0.021  0.00  0.00    +0.017 A 
ATOM     11  C   UNL     1       1.204  -0.681  -0.013  0.00  0.00    +0.011 A 
ATOM     12  C   UNL     1       0.002  -0.004   0.002  0.00  0.00    +0.001 A 
ENDBRANCH   1  10
BRANCH   3  13
ATOM     13  C   UNL     1       5.914  -3.596  -0.083  0.00  0.00    +0.165 C 
ATOM     14  N   UNL     1       7.206  -3.670  -0.094  0.00  0.00    -0.095 NA
BRANCH  14  15
ATOM     15  O   UNL     1       7.843  -4.935  -0.111  0.00  0.00    -0.409 OA
ATOM     16  H   UNL     1       8.809  -4.889  -0.118  0.00  0.00    +0.328 HD
ENDBRANCH  14  15
ENDBRANCH   3  13
TORSDOF 3
