REMARK  Name = ZINC34739634
REMARK  9 active torsions:
REMARK  status: ('A' for Active; 'I' for Inactive)
REMARK    1  A    between atoms: C_1  and  C_2
REMARK    2  A    between atoms: C_2  and  C_3
REMARK    3  A    between atoms: C_2  and  C_4
REMARK    4  A    between atoms: C_7  and  C_10
REMARK    5  A    between atoms: C_10  and  N_11
REMARK    6  A    between atoms: N_15  and  C_18
REMARK    7  A    between atoms: C_20  and  N_26
REMARK    8  A    between atoms: C_23  and  O_24
REMARK    9  A    between atoms: O_24  and  C_25
REMARK                            x       y       z     vdW  Elec       q    Type
REMARK                         _______ _______ _______ _____ _____    ______ ____
ROOT
ATOM      1  N   UNL     1      -6.298  -1.051  -0.638  0.00  0.00    -0.281 N 
ATOM      2  C   UNL     1      -6.935   0.016   0.135  0.00  0.00    +0.111 C 
ATOM      3  C   UNL     1      -7.164   1.228  -0.775  0.00  0.00    +0.038 C 
ATOM      4  C   UNL     1      -7.977   0.778  -1.992  0.00  0.00    +0.117 C 
ATOM      5  N   UNL     1      -7.284  -0.331  -2.650  0.00  0.00    -0.252 N 
ATOM      6  C   UNL     1      -6.498  -1.170  -1.959  0.00  0.00    +0.309 C 
ATOM      7  O   UNL     1      -5.949  -2.078  -2.554  0.00  0.00    -0.252 OA
ENDROOT
BRANCH   5   8
ATOM      8  C   UNL     1      -7.439  -0.516  -4.031  0.00  0.00    +0.081 A 
ATOM      9  C   UNL     1      -6.568   0.099  -4.916  0.00  0.00    +0.050 A 
ATOM     10  C   UNL     1      -6.724  -0.086  -6.283  0.00  0.00    +0.027 A 
ATOM     11  C   UNL     1      -7.753  -0.887  -6.762  0.00  0.00    +0.026 A 
ATOM     12  C   UNL     1      -8.622  -1.500  -5.880  0.00  0.00    +0.049 A 
ATOM     13  C   UNL     1      -8.466  -1.323  -4.515  0.00  0.00    +0.142 A 
BRANCH  10  14
ATOM     14  N   UNL     1      -5.846   0.534  -7.178  0.00  0.00    -0.358 N 
ATOM     15  H   UNL     1      -5.128   1.094  -6.844  0.00  0.00    +0.142 HD
ATOM     16  H   UNL     1      -5.955   0.405  -8.133  0.00  0.00    +0.142 HD
ENDBRANCH  10  14
BRANCH  13  17
ATOM     17  O   UNL     1      -9.320  -1.932  -3.647  0.00  0.00    -0.493 OA
ATOM     18  C   UNL     1     -10.350  -2.744  -4.213  0.00  0.00    +0.277 C 
ENDBRANCH  13  17
ENDBRANCH   5   8
BRANCH   1  19
ATOM     19  C   UNL     1      -5.419  -2.005   0.043  0.00  0.00    +0.144 C 
BRANCH  19  23
ATOM     20  C   UNL     1      -1.412  -0.526   0.013  0.00  0.00    -0.045 A 
ATOM     21  C   UNL     1      -2.259  -0.204   1.056  0.00  0.00    +0.004 A 
ATOM     22  C   UNL     1      -3.556  -0.683   1.066  0.00  0.00    +0.005 A 
ATOM     23  C   UNL     1      -4.006  -1.482   0.032  0.00  0.00    -0.030 A 
ATOM     24  C   UNL     1      -3.159  -1.803  -1.012  0.00  0.00    +0.005 A 
ATOM     25  C   UNL     1      -1.863  -1.321  -1.024  0.00  0.00    +0.004 A 
BRANCH  20  27
ATOM     26  C   UNL     1      -0.019   1.526   0.010  0.00  0.00    +0.012 C 
ATOM     27  C   UNL     1       0.002  -0.004   0.002  0.00  0.00    +0.013 C 
ATOM     28  C   UNL     1       0.742  -0.511   1.242  0.00  0.00    +0.012 C 
ENDBRANCH  20  27
ENDBRANCH  19  23
ENDBRANCH   1  19
TORSDOF 6
