REMARK  Name = ZINC44942313
REMARK  5 active torsions:
REMARK  status: ('A' for Active; 'I' for Inactive)
REMARK    1  A    between atoms: C_4  and  C_7
REMARK    2  A    between atoms: C_7  and  C_8
REMARK    3  A    between atoms: C_8  and  O_38
REMARK    4  A    between atoms: C_14  and  C_16
REMARK    5  A    between atoms: C_22  and  C_24
REMARK                            x       y       z     vdW  Elec       q    Type
REMARK                         _______ _______ _______ _____ _____    ______ ____
ROOT
ATOM      1  C   UNL     1       8.329  -1.042   4.348  0.00  0.00    +0.087 C 
ATOM      2  C   UNL     1       8.013  -2.434   4.899  0.00  0.00    +0.013 C 
ATOM      3  C   UNL     1       7.322  -2.300   6.257  0.00  0.00    +0.001 C 
ATOM      4  C   UNL     1       8.247  -1.565   7.230  0.00  0.00    +0.001 C 
ATOM      5  C   UNL     1       8.563  -0.173   6.679  0.00  0.00    +0.013 C 
ATOM      6  C   UNL     1       9.254  -0.307   5.321  0.00  0.00    +0.087 C 
ENDROOT
BRANCH   6   7
ATOM      7  C   UNL     1       9.566   1.064   4.779  0.00  0.00    +0.219 C 
ATOM      8  O   UNL     1       8.949   2.029   5.178  0.00  0.00    -0.275 OA
ATOM      9  N   UNL     1      10.531   1.218   3.850  0.00  0.00    -0.298 N 
ATOM     10  C   UNL     1      11.359   0.077   3.435  0.00  0.00    +0.126 C 
ATOM     11  C   UNL     1      11.261  -0.071   1.912  0.00  0.00    +0.125 C 
ATOM     12  N   UNL     1      11.504   1.241   1.296  0.00  0.00    -0.314 N 
ATOM     13  C   UNL     1      10.676   2.382   1.711  0.00  0.00    +0.125 C 
ATOM     14  C   UNL     1      10.770   2.529   3.231  0.00  0.00    +0.126 C 
ATOM     15  C   UNL     1      12.499   1.400   0.339  0.00  0.00    +0.099 A 
ATOM     16  C   UNL     1      13.179   0.285  -0.141  0.00  0.00    +0.042 A 
ATOM     17  C   UNL     1      14.167   0.458  -1.093  0.00  0.00    +0.005 A 
ATOM     18  C   UNL     1      14.443   1.745  -1.536  0.00  0.00    +0.018 A 
ATOM     19  C   UNL     1      13.729   2.806  -1.017  0.00  0.00    +0.084 A 
ATOM     20  N   UNL     1      12.788   2.611  -0.113  0.00  0.00    -0.350 N 
ATOM     21  H   UNL     1      12.298   3.374   0.233  0.00  0.00    +0.166 HD
ENDBRANCH   6   7
BRANCH   1  28
ATOM     22  C   UNL     1       4.733  -0.803   0.838  0.00  0.00    +0.073 C 
ATOM     23  C   UNL     1       4.610   0.433   1.732  0.00  0.00    +0.054 C 
ATOM     24  C   UNL     1       4.832   0.027   3.192  0.00  0.00    +0.110 C 
ATOM     25  N   UNL     1       6.121  -0.670   3.299  0.00  0.00    -0.301 N 
ATOM     26  C   UNL     1       6.378  -1.819   2.420  0.00  0.00    +0.110 C 
ATOM     27  C   UNL     1       6.139  -1.392   0.968  0.00  0.00    +0.054 C 
ATOM     28  C   UNL     1       7.050  -0.263   4.186  0.00  0.00    +0.219 C 
ATOM     29  O   UNL     1       6.856   0.730   4.855  0.00  0.00    -0.275 OA
BRANCH  22  30
ATOM     30  O   UNL     1       3.769  -1.779   1.241  0.00  0.00    -0.388 OA
ATOM     31  H   UNL     1       2.853  -1.474   1.184  0.00  0.00    +0.210 HD
ENDBRANCH  22  30
BRANCH  22  32
ATOM     32  C   UNL     1       4.478  -0.407  -0.618  0.00  0.00    +0.070 C 
BRANCH  32  36
ATOM     33  C   UNL     1       0.694   1.551  -0.923  0.00  0.00    +0.000 A 
ATOM     34  C   UNL     1       1.837   2.289  -0.678  0.00  0.00    +0.000 A 
ATOM     35  C   UNL     1       3.061   1.656  -0.579  0.00  0.00    +0.004 A 
ATOM     36  C   UNL     1       3.143   0.283  -0.725  0.00  0.00    -0.045 A 
ATOM     37  C   UNL     1       2.000  -0.455  -0.968  0.00  0.00    +0.004 A 
ATOM     38  C   UNL     1       0.776   0.179  -1.069  0.00  0.00    +0.000 A 
ENDBRANCH  32  36
ENDBRANCH  22  32
ENDBRANCH   1  28
TORSDOF 5
