REMARK  Name = ZINC13138049
REMARK  11 active torsions:
REMARK  status: ('A' for Active; 'I' for Inactive)
REMARK    1  A    between atoms: C_1  and  C_2
REMARK    2  A    between atoms: C_2  and  N_3
REMARK    3  A    between atoms: C_4  and  C_20
REMARK    4  A    between atoms: N_6  and  C_9
REMARK    5  A    between atoms: C_9  and  N_67
REMARK    6  A    between atoms: C_12  and  C_15
REMARK    7  A    between atoms: C_15  and  O_17
REMARK    8  A    between atoms: O_17  and  C_18
REMARK    9  A    between atoms: C_18  and  C_19
REMARK   10  A    between atoms: C_24  and  S_26
REMARK   11  A    between atoms: S_26  and  N_29
REMARK                            x       y       z     vdW  Elec       q    Type
REMARK                         _______ _______ _______ _____ _____    ______ ____
ROOT
ATOM      1  N   UNL     1       3.692   1.605  -0.407  0.00  0.00    -0.303 N 
ATOM      2  C   UNL     1       2.481   1.076  -0.006  0.00  0.00    +0.163 A 
ATOM      3  N   UNL     1       2.668  -0.164   0.351  0.00  0.00    -0.152 NA
ATOM      4  N   UNL     1       4.025  -0.466   0.175  0.00  0.00    -0.257 N 
ATOM      5  C   UNL     1       4.631   0.646  -0.290  0.00  0.00    +0.177 A 
ATOM      6  S   UNL     1       6.294   0.809  -0.665  0.00  0.00    -0.011 S 
ENDROOT
BRANCH   2   7
ATOM      7  C   UNL     1       1.189   1.797   0.021  0.00  0.00    +0.021 A 
ATOM      8  C   UNL     1       1.166   3.192   0.049  0.00  0.00    +0.012 A 
ATOM      9  C   UNL     1      -0.042   3.859   0.074  0.00  0.00    +0.003 A 
ATOM     10  C   UNL     1      -1.228   3.147   0.071  0.00  0.00    +0.028 A 
ATOM     11  C   UNL     1      -1.212   1.764   0.038  0.00  0.00    +0.106 A 
ATOM     12  C   UNL     1      -0.011   1.086   0.018  0.00  0.00    +0.040 A 
BRANCH  11  13
ATOM     13  S   UNL     1      -2.729   0.867   0.028  0.00  0.00    +0.061 S 
ATOM     14  O   UNL     1      -3.715   1.743  -0.500  0.00  0.00    -0.153 OA
ATOM     15  O   UNL     1      -2.447  -0.400  -0.550  0.00  0.00    -0.153 OA
BRANCH  13  16
ATOM     16  N   UNL     1      -3.142   0.586   1.607  0.00  0.00    -0.177 NA
ATOM     17  C   UNL     1      -2.753  -0.591   2.398  0.00  0.00    +0.109 C 
ATOM     18  C   UNL     1      -3.384  -0.431   3.797  0.00  0.00    +0.018 C 
ATOM     19  C   UNL     1      -4.565   0.541   3.535  0.00  0.00    +0.018 C 
ATOM     20  C   UNL     1      -3.966   1.471   2.450  0.00  0.00    +0.109 C 
ENDBRANCH  13  16
ENDBRANCH  11  13
ENDBRANCH   2   7
BRANCH   1  22
ATOM     21  C   UNL     1       4.367   3.849   0.293  0.00  0.00    +0.027 C 
ATOM     22  C   UNL     1       3.916   2.974  -0.878  0.00  0.00    +0.122 C 
ENDBRANCH   1  22
BRANCH   4  23
ATOM     23  C   UNL     1       4.669  -1.752   0.452  0.00  0.00    +0.072 C 
BRANCH  23  29
ATOM     24  C   UNL     1       4.102  -1.271   2.755  0.00  0.00    -0.075 C 
ATOM     25  C   UNL     1       4.672  -1.173   4.172  0.00  0.00    -0.004 C 
ATOM     26  C   UNL     1       5.144  -2.558   4.623  0.00  0.00    +0.094 C 
ATOM     27  C   UNL     1       6.186  -3.082   3.631  0.00  0.00    -0.004 C 
ATOM     28  C   UNL     1       5.572  -3.124   2.230  0.00  0.00    -0.075 C 
ATOM     29  N   UNL     1       5.160  -1.757   1.845  0.00  0.00    +0.393 N 
ATOM     30  H   UNL     1       5.972  -1.133   1.915  0.00  0.00    -0.079 HD
BRANCH  26  31
ATOM     31  C   UNL     1       5.761  -2.458   5.995  0.00  0.00    +0.310 C 
ATOM     32  O   UNL     1       6.916  -2.772   6.162  0.00  0.00    -0.251 OA
BRANCH  31  33
ATOM     33  O   UNL     1       5.028  -2.019   7.030  0.00  0.00    -0.465 OA
BRANCH  33  34
ATOM     34  C   UNL     1       5.688  -1.948   8.322  0.00  0.00    +0.229 C 
ATOM     35  C   UNL     1       4.701  -1.429   9.370  0.00  0.00    +0.048 C 
ENDBRANCH  33  34
ENDBRANCH  31  33
ENDBRANCH  26  31
ENDBRANCH  23  29
ENDBRANCH   4  23
TORSDOF 9
